@<TRIPOS>MOLECULE
*****
 36 39 0 0 0
SMALL
GASTEIGER

@<TRIPOS>ATOM
      1 C           6.2017   -2.1533   31.9747 C.ar    1  UNL1        0.2039
      2 N           6.7000   -3.5303   32.2997 N.ar    1  UNL1       -0.2134
      3 C           6.8702   -4.2781   31.0106 C.ar    1  UNL1        0.1008
      4 C           7.3323   -5.6738   30.7133 C.ar    1  UNL1        0.0207
      5 C           7.4012   -6.1546   29.2942 C.ar    1  UNL1        0.0025
      6 C           7.0080   -5.2398   28.1723 C.ar    1  UNL1        0.0130
      7 C           6.5459   -3.8441   28.4696 C.ar    1  UNL1        0.0750
      8 CL          6.1528   -2.9293   27.3478 Cl      1  UNL1       -0.0807
      9 C           6.4770   -3.3632   29.8887 C.ar    1  UNL1        0.0905
     10 N           6.0639   -2.0501   30.4846 N.ar    1  UNL1       -0.2989
     11 C           5.5952   -0.8453   29.7239 C.3     1  UNL1        0.1079
     12 C           6.6672   -0.0508   29.0384 C.3     1  UNL1        0.0245
     13 C           6.5253    1.1909   28.2090 C.3     1  UNL1        0.0037
     14 C           5.2764    1.9450   27.8601 C.3     1  UNL1        0.0216
     15 C           3.8609    1.6434   28.2546 C.3     1  UNL1        0.0938
     16 N           3.3448    0.5134   29.0953 N.am    1  UNL1       -0.2742
     17 C           1.8605    0.4875   29.3106 C.2     1  UNL1        0.2489
     18 O           1.2413   -0.6008   30.1365 O.2     1  UNL1       -0.2699
     19 C           4.1167   -0.5941   29.7491 C.3     1  UNL1        0.1162
     20 C           0.9955    1.5500   28.6999 C.2     1  UNL1        0.0548
     21 C          -0.1478    1.1655   27.8083 C.2     1  UNL1       -0.0041
     22 C          -1.0129    2.2279   27.1975 C.3     1  UNL1        0.0991
     23 N          -1.0419    2.4073   25.7086 N.3     1  UNL1       -0.2665
     24 C          -0.0069    1.7400   24.8523 C.3     1  UNL1        0.0899
     25 C          -2.1061    3.2543   25.0760 C.3     1  UNL1        0.0899
     26 C           4.7332   -1.2174   33.9027 C.2     1  UNL1        0.2517
     27 O           3.8778   -2.4485   33.8488 O.2     1  UNL1       -0.2697
     28 N           5.8951   -1.0699   32.9657 N.am    1  UNL1       -0.2518
     29 H           6.4565   -0.2619   33.0011 H       1  UNL1        0.1580
     30 C           2.5820    3.3775   35.0247 C.3     1  UNL1        0.0521
     31 C           3.3510    2.1636   35.4547 C.ar    1  UNL1        0.0595
     32 C           3.6576    1.0801   34.4637 C.ar    1  UNL1        0.0193
     33 C           4.4266   -0.1339   34.8937 C.ar    1  UNL1        0.0565
     34 C           4.8890   -0.2644   36.3147 C.ar    1  UNL1        0.0252
     35 C           4.5824    0.8191   37.3056 C.ar    1  UNL1        0.0986
     36 N           3.8134    2.0330   36.8757 N.ar    1  UNL1       -0.2481
@<TRIPOS>BOND
     1    30    31    1
     2    31    32   ar
     3    32    33   ar
     4    33    26    1
     5    26    27    2
     6    26    28   am
     7    28     1    1
     8     1     2   ar
     9     2     3   ar
    10     3     4   ar
    11     4     5   ar
    12     5     6   ar
    13     6     7   ar
    14     7     8    1
    15     7     9   ar
    16     9    10   ar
    17    11    10    1
    18    11    12    1
    19    12    13    1
    20    13    14    1
    21    14    15    1
    22    15    16    1
    23    16    17   am
    24    17    18    2
    25    17    20    1
    26    20    21    2
    27    21    22    1
    28    22    23    1
    29    23    24    1
    30    23    25    1
    31    16    19    1
    32    33    34   ar
    33    34    35   ar
    34    35    36   ar
    35    36    31   ar
    36    10     1   ar
    37    19    11    1
    38     9     3   ar
    39    28    29    1
@<TRIPOS>MOLECULE
*****
 36 39 0 0 0
SMALL
GASTEIGER

@<TRIPOS>ATOM
      1 C           4.9602    0.2349   34.8624 C.ar    1  UNL1        0.2039
      2 N           4.9394   -0.0965   36.3252 N.ar    1  UNL1       -0.2134
      3 C           4.0273    0.8787   37.0086 C.ar    1  UNL1        0.1008
      4 C           3.6211    1.0368   38.4438 C.ar    1  UNL1        0.0207
      5 C           2.6719    2.1291   38.8386 C.ar    1  UNL1        0.0025
      6 C           2.1290    3.0633   37.7982 C.ar    1  UNL1        0.0130
      7 C           2.5353    2.9053   36.3630 C.ar    1  UNL1        0.0750
      8 CL          1.9924    3.8395   35.3225 Cl      1  UNL1       -0.0807
      9 C           3.4844    1.8130   35.9682 C.ar    1  UNL1        0.0905
     10 N           4.0610    1.4151   34.6418 N.ar    1  UNL1       -0.2989
     11 C           3.7864    2.0805   33.3258 C.3     1  UNL1        0.1079
     12 C           4.2415    3.5051   33.2094 C.3     1  UNL1        0.0245
     13 C           4.1157    4.4344   32.0387 C.3     1  UNL1        0.0037
     14 C           3.5038    4.1687   30.6952 C.3     1  UNL1        0.0216
     15 C           2.8665    2.9080   30.1907 C.3     1  UNL1        0.0938
     16 N           2.6838    1.6017   30.9049 N.am    1  UNL1       -0.2742
     17 C           2.0014    0.5207   30.1202 C.2     1  UNL1        0.2489
     18 O           1.7692   -0.8246   30.7417 O.2     1  UNL1       -0.2699
     19 C           3.0932    1.2335   32.3002 C.3     1  UNL1        0.1162
     20 C           1.5513    0.7850   28.7140 C.2     1  UNL1        0.0548
     21 C           0.0941    0.9816   28.4174 C.2     1  UNL1       -0.0041
     22 C          -0.3562    1.2460   27.0112 C.3     1  UNL1        0.0991
     23 N          -0.7325    2.6364   26.5930 N.3     1  UNL1       -0.2665
     24 C          -1.4697    2.8589   25.3057 C.3     1  UNL1        0.0899
     25 C          -0.3718    3.8045   27.4622 C.3     1  UNL1        0.0899
     26 C           5.1426   -1.6693   33.1044 C.2     1  UNL1        0.2517
     27 O           3.7599   -2.1297   33.4595 O.2     1  UNL1       -0.2697
     28 N           5.7428   -0.4870   33.8058 N.am    1  UNL1       -0.2518
     29 H           6.6503   -0.1848   33.5727 H       1  UNL1        0.1580
     30 C           7.5616   -5.9545   31.4355 C.3     1  UNL1        0.0521
     31 C           7.1347   -4.5338   31.2134 C.ar    1  UNL1        0.0595
     32 C           6.3521   -3.8119   32.2700 C.ar    1  UNL1        0.0193
     33 C           5.9252   -2.3912   32.0478 C.ar    1  UNL1        0.0565
     34 C           6.2809   -1.6924   30.7690 C.ar    1  UNL1        0.0252
     35 C           7.0635   -2.4143   29.7124 C.ar    1  UNL1        0.0986
     36 N           7.4904   -3.8350   29.9346 N.ar    1  UNL1       -0.2481
@<TRIPOS>BOND
     1    30    31    1
     2    31    32   ar
     3    32    33   ar
     4    33    26    1
     5    26    27    2
     6    26    28   am
     7    28     1    1
     8     1     2   ar
     9     2     3   ar
    10     3     4   ar
    11     4     5   ar
    12     5     6   ar
    13     6     7   ar
    14     7     8    1
    15     7     9   ar
    16     9    10   ar
    17    11    10    1
    18    11    12    1
    19    12    13    1
    20    13    14    1
    21    14    15    1
    22    15    16    1
    23    16    17   am
    24    17    18    2
    25    17    20    1
    26    20    21    2
    27    21    22    1
    28    22    23    1
    29    23    24    1
    30    23    25    1
    31    16    19    1
    32    33    34   ar
    33    34    35   ar
    34    35    36   ar
    35    36    31   ar
    36    10     1   ar
    37    19    11    1
    38     9     3   ar
    39    28    29    1
@<TRIPOS>MOLECULE
*****
 36 39 0 0 0
SMALL
GASTEIGER

@<TRIPOS>ATOM
      1 C           1.3986    1.0944   23.1227 C.ar    1  UNL1        0.2039
      2 N           1.2918    0.5027   24.4969 N.ar    1  UNL1       -0.2134
      3 C           0.3308    1.3394   25.2884 C.ar    1  UNL1        0.1008
      4 C          -0.1636    1.2349   26.7007 C.ar    1  UNL1        0.0207
      5 C          -1.1452    2.2391   27.2279 C.ar    1  UNL1        0.0025
      6 C          -1.6323    3.3479   26.3429 C.ar    1  UNL1        0.0130
      7 C          -1.1379    3.4524   24.9306 C.ar    1  UNL1        0.0750
      8 CL         -1.6251    4.5611   24.0455 Cl      1  UNL1       -0.0807
      9 C          -0.1564    2.4481   24.4034 C.ar    1  UNL1        0.0905
     10 N           0.5036    2.2967   23.0649 N.ar    1  UNL1       -0.2989
     11 C           0.3036    3.1907   21.8771 C.3     1  UNL1        0.1079
     12 C           1.5077    3.9710   21.4397 C.3     1  UNL1        0.0245
     13 C           1.6316    4.9394   20.3010 C.3     1  UNL1        0.0037
     14 C           0.5820    5.3669   19.3184 C.3     1  UNL1        0.0216
     15 C          -0.8508    4.9314   19.2318 C.3     1  UNL1        0.0938
     16 N          -1.5878    3.9609   20.1064 N.am    1  UNL1       -0.2742
     17 C          -3.0292    3.7352   19.7578 C.2     1  UNL1        0.2489
     18 O          -3.8571    2.7836   20.5696 O.2     1  UNL1       -0.2699
     19 C          -1.0740    3.1862   21.2837 C.3     1  UNL1        0.1162
     20 C          -3.6425    4.4611   18.5973 C.2     1  UNL1        0.0548
     21 C          -4.9708    4.0225   18.0555 C.2     1  UNL1       -0.0041
     22 C          -5.5842    4.7483   16.8950 C.3     1  UNL1        0.0991
     23 N          -6.8278    5.5634   17.0926 N.3     1  UNL1       -0.2665
     24 C          -7.3325    6.4420   15.9866 C.3     1  UNL1        0.0899
     25 C          -7.5668    5.4998   18.3964 C.3     1  UNL1        0.0899
     26 C           1.6106   -0.0798   20.8148 C.2     1  UNL1        0.2517
     27 O           0.1182   -0.2151   20.7465 O.2     1  UNL1       -0.2697
     28 N           2.2508    0.5749   22.0029 N.am    1  UNL1       -0.2518
     29 H           3.2302    0.6637   22.0477 H       1  UNL1        0.1580
     30 C           4.6167   -3.8118   18.8058 C.3     1  UNL1        0.0521
     31 C           3.9658   -2.4653   18.6905 C.ar    1  UNL1        0.0595
     32 C           3.1137   -1.9458   19.8103 C.ar    1  UNL1        0.0193
     33 C           2.4628   -0.5993   19.6950 C.ar    1  UNL1        0.0565
     34 C           2.6641    0.2277   18.4599 C.ar    1  UNL1        0.0252
     35 C           3.5163   -0.2918   17.3401 C.ar    1  UNL1        0.0986
     36 N           4.1671   -1.6382   17.4554 N.ar    1  UNL1       -0.2481
@<TRIPOS>BOND
     1    30    31    1
     2    31    32   ar
     3    32    33   ar
     4    33    26    1
     5    26    27    2
     6    26    28   am
     7    28     1    1
     8     1     2   ar
     9     2     3   ar
    10     3     4   ar
    11     4     5   ar
    12     5     6   ar
    13     6     7   ar
    14     7     8    1
    15     7     9   ar
    16     9    10   ar
    17    11    10    1
    18    11    12    1
    19    12    13    1
    20    13    14    1
    21    14    15    1
    22    15    16    1
    23    16    17   am
    24    17    18    2
    25    17    20    1
    26    20    21    2
    27    21    22    1
    28    22    23    1
    29    23    24    1
    30    23    25    1
    31    16    19    1
    32    33    34   ar
    33    34    35   ar
    34    35    36   ar
    35    36    31   ar
    36    10     1   ar
    37    19    11    1
    38     9     3   ar
    39    28    29    1
@<TRIPOS>MOLECULE
*****
 36 39 0 0 0
SMALL
GASTEIGER

@<TRIPOS>ATOM
      1 C          -3.0704    4.3625   23.0176 C.ar    1  UNL1        0.2039
      2 N          -3.5372    4.1469   24.4267 N.ar    1  UNL1       -0.2134
      3 C          -2.3739    3.6427   25.2283 C.ar    1  UNL1        0.1008
      4 C          -2.2412    3.2586   26.6722 C.ar    1  UNL1        0.0207
      5 C          -0.9227    2.7786   27.2024 C.ar    1  UNL1        0.0025
      6 C           0.2630    2.6826   26.2887 C.ar    1  UNL1        0.0130
      7 C           0.1303    3.0667   24.8448 C.ar    1  UNL1        0.0750
      8 CL          1.3160    2.9707   23.9311 Cl      1  UNL1       -0.0807
      9 C          -1.1882    3.5467   24.3146 C.ar    1  UNL1        0.0905
     10 N          -1.6186    3.9916   22.9483 N.ar    1  UNL1       -0.2989
     11 C          -0.7498    4.0545   21.7272 C.3     1  UNL1        0.1079
     12 C          -0.3643    5.4312   21.2729 C.3     1  UNL1        0.0245
     13 C           0.4848    5.8257   20.1011 C.3     1  UNL1        0.0037
     14 C           1.1582    4.9412   19.0940 C.3     1  UNL1        0.0216
     15 C           1.1487    3.4436   19.0101 C.3     1  UNL1        0.0938
     16 N           0.4635    2.4606   19.9125 N.am    1  UNL1       -0.2742
     17 C           0.6476    1.0145   19.5590 C.2     1  UNL1        0.2489
     18 O           0.0043   -0.0502   20.3971 O.2     1  UNL1       -0.2699
     19 C          -0.3814    2.7326   21.1217 C.3     1  UNL1        0.1162
     20 C           1.4750    0.6333   18.3674 C.2     1  UNL1        0.0548
     21 C           2.7448   -0.1433   18.5535 C.2     1  UNL1       -0.0041
     22 C           3.5723   -0.5246   17.3619 C.3     1  UNL1        0.0991
     23 N           4.9604   -1.0600   17.5530 N.3     1  UNL1       -0.2665
     24 C           6.1466   -0.2079   17.2115 C.3     1  UNL1        0.0899
     25 C           5.1621   -2.4477   18.0855 C.3     1  UNL1        0.0899
     26 C          -4.6370    3.8876   21.0001 C.2     1  UNL1        0.2517
     27 O          -4.5280    2.4146   21.2622 O.2     1  UNL1       -0.2697
     28 N          -3.9083    4.8615   21.8778 N.am    1  UNL1       -0.2518
     29 H          -3.9799    5.8282   21.7058 H       1  UNL1        0.1580
     30 C          -5.1164    5.1482   15.9821 C.3     1  UNL1        0.0521
     31 C          -5.7145    5.0168   17.3513 C.ar    1  UNL1        0.0595
     32 C          -4.8767    4.5179   18.4911 C.ar    1  UNL1        0.0193
     33 C          -5.4749    4.3865   19.8604 C.ar    1  UNL1        0.0565
     34 C          -6.9109    4.7541   20.0899 C.ar    1  UNL1        0.0252
     35 C          -7.7488    5.2530   18.9501 C.ar    1  UNL1        0.0986
     36 N          -7.1506    5.3844   17.5809 N.ar    1  UNL1       -0.2481
@<TRIPOS>BOND
     1    30    31    1
     2    31    32   ar
     3    32    33   ar
     4    33    26    1
     5    26    27    2
     6    26    28   am
     7    28     1    1
     8     1     2   ar
     9     2     3   ar
    10     3     4   ar
    11     4     5   ar
    12     5     6   ar
    13     6     7   ar
    14     7     8    1
    15     7     9   ar
    16     9    10   ar
    17    11    10    1
    18    11    12    1
    19    12    13    1
    20    13    14    1
    21    14    15    1
    22    15    16    1
    23    16    17   am
    24    17    18    2
    25    17    20    1
    26    20    21    2
    27    21    22    1
    28    22    23    1
    29    23    24    1
    30    23    25    1
    31    16    19    1
    32    33    34   ar
    33    34    35   ar
    34    35    36   ar
    35    36    31   ar
    36    10     1   ar
    37    19    11    1
    38     9     3   ar
    39    28    29    1
@<TRIPOS>MOLECULE
*****
 36 39 0 0 0
SMALL
GASTEIGER

@<TRIPOS>ATOM
      1 C           2.2681    2.4627   34.2873 C.ar    1  UNL1        0.2039
      2 N           1.6706    3.0451   35.5338 N.ar    1  UNL1       -0.2134
      3 C           2.7623    3.1755   36.5541 C.ar    1  UNL1        0.1008
      4 C           2.7623    3.6863   37.9644 C.ar    1  UNL1        0.0207
      5 C           4.0346    3.6953   38.7589 C.ar    1  UNL1        0.0025
      6 C           5.3069    3.1935   38.1430 C.ar    1  UNL1        0.0130
      7 C           5.3070    2.6827   36.7326 C.ar    1  UNL1        0.0750
      8 CL          6.5793    2.1809   36.1168 Cl      1  UNL1       -0.0807
      9 C           4.0347    2.6737   35.9382 C.ar    1  UNL1        0.0905
     10 N           3.7292    2.2332   34.5373 N.ar    1  UNL1       -0.2989
     11 C           4.7124    1.6632   33.5582 C.3     1  UNL1        0.1079
     12 C           5.6493    2.6503   32.9272 C.3     1  UNL1        0.0245
     13 C           6.7337    2.3995   31.9218 C.3     1  UNL1        0.0037
     14 C           7.1493    1.0997   31.2989 C.3     1  UNL1        0.0216
     15 C           6.5829   -0.2702   31.5277 C.3     1  UNL1        0.0938
     16 N           5.4611   -0.6789   32.4358 N.am    1  UNL1       -0.2742
     17 C           5.1276   -2.1413   32.4410 C.2     1  UNL1        0.2489
     18 O           4.0217   -2.6553   33.3143 O.2     1  UNL1       -0.2699
     19 C           4.6287    0.1817   33.3394 C.3     1  UNL1        0.1162
     20 C           5.9002   -3.0897   31.5728 C.2     1  UNL1        0.0548
     21 C           6.6552   -4.2282   32.1925 C.2     1  UNL1       -0.0041
     22 C           7.4277   -5.1766   31.3244 C.3     1  UNL1        0.0991
     23 N           7.6237   -4.8711   29.8690 N.3     1  UNL1       -0.2665
     24 C           8.7912   -4.0393   29.4277 C.3     1  UNL1        0.0899
     25 C           6.6519   -5.3976   28.8548 C.3     1  UNL1        0.0899
     26 C           1.7483    3.0223   31.8040 C.2     1  UNL1        0.2517
     27 O           2.6975    4.1821   31.8666 O.2     1  UNL1       -0.2697
     28 N           1.5336    2.1626   33.0143 N.am    1  UNL1       -0.2518
     29 H           0.9106    1.4014   32.9733 H       1  UNL1        0.1580
     30 C          -0.9434   -0.2846   28.8342 C.3     1  UNL1        0.0521
     31 C          -0.3321    1.0687   29.0462 C.ar    1  UNL1        0.0595
     32 C           0.4024    1.3688   30.3191 C.ar    1  UNL1        0.0193
     33 C           1.0137    2.7221   30.5311 C.ar    1  UNL1        0.0565
     34 C           0.8905    3.7753   29.4701 C.ar    1  UNL1        0.0252
     35 C           0.1559    3.4752   28.1972 C.ar    1  UNL1        0.0986
     36 N          -0.4554    2.1219   27.9852 N.ar    1  UNL1       -0.2481
@<TRIPOS>BOND
     1    30    31    1
     2    31    32   ar
     3    32    33   ar
     4    33    26    1
     5    26    27    2
     6    26    28   am
     7    28     1    1
     8     1     2   ar
     9     2     3   ar
    10     3     4   ar
    11     4     5   ar
    12     5     6   ar
    13     6     7   ar
    14     7     8    1
    15     7     9   ar
    16     9    10   ar
    17    11    10    1
    18    11    12    1
    19    12    13    1
    20    13    14    1
    21    14    15    1
    22    15    16    1
    23    16    17   am
    24    17    18    2
    25    17    20    1
    26    20    21    2
    27    21    22    1
    28    22    23    1
    29    23    24    1
    30    23    25    1
    31    16    19    1
    32    33    34   ar
    33    34    35   ar
    34    35    36   ar
    35    36    31   ar
    36    10     1   ar
    37    19    11    1
    38     9     3   ar
    39    28    29    1
@<TRIPOS>MOLECULE
*****
 36 39 0 0 0
SMALL
GASTEIGER

@<TRIPOS>ATOM
      1 C           4.2909   -0.7818   33.1544 C.ar    1  UNL1        0.2039
      2 N           4.9483   -2.0576   33.5902 N.ar    1  UNL1       -0.2134
      3 C           5.6419   -2.6518   32.4003 C.ar    1  UNL1        0.1008
      4 C           6.4522   -3.9028   32.2320 C.ar    1  UNL1        0.0207
      5 C           7.0337   -4.2451   30.8924 C.ar    1  UNL1        0.0025
      6 C           6.8049   -3.3364   29.7210 C.ar    1  UNL1        0.0130
      7 C           5.9946   -2.0854   29.8893 C.ar    1  UNL1        0.0750
      8 CL          5.7658   -1.1768   28.7180 Cl      1  UNL1       -0.0807
      9 C           5.4131   -1.7431   31.2289 C.ar    1  UNL1        0.0905
     10 N           4.5782   -0.5874   31.6950 N.ar    1  UNL1       -0.2989
     11 C           4.1123    0.5611   30.8500 C.3     1  UNL1        0.1079
     12 C           5.0728    1.7061   30.7213 C.3     1  UNL1        0.0245
     13 C           4.9058    2.9854   29.9564 C.3     1  UNL1        0.0037
     14 C           3.7370    3.4359   29.1311 C.3     1  UNL1        0.0216
     15 C           2.4466    2.7182   28.8670 C.3     1  UNL1        0.0938
     16 N           2.0062    1.3728   29.3629 N.am    1  UNL1       -0.2742
     17 C           0.6445    0.9286   28.9175 C.2     1  UNL1        0.2489
     18 O           0.1083   -0.4015   29.3573 O.2     1  UNL1       -0.2699
     19 C           2.7476    0.4128   30.2455 C.3     1  UNL1        0.1162
     20 C          -0.1809    1.8145   28.0322 C.2     1  UNL1        0.0548
     21 C          -0.2545    1.5434   26.5587 C.2     1  UNL1       -0.0041
     22 C          -1.0799    2.4293   25.6734 C.3     1  UNL1        0.0991
     23 N          -0.5750    2.8106   24.3134 N.3     1  UNL1       -0.2665
     24 C           0.8641    2.5834   23.9566 C.3     1  UNL1        0.0899
     25 C          -1.5094    3.4192   23.3101 C.3     1  UNL1        0.0899
     26 C           4.1797    1.0401   35.0032 C.2     1  UNL1        0.2517
     27 O           5.6758    1.0222   35.1109 O.2     1  UNL1       -0.2697
     28 N           3.4873    0.1382   34.0250 N.am    1  UNL1       -0.2518
     29 H           2.5054    0.1499   33.9543 H       1  UNL1        0.1580
     30 C           1.2089    5.2685   35.5463 C.3     1  UNL1        0.0521
     31 C           1.8907    4.0743   36.1453 C.ar    1  UNL1        0.0595
     32 C           2.6943    3.1544   35.2747 C.ar    1  UNL1        0.0193
     33 C           3.3761    1.9601   35.8738 C.ar    1  UNL1        0.0565
     34 C           3.2543    1.6857   37.3435 C.ar    1  UNL1        0.0252
     35 C           2.4508    2.6057   38.2141 C.ar    1  UNL1        0.0986
     36 N           1.7690    3.7999   37.6151 N.ar    1  UNL1       -0.2481
@<TRIPOS>BOND
     1    30    31    1
     2    31    32   ar
     3    32    33   ar
     4    33    26    1
     5    26    27    2
     6    26    28   am
     7    28     1    1
     8     1     2   ar
     9     2     3   ar
    10     3     4   ar
    11     4     5   ar
    12     5     6   ar
    13     6     7   ar
    14     7     8    1
    15     7     9   ar
    16     9    10   ar
    17    11    10    1
    18    11    12    1
    19    12    13    1
    20    13    14    1
    21    14    15    1
    22    15    16    1
    23    16    17   am
    24    17    18    2
    25    17    20    1
    26    20    21    2
    27    21    22    1
    28    22    23    1
    29    23    24    1
    30    23    25    1
    31    16    19    1
    32    33    34   ar
    33    34    35   ar
    34    35    36   ar
    35    36    31   ar
    36    10     1   ar
    37    19    11    1
    38     9     3   ar
    39    28    29    1
@<TRIPOS>MOLECULE
*****
 36 39 0 0 0
SMALL
GASTEIGER

@<TRIPOS>ATOM
      1 C           3.1205    2.0601   33.7642 C.ar    1  UNL1        0.2039
      2 N           2.1712    2.4874   34.8441 N.ar    1  UNL1       -0.2134
      3 C           2.8563    2.2985   36.1651 C.ar    1  UNL1        0.1008
      4 C           2.4076    2.5516   37.5738 C.ar    1  UNL1        0.0207
      5 C           3.3316    2.2606   38.7189 C.ar    1  UNL1        0.0025
      6 C           4.7043    1.7165   38.4554 C.ar    1  UNL1        0.0130
      7 C           5.1531    1.4634   37.0467 C.ar    1  UNL1        0.0750
      8 CL          6.5259    0.9193   36.7832 Cl      1  UNL1       -0.0807
      9 C           4.2291    1.7544   35.9015 C.ar    1  UNL1        0.0905
     10 N           4.3923    1.6071   34.4177 N.ar    1  UNL1       -0.2989
     11 C           5.6132    1.0964   33.7115 C.3     1  UNL1        0.1079
     12 C           6.6676    2.1203   33.4114 C.3     1  UNL1        0.0245
     13 C           7.9873    1.9301   32.7244 C.3     1  UNL1        0.0037
     14 C           8.5788    0.6690   32.1678 C.3     1  UNL1        0.0216
     15 C           7.9964   -0.7134   32.1608 C.3     1  UNL1        0.0938
     16 N           6.6789   -1.1761   32.7085 N.am    1  UNL1       -0.2742
     17 C           6.3828   -2.6374   32.5445 C.2     1  UNL1        0.2489
     18 O           5.0918   -3.2032   33.0574 O.2     1  UNL1       -0.2699
     19 C           5.6183   -0.3705   33.3986 C.3     1  UNL1        0.1162
     20 C           7.3778   -3.5327   31.8675 C.2     1  UNL1        0.0548
     21 C           6.9096   -4.7533   31.1320 C.2     1  UNL1       -0.0041
     22 C           7.9045   -5.6487   30.4550 C.3     1  UNL1        0.0991
     23 N           7.6496   -6.1323   29.0582 N.3     1  UNL1       -0.2665
     24 C           6.6062   -5.4651   28.2120 C.3     1  UNL1        0.0899
     25 C           8.4383   -7.2833   28.5074 C.3     1  UNL1        0.0899
     26 C           2.6545    0.7951   31.5433 C.2     1  UNL1        0.2517
     27 O           2.7373   -0.5138   32.2714 O.2     1  UNL1       -0.2697
     28 N           2.8461    2.0820   32.2897 N.am    1  UNL1       -0.2518
     29 H           2.7917    2.9410   31.8118 H       1  UNL1        0.1580
     30 C          -0.6834    1.3092   27.5943 C.3     1  UNL1        0.0521
     31 C           0.7111    1.0741   28.0943 C.ar    1  UNL1        0.0595
     32 C           0.9855    1.0522   29.5688 C.ar    1  UNL1        0.0193
     33 C           2.3801    0.8170   30.0687 C.ar    1  UNL1        0.0565
     34 C           3.5002    0.6037   29.0942 C.ar    1  UNL1        0.0252
     35 C           3.2258    0.6256   27.6196 C.ar    1  UNL1        0.0986
     36 N           1.8313    0.8608   27.1197 N.ar    1  UNL1       -0.2481
@<TRIPOS>BOND
     1    30    31    1
     2    31    32   ar
     3    32    33   ar
     4    33    26    1
     5    26    27    2
     6    26    28   am
     7    28     1    1
     8     1     2   ar
     9     2     3   ar
    10     3     4   ar
    11     4     5   ar
    12     5     6   ar
    13     6     7   ar
    14     7     8    1
    15     7     9   ar
    16     9    10   ar
    17    11    10    1
    18    11    12    1
    19    12    13    1
    20    13    14    1
    21    14    15    1
    22    15    16    1
    23    16    17   am
    24    17    18    2
    25    17    20    1
    26    20    21    2
    27    21    22    1
    28    22    23    1
    29    23    24    1
    30    23    25    1
    31    16    19    1
    32    33    34   ar
    33    34    35   ar
    34    35    36   ar
    35    36    31   ar
    36    10     1   ar
    37    19    11    1
    38     9     3   ar
    39    28    29    1
@<TRIPOS>MOLECULE
*****
 36 39 0 0 0
SMALL
GASTEIGER

@<TRIPOS>ATOM
      1 C           7.0863   -3.8136   23.1331 C.ar    1  UNL1        0.2039
      2 N           7.3308   -5.2415   22.7440 N.ar    1  UNL1       -0.2134
      3 C           7.9509   -5.9418   23.9167 C.ar    1  UNL1        0.1008
      4 C           8.4071   -7.3570   24.1141 C.ar    1  UNL1        0.0207
      5 C           9.0020   -7.7771   25.4254 C.ar    1  UNL1        0.0025
      6 C           9.1407   -6.7821   26.5393 C.ar    1  UNL1        0.0130
      7 C           8.6845   -5.3669   26.3418 C.ar    1  UNL1        0.0750
      8 CL          8.8232   -4.3718   27.4556 Cl      1  UNL1       -0.0807
      9 C           8.0896   -4.9467   25.0305 C.ar    1  UNL1        0.0905
     10 N           7.5553   -3.6315   24.5462 N.ar    1  UNL1       -0.2989
     11 C           7.4997   -2.3576   25.3364 C.3     1  UNL1        0.1079
     12 C           8.7335   -1.5060   25.2859 C.3     1  UNL1        0.0245
     13 C           8.9900   -0.1904   25.9590 C.3     1  UNL1        0.0037
     14 C           8.0761    0.5987   26.8490 C.3     1  UNL1        0.0216
     15 C           6.6799    0.2670   27.2856 C.3     1  UNL1        0.0938
     16 N           5.8528   -0.9357   26.9401 N.am    1  UNL1       -0.2742
     17 C           4.4792   -0.9757   27.5415 C.2     1  UNL1        0.2489
     18 O           3.5703   -2.1352   27.2592 O.2     1  UNL1       -0.2699
     19 C           6.2177   -2.1038   26.0725 C.3     1  UNL1        0.1162
     20 C           4.0146    0.1437   28.4252 C.2     1  UNL1        0.0548
     21 C           2.9687   -0.1103   29.4701 C.2     1  UNL1       -0.0041
     22 C           2.5041    1.0091   30.3538 C.3     1  UNL1        0.0991
     23 N           1.0451    1.3492   30.4290 N.3     1  UNL1       -0.2665
     24 C           0.5286    2.1921   31.5572 C.3     1  UNL1        0.0899
     25 C           0.1026    0.8464   29.3760 C.3     1  UNL1        0.0899
     26 C           5.1619   -3.0003   21.5888 C.2     1  UNL1        0.2517
     27 O           4.4511   -4.3064   21.7867 O.2     1  UNL1       -0.2697
     28 N           6.4794   -2.7539   22.2620 N.am    1  UNL1       -0.2518
     29 H           6.9459   -1.8967   22.1321 H       1  UNL1        0.1580
     30 C           1.0098   -0.3000   20.0175 C.3     1  UNL1        0.0521
     31 C           2.4789   -0.5905   19.9321 C.ar    1  UNL1        0.0595
     32 C           3.0858   -1.6502   20.8032 C.ar    1  UNL1        0.0193
     33 C           4.5550   -1.9406   20.7177 C.ar    1  UNL1        0.0565
     34 C           5.4172   -1.1715   19.7612 C.ar    1  UNL1        0.0252
     35 C           4.8103   -0.1118   18.8901 C.ar    1  UNL1        0.0986
     36 N           3.3412    0.1787   18.9755 N.ar    1  UNL1       -0.2481
@<TRIPOS>BOND
     1    30    31    1
     2    31    32   ar
     3    32    33   ar
     4    33    26    1
     5    26    27    2
     6    26    28   am
     7    28     1    1
     8     1     2   ar
     9     2     3   ar
    10     3     4   ar
    11     4     5   ar
    12     5     6   ar
    13     6     7   ar
    14     7     8    1
    15     7     9   ar
    16     9    10   ar
    17    11    10    1
    18    11    12    1
    19    12    13    1
    20    13    14    1
    21    14    15    1
    22    15    16    1
    23    16    17   am
    24    17    18    2
    25    17    20    1
    26    20    21    2
    27    21    22    1
    28    22    23    1
    29    23    24    1
    30    23    25    1
    31    16    19    1
    32    33    34   ar
    33    34    35   ar
    34    35    36   ar
    35    36    31   ar
    36    10     1   ar
    37    19    11    1
    38     9     3   ar
    39    28    29    1
@<TRIPOS>MOLECULE
*****
 36 39 0 0 0
SMALL
GASTEIGER

@<TRIPOS>ATOM
      1 C           0.6468    1.0823   21.5420 C.ar    1  UNL1        0.2039
      2 N          -0.3718    1.3072   20.4642 N.ar    1  UNL1       -0.2134
      3 C          -0.9357    2.6861   20.6397 C.ar    1  UNL1        0.1008
      4 C          -1.9728    3.4515   19.8725 C.ar    1  UNL1        0.0207
      5 C          -2.3397    4.8442   20.2917 C.ar    1  UNL1        0.0025
      6 C          -1.6696    5.4714   21.4781 C.ar    1  UNL1        0.0130
      7 C          -0.6326    4.7060   22.2453 C.ar    1  UNL1        0.0750
      8 CL          0.0375    5.3333   23.4317 Cl      1  UNL1       -0.0807
      9 C          -0.2656    3.3133   21.8261 C.ar    1  UNL1        0.0905
     10 N           0.7124    2.3221   22.3837 N.ar    1  UNL1       -0.2989
     11 C           1.6002    2.5337   23.5741 C.3     1  UNL1        0.1079
     12 C           3.0327    2.8573   23.2684 C.3     1  UNL1        0.0245
     13 C           4.1569    3.1207   24.2258 C.3     1  UNL1        0.0037
     14 C           4.1264    3.1257   25.7256 C.3     1  UNL1        0.0216
     15 C           2.9640    2.8685   26.6381 C.3     1  UNL1        0.0938
     16 N           1.5452    2.5427   26.2765 N.am    1  UNL1       -0.2742
     17 C           0.6095    2.3390   27.4311 C.2     1  UNL1        0.2489
     18 O          -0.8319    2.0090   27.1792 O.2     1  UNL1       -0.2699
     19 C           0.9383    2.3937   24.9128 C.3     1  UNL1        0.1162
     20 C           1.1153    2.4653   28.8375 C.2     1  UNL1        0.0548
     21 C           0.8257    1.3863   29.8385 C.2     1  UNL1       -0.0041
     22 C           1.3315    1.5126   31.2450 C.3     1  UNL1        0.0991
     23 N           2.4191    0.6035   31.7354 N.3     1  UNL1       -0.2665
     24 C           2.8329   -0.5819   30.9147 C.3     1  UNL1        0.0899
     25 C           3.0932    0.8800   33.0466 C.3     1  UNL1        0.0899
     26 C           2.4976   -0.5525   20.7346 C.2     1  UNL1        0.2517
     27 O           2.7272    0.3048   19.5252 O.2     1  UNL1       -0.2697
     28 N           1.4574   -0.1637   21.7429 N.am    1  UNL1       -0.2518
     29 H           1.3067   -0.7263   22.5367 H       1  UNL1        0.1580
     30 C           4.5583   -4.9334   18.8475 C.3     1  UNL1        0.0521
     31 C           4.3385   -3.9890   19.9919 C.ar    1  UNL1        0.0595
     32 C           3.5279   -2.7429   19.7910 C.ar    1  UNL1        0.0193
     33 C           3.3082   -1.7985   20.9355 C.ar    1  UNL1        0.0565
     34 C           3.8991   -2.1000   22.2808 C.ar    1  UNL1        0.0252
     35 C           4.7097   -3.3460   22.4817 C.ar    1  UNL1        0.0986
     36 N           4.9295   -4.2905   21.3373 N.ar    1  UNL1       -0.2481
@<TRIPOS>BOND
     1    30    31    1
     2    31    32   ar
     3    32    33   ar
     4    33    26    1
     5    26    27    2
     6    26    28   am
     7    28     1    1
     8     1     2   ar
     9     2     3   ar
    10     3     4   ar
    11     4     5   ar
    12     5     6   ar
    13     6     7   ar
    14     7     8    1
    15     7     9   ar
    16     9    10   ar
    17    11    10    1
    18    11    12    1
    19    12    13    1
    20    13    14    1
    21    14    15    1
    22    15    16    1
    23    16    17   am
    24    17    18    2
    25    17    20    1
    26    20    21    2
    27    21    22    1
    28    22    23    1
    29    23    24    1
    30    23    25    1
    31    16    19    1
    32    33    34   ar
    33    34    35   ar
    34    35    36   ar
    35    36    31   ar
    36    10     1   ar
    37    19    11    1
    38     9     3   ar
    39    28    29    1
