@<TRIPOS>MOLECULE
*****
 21 23 0 0 0
SMALL
GASTEIGER

@<TRIPOS>ATOM
      1 C          -7.9000  -19.0399   21.7671 C.ar    1  UNL1       -0.0138
      2 C          -8.5336  -19.4438   20.4689 C.ar    1  UNL1        0.0051
      3 S          -7.4405  -19.8578   19.5287 S.2     1  UNL1       -0.0915
      4 C          -6.1314  -19.7098   20.2459 C.ar    1  UNL1        0.0288
      5 C          -4.7175  -19.9699   19.8180 C.ar    1  UNL1        0.0065
      6 C          -3.5876  -19.7246   20.7736 C.ar    1  UNL1        0.0005
      7 C          -3.8716  -19.2191   22.1570 C.ar    1  UNL1        0.0000
      8 C          -5.2855  -18.9590   22.5849 C.ar    1  UNL1        0.0002
      9 C          -6.4154  -19.2043   21.6294 C.ar    1  UNL1        0.0026
     10 C          -9.6275  -19.4425   23.6655 C.3     1  UNL1        0.0116
     11 C          -8.6239  -18.5565   22.9887 C.3     1  UNL1        0.0689
     12 C          -8.3444  -17.1873   23.5335 C.ar    1  UNL1        0.0920
     13 N          -7.4802  -16.1425   22.8920 N.ar    1  UNL1       -0.2408
     14 C          -7.4817  -14.9319   23.7776 C.ar    1  UNL1        0.1061
     15 C          -8.3467  -15.2284   24.9665 C.ar    1  UNL1        0.0572
     16 S          -8.8800  -16.6224   24.8157 S.2     1  UNL1       -0.0699
     17 C         -10.0023  -19.4352   20.1642 C.3     1  UNL1        0.0499
     18 C         -10.6810  -18.1541   19.7795 C.3     1  UNL1        0.0774
     19 N         -11.3230  -17.3000   20.8323 N.3     1  UNL1       -0.2700
     20 C         -12.5226  -17.8043   21.5784 C.3     1  UNL1        0.0897
     21 C         -10.7656  -15.9416   21.1388 C.3     1  UNL1        0.0897
@<TRIPOS>BOND
     1    10    11    1
     2    11    12    1
     3    12    13   ar
     4    13    14   ar
     5    14    15   ar
     6    15    16   ar
     7    11     1    1
     8     1     2   ar
     9     2    17    1
    10    17    18    1
    11    18    19    1
    12    19    20    1
    13    19    21    1
    14     2     3   ar
    15     3     4   ar
    16     4     5   ar
    17     5     6   ar
    18     6     7   ar
    19     7     8   ar
    20     8     9   ar
    21    16    12   ar
    22     9     1   ar
    23     9     4   ar
@<TRIPOS>MOLECULE
*****
 21 23 0 0 0
SMALL
GASTEIGER

@<TRIPOS>ATOM
      1 C          -8.3131  -18.3672   22.3595 C.ar    1  UNL1       -0.0138
      2 C          -7.7904  -17.2606   23.2268 C.ar    1  UNL1        0.0051
      3 S          -6.2926  -17.2776   23.1473 S.2     1  UNL1       -0.0915
      4 C          -5.8897  -18.3947   22.2309 C.ar    1  UNL1        0.0288
      5 C          -4.5470  -18.8856   21.7769 C.ar    1  UNL1        0.0065
      6 C          -4.4531  -20.0500   20.8360 C.ar    1  UNL1        0.0005
      7 C          -5.7019  -20.7235   20.3492 C.ar    1  UNL1        0.0000
      8 C          -7.0445  -20.2325   20.8032 C.ar    1  UNL1        0.0002
      9 C          -7.1384  -19.0681   21.7440 C.ar    1  UNL1        0.0026
     10 C         -10.3015  -20.0126   22.6585 C.3     1  UNL1        0.0116
     11 C          -9.7571  -18.7124   22.1453 C.3     1  UNL1        0.0689
     12 C         -10.6566  -17.7576   21.4180 C.ar    1  UNL1        0.0920
     13 N         -10.3511  -17.0749   20.1179 N.ar    1  UNL1       -0.2408
     14 C         -11.5253  -16.2131   19.7595 C.ar    1  UNL1        0.1061
     15 C         -12.5567  -16.3631   20.8382 C.ar    1  UNL1        0.0572
     16 S         -12.0198  -17.3177   21.8633 S.2     1  UNL1       -0.0699
     17 C          -8.6198  -16.3048   24.0321 C.3     1  UNL1        0.0499
     18 C          -7.9546  -15.2236   24.8310 C.3     1  UNL1        0.0774
     19 N          -7.3416  -15.5439   26.1621 N.3     1  UNL1       -0.2700
     20 C          -8.1930  -16.0972   27.2662 C.3     1  UNL1        0.0897
     21 C          -5.8774  -15.3108   26.3891 C.3     1  UNL1        0.0897
@<TRIPOS>BOND
     1    10    11    1
     2    11    12    1
     3    12    13   ar
     4    13    14   ar
     5    14    15   ar
     6    15    16   ar
     7    11     1    1
     8     1     2   ar
     9     2    17    1
    10    17    18    1
    11    18    19    1
    12    19    20    1
    13    19    21    1
    14     2     3   ar
    15     3     4   ar
    16     4     5   ar
    17     5     6   ar
    18     6     7   ar
    19     7     8   ar
    20     8     9   ar
    21    16    12   ar
    22     9     1   ar
    23     9     4   ar
@<TRIPOS>MOLECULE
*****
 21 23 0 0 0
SMALL
GASTEIGER

@<TRIPOS>ATOM
      1 C          -8.5373  -17.1744   24.0883 C.ar    1  UNL1       -0.0138
      2 C          -7.4733  -17.1211   23.0324 C.ar    1  UNL1        0.0051
      3 S          -6.3265  -16.3175   23.5701 S.2     1  UNL1       -0.0915
      4 C          -6.6818  -15.8742   24.9584 C.ar    1  UNL1        0.0288
      5 C          -5.9377  -15.0567   25.9722 C.ar    1  UNL1        0.0065
      6 C          -6.5599  -14.7688   27.3063 C.ar    1  UNL1        0.0005
      7 C          -7.9263  -15.2984   27.6266 C.ar    1  UNL1        0.0000
      8 C          -8.6704  -16.1159   26.6127 C.ar    1  UNL1        0.0002
      9 C          -8.0482  -16.4038   25.2786 C.ar    1  UNL1        0.0026
     10 C         -10.2007  -18.9894   24.9184 C.3     1  UNL1        0.0116
     11 C          -9.8585  -17.8753   23.9740 C.3     1  UNL1        0.0689
     12 C         -10.8376  -17.4623   22.9154 C.ar    1  UNL1        0.0920
     13 N         -10.7450  -16.2338   22.0598 N.ar    1  UNL1       -0.2408
     14 C         -11.9314  -16.2175   21.1421 C.ar    1  UNL1        0.1061
     15 C         -12.7572  -17.4360   21.4304 C.ar    1  UNL1        0.0572
     16 S         -12.0812  -18.2054   22.5265 S.2     1  UNL1       -0.0699
     17 C          -7.5436  -17.7593   21.6767 C.3     1  UNL1        0.0499
     18 C          -6.8602  -19.0714   21.4291 C.3     1  UNL1        0.0774
     19 N          -5.3834  -19.1105   21.1692 N.3     1  UNL1       -0.2700
     20 C          -4.8649  -18.9830   19.7674 C.3     1  UNL1        0.0897
     21 C          -4.4251  -19.2771   22.3111 C.3     1  UNL1        0.0897
@<TRIPOS>BOND
     1    10    11    1
     2    11    12    1
     3    12    13   ar
     4    13    14   ar
     5    14    15   ar
     6    15    16   ar
     7    11     1    1
     8     1     2   ar
     9     2    17    1
    10    17    18    1
    11    18    19    1
    12    19    20    1
    13    19    21    1
    14     2     3   ar
    15     3     4   ar
    16     4     5   ar
    17     5     6   ar
    18     6     7   ar
    19     7     8   ar
    20     8     9   ar
    21    16    12   ar
    22     9     1   ar
    23     9     4   ar
@<TRIPOS>MOLECULE
*****
 21 23 0 0 0
SMALL
GASTEIGER

@<TRIPOS>ATOM
      1 C          -7.4256  -18.3150   21.8649 C.ar    1  UNL1       -0.0138
      2 C          -7.3922  -17.0479   22.6670 C.ar    1  UNL1        0.0051
      3 S          -8.6762  -16.3116   22.4239 S.2     1  UNL1       -0.0915
      4 C          -9.5032  -17.1236   21.4717 C.ar    1  UNL1        0.0288
      5 C         -10.8601  -16.8955   20.8745 C.ar    1  UNL1        0.0065
      6 C         -11.4441  -17.9056   19.9319 C.ar    1  UNL1        0.0005
      7 C         -10.6711  -19.1438   19.5863 C.ar    1  UNL1        0.0000
      8 C          -9.3142  -19.3719   20.1835 C.ar    1  UNL1        0.0002
      9 C          -8.7302  -18.3618   21.1261 C.ar    1  UNL1        0.0026
     10 C          -6.5802  -20.7132   22.3980 C.3     1  UNL1        0.0116
     11 C          -6.3442  -19.3531   21.8110 C.3     1  UNL1        0.0689
     12 C          -5.0268  -19.0313   21.1701 C.ar    1  UNL1        0.0920
     13 N          -4.8046  -18.7189   19.7200 N.ar    1  UNL1       -0.2408
     14 C          -3.3407  -18.4598   19.5205 C.ar    1  UNL1        0.1061
     15 C          -2.6580  -18.6121   20.8474 C.ar    1  UNL1        0.0572
     16 S          -3.7001  -18.9653   21.8670 S.2     1  UNL1       -0.0699
     17 C          -6.2716  -16.5964   23.5560 C.3     1  UNL1        0.0499
     18 C          -6.4359  -15.3721   24.4068 C.3     1  UNL1        0.0774
     19 N          -7.0560  -15.4824   25.7681 N.3     1  UNL1       -0.2700
     20 C          -6.1832  -15.5929   26.9831 C.3     1  UNL1        0.0897
     21 C          -8.5488  -15.4821   25.9146 C.3     1  UNL1        0.0897
@<TRIPOS>BOND
     1    10    11    1
     2    11    12    1
     3    12    13   ar
     4    13    14   ar
     5    14    15   ar
     6    15    16   ar
     7    11     1    1
     8     1     2   ar
     9     2    17    1
    10    17    18    1
    11    18    19    1
    12    19    20    1
    13    19    21    1
    14     2     3   ar
    15     3     4   ar
    16     4     5   ar
    17     5     6   ar
    18     6     7   ar
    19     7     8   ar
    20     8     9   ar
    21    16    12   ar
    22     9     1   ar
    23     9     4   ar
@<TRIPOS>MOLECULE
*****
 21 23 0 0 0
SMALL
GASTEIGER

@<TRIPOS>ATOM
      1 C          -6.6607  -17.4779   22.8757 C.ar    1  UNL1       -0.0138
      2 C          -7.4267  -18.6657   22.3733 C.ar    1  UNL1        0.0051
      3 S          -6.4370  -19.6960   21.9164 S.2     1  UNL1       -0.0915
      4 C          -5.0593  -19.1450   22.1363 C.ar    1  UNL1        0.0288
      5 C          -3.6968  -19.7145   21.8733 C.ar    1  UNL1        0.0065
      6 C          -2.4725  -18.9130   22.2032 C.ar    1  UNL1        0.0005
      7 C          -2.6108  -17.5421   22.7961 C.ar    1  UNL1        0.0000
      8 C          -3.9733  -16.9727   23.0591 C.ar    1  UNL1        0.0002
      9 C          -5.1976  -17.7741   22.7292 C.ar    1  UNL1        0.0026
     10 C          -7.7816  -15.1649   22.4960 C.3     1  UNL1        0.0116
     11 C          -7.2537  -16.2155   23.4276 C.3     1  UNL1        0.0689
     12 C          -7.3190  -16.0036   24.9111 C.ar    1  UNL1        0.0920
     13 N          -8.4997  -16.2880   25.7914 N.ar    1  UNL1       -0.2408
     14 C          -8.1253  -15.9301   27.1991 C.ar    1  UNL1        0.1061
     15 C          -6.7132  -15.4245   27.1889 C.ar    1  UNL1        0.0572
     16 S          -6.2148  -15.4699   25.7748 S.2     1  UNL1       -0.0699
     17 C          -8.9202  -18.7997   22.3347 C.3     1  UNL1        0.0499
     18 C          -9.7036  -18.1469   21.2346 C.3     1  UNL1        0.0774
     19 N         -10.6706  -17.0456   21.5540 N.3     1  UNL1       -0.2700
     20 C         -11.2144  -16.1826   20.4542 C.3     1  UNL1        0.0897
     21 C         -11.0938  -16.8073   22.9732 C.3     1  UNL1        0.0897
@<TRIPOS>BOND
     1    10    11    1
     2    11    12    1
     3    12    13   ar
     4    13    14   ar
     5    14    15   ar
     6    15    16   ar
     7    11     1    1
     8     1     2   ar
     9     2    17    1
    10    17    18    1
    11    18    19    1
    12    19    20    1
    13    19    21    1
    14     2     3   ar
    15     3     4   ar
    16     4     5   ar
    17     5     6   ar
    18     6     7   ar
    19     7     8   ar
    20     8     9   ar
    21    16    12   ar
    22     9     1   ar
    23     9     4   ar
@<TRIPOS>MOLECULE
*****
 21 23 0 0 0
SMALL
GASTEIGER

@<TRIPOS>ATOM
      1 C          -6.1970  -18.3454   22.2317 C.ar    1  UNL1       -0.0138
      2 C          -4.7411  -18.6954   22.3207 C.ar    1  UNL1        0.0051
      3 S          -4.0957  -17.7503   23.2903 S.2     1  UNL1       -0.0915
      4 C          -5.1527  -16.8162   23.8006 C.ar    1  UNL1        0.0288
      5 C          -5.1004  -15.6783   24.7764 C.ar    1  UNL1        0.0065
      6 C          -6.3467  -14.9082   25.0980 C.ar    1  UNL1        0.0005
      7 C          -7.6454  -15.2760   24.4437 C.ar    1  UNL1        0.0000
      8 C          -7.6977  -16.4139   23.4678 C.ar    1  UNL1        0.0002
      9 C          -6.4514  -17.1840   23.1463 C.ar    1  UNL1        0.0026
     10 C          -6.9142  -19.3397   19.9410 C.3     1  UNL1        0.0116
     11 C          -7.2191  -19.0357   21.3779 C.3     1  UNL1        0.0689
     12 C          -8.5460  -19.4219   21.9610 C.ar    1  UNL1        0.0920
     13 N          -8.7679  -20.0684   23.2961 N.ar    1  UNL1       -0.2408
     14 C         -10.2431  -20.2754   23.4715 C.ar    1  UNL1        0.1061
     15 C         -10.9330  -19.7569   22.2448 C.ar    1  UNL1        0.0572
     16 S          -9.8842  -19.2294   21.3111 S.2     1  UNL1       -0.0699
     17 C          -4.0517  -19.7970   21.5716 C.3     1  UNL1        0.0499
     18 C          -2.6039  -19.6617   21.2033 C.3     1  UNL1        0.0774
     19 N          -2.1766  -18.6216   20.2106 N.3     1  UNL1       -0.2700
     20 C          -3.1063  -18.2110   19.1073 C.3     1  UNL1        0.0897
     21 C          -0.8196  -17.9921   20.3211 C.3     1  UNL1        0.0897
@<TRIPOS>BOND
     1    10    11    1
     2    11    12    1
     3    12    13   ar
     4    13    14   ar
     5    14    15   ar
     6    15    16   ar
     7    11     1    1
     8     1     2   ar
     9     2    17    1
    10    17    18    1
    11    18    19    1
    12    19    20    1
    13    19    21    1
    14     2     3   ar
    15     3     4   ar
    16     4     5   ar
    17     5     6   ar
    18     6     7   ar
    19     7     8   ar
    20     8     9   ar
    21    16    12   ar
    22     9     1   ar
    23     9     4   ar
@<TRIPOS>MOLECULE
*****
 21 23 0 0 0
SMALL
GASTEIGER

@<TRIPOS>ATOM
      1 C          -7.8451  -17.2369   22.6759 C.ar    1  UNL1       -0.0138
      2 C          -6.8282  -18.2905   22.3508 C.ar    1  UNL1        0.0051
      3 S          -7.5254  -19.3961   21.6149 S.2     1  UNL1       -0.0915
      4 C          -8.9732  -19.0257   21.4851 C.ar    1  UNL1        0.0288
      5 C         -10.1370  -19.7311   20.8546 C.ar    1  UNL1        0.0065
      6 C         -11.4985  -19.1021   20.8798 C.ar    1  UNL1        0.0005
      7 C         -11.6961  -17.7676   21.5356 C.ar    1  UNL1        0.0000
      8 C         -10.5322  -17.0621   22.1662 C.ar    1  UNL1        0.0002
      9 C          -9.1707  -17.6912   22.1409 C.ar    1  UNL1        0.0026
     10 C          -7.3715  -14.6825   22.6402 C.3     1  UNL1        0.0116
     11 C          -7.5824  -15.9540   23.4076 C.3     1  UNL1        0.0689
     12 C          -7.5308  -15.9426   24.9066 C.ar    1  UNL1        0.0920
     13 N          -8.6245  -16.3907   25.8301 N.ar    1  UNL1       -0.2408
     14 C          -8.1460  -16.2061   27.2396 C.ar    1  UNL1        0.1061
     15 C          -6.7564  -15.6438   27.1874 C.ar    1  UNL1        0.0572
     16 S          -6.3761  -15.4809   25.7455 S.2     1  UNL1       -0.0699
     17 C          -5.3701  -18.2464   22.7003 C.3     1  UNL1        0.0499
     18 C          -4.4455  -19.3145   22.1964 C.3     1  UNL1        0.0774
     19 N          -3.5358  -19.0334   21.0372 N.3     1  UNL1       -0.2700
     20 C          -3.8244  -19.6358   19.6941 C.3     1  UNL1        0.0897
     21 C          -2.3376  -18.1500   21.2212 C.3     1  UNL1        0.0897
@<TRIPOS>BOND
     1    10    11    1
     2    11    12    1
     3    12    13   ar
     4    13    14   ar
     5    14    15   ar
     6    15    16   ar
     7    11     1    1
     8     1     2   ar
     9     2    17    1
    10    17    18    1
    11    18    19    1
    12    19    20    1
    13    19    21    1
    14     2     3   ar
    15     3     4   ar
    16     4     5   ar
    17     5     6   ar
    18     6     7   ar
    19     7     8   ar
    20     8     9   ar
    21    16    12   ar
    22     9     1   ar
    23     9     4   ar
@<TRIPOS>MOLECULE
*****
 21 23 0 0 0
SMALL
GASTEIGER

@<TRIPOS>ATOM
      1 C         -13.2284   -4.8583   19.4158 C.ar    1  UNL1       -0.0138
      2 C         -14.2851   -5.8878   19.1452 C.ar    1  UNL1        0.0051
      3 S         -13.6060   -7.1293   18.6475 S.2     1  UNL1       -0.0915
      4 C         -12.1296   -6.8670   18.6106 C.ar    1  UNL1        0.0288
      5 C         -10.9676   -7.7248   18.2060 C.ar    1  UNL1        0.0065
      6 C          -9.5722   -7.1791   18.2761 C.ar    1  UNL1        0.0005
      7 C          -9.3388   -5.7755   18.7510 C.ar    1  UNL1        0.0000
      8 C         -10.5008   -4.9176   19.1556 C.ar    1  UNL1        0.0002
      9 C         -11.8962   -5.4634   19.0854 C.ar    1  UNL1        0.0026
     10 C         -13.9601   -3.2569   21.3265 C.3     1  UNL1        0.0116
     11 C         -13.4626   -3.4677   19.9271 C.3     1  UNL1        0.0689
     12 C         -13.1996   -2.2878   19.0391 C.ar    1  UNL1        0.0920
     13 N         -11.9229   -1.5035   18.9700 N.ar    1  UNL1       -0.2408
     14 C         -12.1013   -0.4160   17.9524 C.ar    1  UNL1        0.1061
     15 C         -13.4883   -0.5282   17.3925 C.ar    1  UNL1        0.0572
     16 S         -14.1671   -1.6850   18.0641 S.2     1  UNL1       -0.0699
     17 C         -15.7617   -5.7076   19.3383 C.3     1  UNL1        0.0499
     18 C         -16.7213   -6.7012   18.7537 C.3     1  UNL1        0.0774
     19 N         -17.3987   -7.7020   19.6423 N.3     1  UNL1       -0.2700
     20 C         -18.8233   -7.4898   20.0613 C.3     1  UNL1        0.0897
     21 C         -16.6515   -8.9149   20.1119 C.3     1  UNL1        0.0897
@<TRIPOS>BOND
     1    10    11    1
     2    11    12    1
     3    12    13   ar
     4    13    14   ar
     5    14    15   ar
     6    15    16   ar
     7    11     1    1
     8     1     2   ar
     9     2    17    1
    10    17    18    1
    11    18    19    1
    12    19    20    1
    13    19    21    1
    14     2     3   ar
    15     3     4   ar
    16     4     5   ar
    17     5     6   ar
    18     6     7   ar
    19     7     8   ar
    20     8     9   ar
    21    16    12   ar
    22     9     1   ar
    23     9     4   ar
@<TRIPOS>MOLECULE
*****
 21 23 0 0 0
SMALL
GASTEIGER

@<TRIPOS>ATOM
      1 C          -7.7646  -17.5238   23.0053 C.ar    1  UNL1       -0.0138
      2 C          -9.0108  -18.3555   23.0764 C.ar    1  UNL1        0.0051
      3 S          -8.7049  -19.7002   22.4863 S.2     1  UNL1       -0.0915
      4 C          -7.2696  -19.6996   22.0506 C.ar    1  UNL1        0.0288
      5 C          -6.4167  -20.7501   21.4033 C.ar    1  UNL1        0.0065
      6 C          -4.9827  -20.4555   21.0767 C.ar    1  UNL1        0.0005
      7 C          -4.4015  -19.1104   21.3974 C.ar    1  UNL1        0.0000
      8 C          -5.2544  -18.0599   22.0448 C.ar    1  UNL1        0.0002
      9 C          -6.6884  -18.3545   22.3714 C.ar    1  UNL1        0.0026
     10 C          -7.6832  -14.9758   22.5041 C.3     1  UNL1        0.0116
     11 C          -7.6198  -16.1097   23.4842 C.3     1  UNL1        0.0689
     12 C          -7.4117  -15.8294   24.9429 C.ar    1  UNL1        0.0920
     13 N          -6.0926  -15.5878   25.6149 N.ar    1  UNL1       -0.2408
     14 C          -6.3519  -15.3505   27.0731 C.ar    1  UNL1        0.1061
     15 C          -7.8311  -15.4453   27.3024 C.ar    1  UNL1        0.0572
     16 S          -8.4862  -15.7413   25.9858 S.2     1  UNL1       -0.0699
     17 C         -10.3312  -17.9191   23.6387 C.3     1  UNL1        0.0499
     18 C         -11.0445  -16.7390   23.0485 C.3     1  UNL1        0.0774
     19 N         -11.6056  -16.8193   21.6597 N.3     1  UNL1       -0.2700
     20 C         -12.7216  -17.7744   21.3558 C.3     1  UNL1        0.0897
     21 C         -11.0506  -15.9447   20.5749 C.3     1  UNL1        0.0897
@<TRIPOS>BOND
     1    10    11    1
     2    11    12    1
     3    12    13   ar
     4    13    14   ar
     5    14    15   ar
     6    15    16   ar
     7    11     1    1
     8     1     2   ar
     9     2    17    1
    10    17    18    1
    11    18    19    1
    12    19    20    1
    13    19    21    1
    14     2     3   ar
    15     3     4   ar
    16     4     5   ar
    17     5     6   ar
    18     6     7   ar
    19     7     8   ar
    20     8     9   ar
    21    16    12   ar
    22     9     1   ar
    23     9     4   ar
