@<TRIPOS>MOLECULE
*****
 37 39 0 0 0
SMALL
GASTEIGER

@<TRIPOS>ATOM
      1 C           6.5572   -2.9628   25.8054 C.2     1  UNL1        0.2485
      2 O           7.0085   -1.6135   25.3305 O.2     1  UNL1       -0.2726
      3 N           5.7788   -3.8590   24.8883 N.am    1  UNL1       -0.2823
      4 H           5.4826   -4.7446   25.1999 H       1  UNL1        0.1549
      5 C           9.4274   -6.5219   27.1210 C.3     1  UNL1        0.0949
      6 C           8.5456   -5.4241   26.6040 C.2     1  UNL1        0.2269
      7 O           8.4113   -5.2031   25.1264 O.2     1  UNL1       -0.2748
      8 N           7.7982   -4.5473   27.5645 N.am    1  UNL1       -0.2655
      9 C           7.8334   -4.6479   29.0607 C.3     1  UNL1        0.1206
     10 C           6.9412   -3.5788   29.6183 C.ar    1  UNL1       -0.0030
     11 C           6.5873   -3.2002   31.0259 C.ar    1  UNL1        0.0155
     12 C           5.6466   -2.0603   31.2819 C.ar    1  UNL1        0.1054
     13 C           5.0600   -1.2989   30.1304 C.ar    1  UNL1        0.0181
     14 C           5.4139   -1.6774   28.7228 C.ar    1  UNL1       -0.0011
     15 C           6.3546   -2.8174   28.4668 C.ar    1  UNL1        0.0022
     16 C           6.8842   -3.4160   27.1974 C.3     1  UNL1        0.1750
     17 S           5.2926   -1.6816   32.6896 S.O2    1  UNL1        0.0104
     18 C           4.9386   -1.3030   34.0972 C.3     1  UNL1        0.1816
     19 O           3.8633   -2.0559   32.4309 O.2     1  UNL1       -0.1686
     20 O           6.7219   -1.3073   32.9483 O.2     1  UNL1       -0.1686
     21 C           5.4518   -3.4058   23.4962 C.ar    1  UNL1        0.0503
     22 C           6.2678   -3.8957   22.3369 C.ar    1  UNL1        0.0144
     23 C           5.9408   -3.4424   20.9449 C.ar    1  UNL1       -0.0002
     24 C           4.7979   -2.4993   20.7123 C.ar    1  UNL1        0.0182
     25 C           3.9819   -2.0094   21.8717 C.ar    1  UNL1       -0.0002
     26 C           4.3089   -2.4626   23.2637 C.ar    1  UNL1        0.0144
     27 C           4.4708   -2.0460   19.3203 C.3     1  UNL1        0.2827
     28 O           5.2341   -0.7762   19.5544 O.3     1  UNL1       -0.3692
     29 H           5.1992   -0.2261   18.7562 H       1  UNL1        0.2112
     30 C           4.1437   -1.5928   17.9283 C.3     1  UNL1        0.4311
     31 F           3.8166   -1.1397   16.5363 F       1  UNL1       -0.1669
     32 F           3.0784   -0.6882   18.4732 F       1  UNL1       -0.1669
     33 F           4.7445   -2.0904   17.5088 F       1  UNL1       -0.1669
     34 C           3.7075   -3.3159   19.0863 C.3     1  UNL1        0.4311
     35 F           2.9441   -4.5858   18.8522 F       1  UNL1       -0.1669
     36 F           2.9409   -3.0478   19.4399 F       1  UNL1       -0.1669
     37 F           4.7009   -4.2184   18.4163 F       1  UNL1       -0.1669
@<TRIPOS>BOND
     1     5     6    1
     2     6     7    2
     3     6     8   am
     4     8     9    1
     5     9    10    1
     6    10    11   ar
     7    11    12   ar
     8    12    17    1
     9    17    18    1
    10    17    19    2
    11    17    20    2
    12    12    13   ar
    13    13    14   ar
    14    14    15   ar
    15    15    16    1
    16    16     1    1
    17     1     2    2
    18     1     3   am
    19     3    21    1
    20    21    22   ar
    21    22    23   ar
    22    23    24   ar
    23    24    27    1
    24    27    28    1
    25    27    30    1
    26    30    31    1
    27    30    32    1
    28    30    33    1
    29    27    34    1
    30    34    35    1
    31    34    36    1
    32    34    37    1
    33    24    25   ar
    34    25    26   ar
    35    16     8    1
    36    26    21   ar
    37    15    10   ar
    38     3     4    1
    39    28    29    1
@<TRIPOS>MOLECULE
*****
 37 39 0 0 0
SMALL
GASTEIGER

@<TRIPOS>ATOM
      1 C           2.1016    0.9449   24.9490 C.2     1  UNL1        0.2485
      2 O           3.3942    1.5069   25.4617 O.2     1  UNL1       -0.2726
      3 N           0.9613    0.7043   25.8935 N.am    1  UNL1       -0.2823
      4 H           0.1128    0.3355   25.5570 H       1  UNL1        0.1549
      5 C          -0.6993    3.0949   21.7602 C.3     1  UNL1        0.0949
      6 C           0.1461    2.4859   22.8392 C.2     1  UNL1        0.2269
      7 O           0.0873    3.0309   24.2354 O.2     1  UNL1       -0.2748
      8 N           1.0502    1.3317   22.5221 N.am    1  UNL1       -0.2655
      9 C           1.2142    0.6832   21.1795 C.3     1  UNL1        0.1206
     10 C           2.2144   -0.4258   21.3194 C.ar    1  UNL1       -0.0030
     11 C           2.7702   -1.4068   20.3302 C.ar    1  UNL1        0.0155
     12 C           3.7803   -2.4248   20.7701 C.ar    1  UNL1        0.1054
     13 C           4.2344   -2.4618   22.1992 C.ar    1  UNL1        0.0181
     14 C           3.6786   -1.4808   23.1885 C.ar    1  UNL1       -0.0011
     15 C           2.6685   -0.4628   22.7486 C.ar    1  UNL1        0.0022
     16 C           1.9490    0.6234   23.4918 C.3     1  UNL1        0.1750
     17 S           4.3362   -3.4059   19.7809 S.O2    1  UNL1        0.0104
     18 C           4.8921   -4.3869   18.7918 C.3     1  UNL1        0.1816
     19 O           3.7849   -2.5828   18.6547 O.2     1  UNL1       -0.1686
     20 O           4.8875   -4.2290   20.9071 O.2     1  UNL1       -0.1686
     21 C           1.1138    1.0258   27.3507 C.ar    1  UNL1        0.0503
     22 C           0.6813    2.3638   27.8728 C.ar    1  UNL1        0.0144
     23 C           0.8339    2.6853   29.3300 C.ar    1  UNL1       -0.0002
     24 C           1.4190    1.6687   30.2650 C.ar    1  UNL1        0.0182
     25 C           1.8515    0.3307   29.7428 C.ar    1  UNL1       -0.0002
     26 C           1.6990    0.0093   28.2856 C.ar    1  UNL1        0.0144
     27 C           1.5716    1.9901   31.7222 C.3     1  UNL1        0.2827
     28 O           0.0974    1.7953   31.9196 O.3     1  UNL1       -0.3692
     29 H          -0.1272    1.9493   32.8506 H       1  UNL1        0.2112
     30 C           1.7243    2.3115   33.1794 C.3     1  UNL1        0.4311
     31 F           1.8770    2.6329   34.6366 F       1  UNL1       -0.1669
     32 F           1.0529    3.6345   32.9580 F       1  UNL1       -0.1669
     33 F           2.1288    1.5594   33.4141 F       1  UNL1       -0.1669
     34 C           3.0457    2.1849   31.5248 C.3     1  UNL1        0.4311
     35 F           4.5199    2.3798   31.3273 F       1  UNL1       -0.1669
     36 F           3.0110    3.0373   31.2864 F       1  UNL1       -0.1669
     37 F           3.6356    0.8442   31.8481 F       1  UNL1       -0.1669
@<TRIPOS>BOND
     1     5     6    1
     2     6     7    2
     3     6     8   am
     4     8     9    1
     5     9    10    1
     6    10    11   ar
     7    11    12   ar
     8    12    17    1
     9    17    18    1
    10    17    19    2
    11    17    20    2
    12    12    13   ar
    13    13    14   ar
    14    14    15   ar
    15    15    16    1
    16    16     1    1
    17     1     2    2
    18     1     3   am
    19     3    21    1
    20    21    22   ar
    21    22    23   ar
    22    23    24   ar
    23    24    27    1
    24    27    28    1
    25    27    30    1
    26    30    31    1
    27    30    32    1
    28    30    33    1
    29    27    34    1
    30    34    35    1
    31    34    36    1
    32    34    37    1
    33    24    25   ar
    34    25    26   ar
    35    16     8    1
    36    26    21   ar
    37    15    10   ar
    38     3     4    1
    39    28    29    1
@<TRIPOS>MOLECULE
*****
 37 39 0 0 0
SMALL
GASTEIGER

@<TRIPOS>ATOM
      1 C           5.0502   -1.0382   26.1704 C.2     1  UNL1        0.2485
      2 O           5.7107    0.1379   25.5143 O.2     1  UNL1       -0.2726
      3 N           4.3193   -2.0490   25.3372 N.am    1  UNL1       -0.2823
      4 H           3.8857   -2.8209   25.7679 H       1  UNL1        0.1549
      5 C           7.6426   -4.1684   28.6436 C.3     1  UNL1        0.0949
      6 C           6.8666   -3.2241   27.7741 C.2     1  UNL1        0.2269
      7 O           7.0018   -3.2957   26.2820 O.2     1  UNL1       -0.2748
      8 N           5.9554   -2.2082   28.3968 N.am    1  UNL1       -0.2655
      9 C           5.7191   -2.0187   29.8658 C.3     1  UNL1        0.1206
     10 C           4.7382   -0.8968   30.0367 C.ar    1  UNL1       -0.0030
     11 C           4.1341   -0.2690   31.2576 C.ar    1  UNL1        0.0155
     12 C           3.1600    0.8627   31.1151 C.ar    1  UNL1        0.1054
     13 C           2.7900    1.3666   29.7515 C.ar    1  UNL1        0.0181
     14 C           3.3941    0.7387   28.5305 C.ar    1  UNL1       -0.0011
     15 C           4.3682   -0.3930   28.6731 C.ar    1  UNL1        0.0022
     16 C           5.1205   -1.2034   27.6596 C.3     1  UNL1        0.1750
     17 S           2.5558    1.4906   32.3361 S.O2    1  UNL1        0.0104
     18 C           1.9517    2.1185   33.5570 C.3     1  UNL1        0.1816
     19 O           1.7920    2.4454   31.4672 O.2     1  UNL1       -0.1686
     20 O           3.3196    0.5359   33.2049 O.2     1  UNL1       -0.1686
     21 C           4.2490   -1.8837   23.8480 C.ar    1  UNL1        0.0503
     22 C           3.2397   -0.9532   23.2435 C.ar    1  UNL1        0.0144
     23 C           3.1694   -0.7879   21.7543 C.ar    1  UNL1       -0.0002
     24 C           4.1084   -1.5532   20.8697 C.ar    1  UNL1        0.0182
     25 C           5.1177   -2.4837   21.4742 C.ar    1  UNL1       -0.0002
     26 C           5.1880   -2.6490   22.9634 C.ar    1  UNL1        0.0144
     27 C           4.0382   -1.3879   19.3804 C.3     1  UNL1        0.2827
     28 O           4.5901    0.0010   19.5084 O.3     1  UNL1       -0.3692
     29 H           4.6663    0.4010   18.6280 H       1  UNL1        0.2112
     30 C           3.9679   -1.2228   17.8912 C.3     1  UNL1        0.4311
     31 F           3.8977   -1.0577   16.4020 F       1  UNL1       -0.1669
     32 F           5.4654   -1.2678   17.8156 F       1  UNL1       -0.1669
     33 F           3.0853   -1.1845   17.8283 F       1  UNL1       -0.1669
     34 C           3.4863   -2.7768   19.2525 C.3     1  UNL1        0.4311
     35 F           2.9343   -4.1657   19.1245 F       1  UNL1       -0.1669
     36 F           2.6980   -2.6142   19.6223 F       1  UNL1       -0.1669
     37 F           4.5919   -3.5476   18.5940 F       1  UNL1       -0.1669
@<TRIPOS>BOND
     1     5     6    1
     2     6     7    2
     3     6     8   am
     4     8     9    1
     5     9    10    1
     6    10    11   ar
     7    11    12   ar
     8    12    17    1
     9    17    18    1
    10    17    19    2
    11    17    20    2
    12    12    13   ar
    13    13    14   ar
    14    14    15   ar
    15    15    16    1
    16    16     1    1
    17     1     2    2
    18     1     3   am
    19     3    21    1
    20    21    22   ar
    21    22    23   ar
    22    23    24   ar
    23    24    27    1
    24    27    28    1
    25    27    30    1
    26    30    31    1
    27    30    32    1
    28    30    33    1
    29    27    34    1
    30    34    35    1
    31    34    36    1
    32    34    37    1
    33    24    25   ar
    34    25    26   ar
    35    16     8    1
    36    26    21   ar
    37    15    10   ar
    38     3     4    1
    39    28    29    1
@<TRIPOS>MOLECULE
*****
 37 39 0 0 0
SMALL
GASTEIGER

@<TRIPOS>ATOM
      1 C           1.3556    1.5132   24.5216 C.2     1  UNL1        0.2485
      2 O           2.0726    2.5330   23.6876 O.2     1  UNL1       -0.2726
      3 N           1.5532    0.0508   24.2521 N.am    1  UNL1       -0.2823
      4 H           1.0825   -0.6186   24.7995 H       1  UNL1        0.1549
      5 C           1.9691    0.9926   29.2108 C.3     1  UNL1        0.0949
      6 C           1.8701    1.1070   27.7184 C.2     1  UNL1        0.2269
      7 O           2.9637    0.5595   26.8501 O.2     1  UNL1       -0.2748
      8 N           0.6773    1.7688   27.0945 N.am    1  UNL1       -0.2655
      9 C          -0.4883    2.3602   27.8303 C.3     1  UNL1        0.1206
     10 C          -1.4452    2.9124   26.8157 C.ar    1  UNL1       -0.0030
     11 C          -2.7653    3.6106   26.9568 C.ar    1  UNL1        0.0155
     12 C          -3.5110    4.0587   25.7350 C.ar    1  UNL1        0.1054
     13 C          -2.9368    3.8086   24.3720 C.ar    1  UNL1        0.0181
     14 C          -1.6167    3.1104   24.2309 C.ar    1  UNL1       -0.0011
     15 C          -0.8710    2.6623   25.4527 C.ar    1  UNL1        0.0022
     16 C           0.4408    1.9555   25.6250 C.3     1  UNL1        0.1750
     17 S          -4.8311    4.7570   25.8760 S.O2    1  UNL1        0.0104
     18 C          -6.1512    5.4552   26.0171 C.3     1  UNL1        0.1816
     19 O          -4.6989    4.7054   27.3693 O.2     1  UNL1       -0.1686
     20 O          -4.9634    4.8086   24.3828 O.2     1  UNL1       -0.1686
     21 C           2.4679   -0.3916   23.1487 C.ar    1  UNL1        0.0503
     22 C           2.0760   -0.1744   21.7172 C.ar    1  UNL1        0.0144
     23 C           2.9907   -0.6168   20.6137 C.ar    1  UNL1       -0.0002
     24 C           4.2973   -1.2763   20.9418 C.ar    1  UNL1        0.0182
     25 C           4.6892   -1.4936   22.3733 C.ar    1  UNL1       -0.0002
     26 C           3.7745   -1.0512   23.4768 C.ar    1  UNL1        0.0144
     27 C           5.2121   -1.7188   19.8384 C.3     1  UNL1        0.2827
     28 O           6.2292   -0.7066   20.2757 O.3     1  UNL1       -0.3692
     29 H           7.0061   -0.7583   19.6972 H       1  UNL1        0.2112
     30 C           6.1268   -2.1612   18.7350 C.3     1  UNL1        0.4311
     31 F           7.0415   -2.6037   17.6316 F       1  UNL1       -0.1669
     32 F           5.9720   -0.8252   18.0709 F       1  UNL1       -0.1669
     33 F           6.2834   -2.9761   19.0447 F       1  UNL1       -0.1669
     34 C           4.1950   -2.7309   19.4011 C.3     1  UNL1        0.4311
     35 F           3.1779   -3.7430   18.9639 F       1  UNL1       -0.1669
     36 F           4.2578   -3.2598   20.1089 F       1  UNL1       -0.1669
     37 F           3.7236   -2.2208   18.0716 F       1  UNL1       -0.1669
@<TRIPOS>BOND
     1     5     6    1
     2     6     7    2
     3     6     8   am
     4     8     9    1
     5     9    10    1
     6    10    11   ar
     7    11    12   ar
     8    12    17    1
     9    17    18    1
    10    17    19    2
    11    17    20    2
    12    12    13   ar
    13    13    14   ar
    14    14    15   ar
    15    15    16    1
    16    16     1    1
    17     1     2    2
    18     1     3   am
    19     3    21    1
    20    21    22   ar
    21    22    23   ar
    22    23    24   ar
    23    24    27    1
    24    27    28    1
    25    27    30    1
    26    30    31    1
    27    30    32    1
    28    30    33    1
    29    27    34    1
    30    34    35    1
    31    34    36    1
    32    34    37    1
    33    24    25   ar
    34    25    26   ar
    35    16     8    1
    36    26    21   ar
    37    15    10   ar
    38     3     4    1
    39    28    29    1
@<TRIPOS>MOLECULE
*****
 37 39 0 0 0
SMALL
GASTEIGER

@<TRIPOS>ATOM
      1 C           3.9633   -0.3832   26.2266 C.2     1  UNL1        0.2485
      2 O           5.3369    0.1268   26.5477 O.2     1  UNL1       -0.2726
      3 N           3.0667   -0.8672   27.3275 N.am    1  UNL1       -0.2823
      4 H           2.1652   -1.2020   27.1168 H       1  UNL1        0.1549
      5 C           0.9338    2.6100   24.1057 C.3     1  UNL1        0.0949
      6 C           1.8765    1.7238   24.8645 C.2     1  UNL1        0.2269
      7 O           2.1686    2.0022   26.3092 O.2     1  UNL1       -0.2748
      8 N           2.5271    0.5592   24.1786 N.am    1  UNL1       -0.2655
      9 C           2.3328    0.1586   22.7463 C.3     1  UNL1        0.1206
     10 C           3.1718   -1.0575   22.4871 C.ar    1  UNL1       -0.0030
     11 C           3.3788   -1.8905   21.2570 C.ar    1  UNL1        0.0155
     12 C           4.2987   -3.0746   21.2991 C.ar    1  UNL1        0.1054
     13 C           5.0116   -3.4255   22.5714 C.ar    1  UNL1        0.0181
     14 C           4.8047   -2.5925   23.8014 C.ar    1  UNL1       -0.0011
     15 C           3.8848   -1.4084   23.7593 C.ar    1  UNL1        0.0022
     16 C           3.4863   -0.4093   24.8047 C.3     1  UNL1        0.1750
     17 S           4.5057   -3.9077   20.0690 S.O2    1  UNL1        0.0104
     18 C           4.7126   -4.7408   18.8390 C.3     1  UNL1        0.1816
     19 O           5.7827   -4.4426   20.6461 O.2     1  UNL1       -0.1686
     20 O           3.2287   -3.3728   19.4919 O.2     1  UNL1       -0.1686
     21 C           3.5437   -0.8411   28.7494 C.ar    1  UNL1        0.0503
     22 C           2.6037   -0.4437   29.8487 C.ar    1  UNL1        0.0144
     23 C           3.0807   -0.4176   31.2706 C.ar    1  UNL1       -0.0002
     24 C           4.4978   -0.7890   31.5931 C.ar    1  UNL1        0.0182
     25 C           5.4378   -1.1864   30.4938 C.ar    1  UNL1       -0.0002
     26 C           4.9608   -1.2125   29.0719 C.ar    1  UNL1        0.0144
     27 C           4.9749   -0.7629   33.0150 C.3     1  UNL1        0.2827
     28 O           4.6249    0.6928   33.1059 O.3     1  UNL1       -0.3692
     29 H           4.8403    1.0224   33.9924 H       1  UNL1        0.2112
     30 C           5.4520   -0.7370   34.4369 C.3     1  UNL1        0.4311
     31 F           5.9291   -0.7110   35.8587 F       1  UNL1       -0.1669
     32 F           4.2059   -1.4520   34.8681 F       1  UNL1       -0.1669
     33 F           6.2167   -0.3161   34.2866 F       1  UNL1       -0.1669
     34 C           5.3249   -2.2187   32.9241 C.3     1  UNL1        0.4311
     35 F           5.6750   -3.6745   32.8333 F       1  UNL1       -0.1669
     36 F           6.2027   -2.1233   32.9946 F       1  UNL1       -0.1669
     37 F           3.9982   -2.9024   32.7747 F       1  UNL1       -0.1669
@<TRIPOS>BOND
     1     5     6    1
     2     6     7    2
     3     6     8   am
     4     8     9    1
     5     9    10    1
     6    10    11   ar
     7    11    12   ar
     8    12    17    1
     9    17    18    1
    10    17    19    2
    11    17    20    2
    12    12    13   ar
    13    13    14   ar
    14    14    15   ar
    15    15    16    1
    16    16     1    1
    17     1     2    2
    18     1     3   am
    19     3    21    1
    20    21    22   ar
    21    22    23   ar
    22    23    24   ar
    23    24    27    1
    24    27    28    1
    25    27    30    1
    26    30    31    1
    27    30    32    1
    28    30    33    1
    29    27    34    1
    30    34    35    1
    31    34    36    1
    32    34    37    1
    33    24    25   ar
    34    25    26   ar
    35    16     8    1
    36    26    21   ar
    37    15    10   ar
    38     3     4    1
    39    28    29    1
@<TRIPOS>MOLECULE
*****
 37 39 0 0 0
SMALL
GASTEIGER

@<TRIPOS>ATOM
      1 C           3.4969    0.0634   26.5005 C.2     1  UNL1        0.2485
      2 O           4.5733    0.9731   25.9871 O.2     1  UNL1       -0.2726
      3 N           3.0369   -1.0977   25.6697 N.am    1  UNL1       -0.2823
      4 H           2.3304   -1.6948   26.0067 H       1  UNL1        0.1549
      5 C          -0.7677    1.9450   27.4537 C.3     1  UNL1        0.0949
      6 C           0.5543    1.3636   27.0486 C.2     1  UNL1        0.2269
      7 O           0.9027    1.2334   25.5955 O.2     1  UNL1       -0.2748
      8 N           1.5280    0.9124   28.0966 N.am    1  UNL1       -0.2655
      9 C           1.3200    0.9795   29.5806 C.3     1  UNL1        0.1206
     10 C           2.5440    0.4234   30.2459 C.ar    1  UNL1       -0.0030
     11 C           2.9050    0.2381   31.6899 C.ar    1  UNL1        0.0155
     12 C           4.2304   -0.3581   32.0611 C.ar    1  UNL1        0.1054
     13 C           5.1948   -0.7690   30.9883 C.ar    1  UNL1        0.0181
     14 C           4.8339   -0.5837   29.5442 C.ar    1  UNL1       -0.0011
     15 C           3.5085    0.0126   29.1730 C.ar    1  UNL1        0.0022
     16 C           2.8805    0.3148   27.8447 C.3     1  UNL1        0.1750
     17 S           4.5914   -0.5435   33.5052 S.O2    1  UNL1        0.0104
     18 C           4.9524   -0.7288   34.9493 C.3     1  UNL1        0.1816
     19 O           3.7930   -1.8128   33.5419 O.2     1  UNL1       -0.1686
     20 O           5.3897    0.7258   33.4685 O.2     1  UNL1       -0.1686
     21 C           3.6533   -1.3491   24.3255 C.ar    1  UNL1        0.0503
     22 C           4.8657   -2.2244   24.2082 C.ar    1  UNL1        0.0144
     23 C           5.4821   -2.4757   22.8640 C.ar    1  UNL1       -0.0002
     24 C           4.8860   -1.8517   21.6371 C.ar    1  UNL1        0.0182
     25 C           3.6736   -0.9763   21.7544 C.ar    1  UNL1       -0.0002
     26 C           3.0572   -0.7250   23.0987 C.ar    1  UNL1        0.0144
     27 C           5.5023   -2.1029   20.2929 C.3     1  UNL1        0.2827
     28 O           6.7542   -1.4056   20.7364 O.3     1  UNL1       -0.3692
     29 H           7.3997   -1.4085   20.0124 H       1  UNL1        0.2112
     30 C           6.1186   -2.3542   18.9486 C.3     1  UNL1        0.4311
     31 F           6.7349   -2.6055   17.6043 F       1  UNL1       -0.1669
     32 F           6.0520   -0.8870   18.6438 F       1  UNL1       -0.1669
     33 F           6.2020   -3.2322   19.0304 F       1  UNL1       -0.1669
     34 C           4.2505   -2.8002   19.8493 C.3     1  UNL1        0.4311
     35 F           2.9986   -3.4975   19.4058 F       1  UNL1       -0.1669
     36 F           3.9785   -2.1806   19.2778 F       1  UNL1       -0.1669
     37 F           4.2487   -4.0778   20.6353 F       1  UNL1       -0.1669
@<TRIPOS>BOND
     1     5     6    1
     2     6     7    2
     3     6     8   am
     4     8     9    1
     5     9    10    1
     6    10    11   ar
     7    11    12   ar
     8    12    17    1
     9    17    18    1
    10    17    19    2
    11    17    20    2
    12    12    13   ar
    13    13    14   ar
    14    14    15   ar
    15    15    16    1
    16    16     1    1
    17     1     2    2
    18     1     3   am
    19     3    21    1
    20    21    22   ar
    21    22    23   ar
    22    23    24   ar
    23    24    27    1
    24    27    28    1
    25    27    30    1
    26    30    31    1
    27    30    32    1
    28    30    33    1
    29    27    34    1
    30    34    35    1
    31    34    36    1
    32    34    37    1
    33    24    25   ar
    34    25    26   ar
    35    16     8    1
    36    26    21   ar
    37    15    10   ar
    38     3     4    1
    39    28    29    1
@<TRIPOS>MOLECULE
*****
 37 39 0 0 0
SMALL
GASTEIGER

@<TRIPOS>ATOM
      1 C           2.8181    0.6146   25.7177 C.2     1  UNL1        0.2485
      2 O           3.9437    1.5357   25.3511 O.2     1  UNL1       -0.2726
      3 N           2.2080   -0.2756   24.6758 N.am    1  UNL1       -0.2823
      4 H           1.4691   -0.8802   24.9163 H       1  UNL1        0.1549
      5 C          -1.3552    2.2259   27.3372 C.3     1  UNL1        0.0949
      6 C          -0.0694    1.7504   26.7285 C.2     1  UNL1        0.2269
      7 O           0.1717    1.9195   25.2577 O.2     1  UNL1       -0.2748
      8 N           0.9752    1.1057   27.5905 N.am    1  UNL1       -0.2655
      9 C           0.8761    0.8699   29.0685 C.3     1  UNL1        0.1206
     10 C           2.1420    0.2021   29.5174 C.ar    1  UNL1       -0.0030
     11 C           2.6059   -0.2677   30.8642 C.ar    1  UNL1        0.0155
     12 C           3.9514   -0.9145   31.0104 C.ar    1  UNL1        0.1054
     13 C           4.8329   -1.0914   29.8098 C.ar    1  UNL1        0.0181
     14 C           4.3691   -0.6215   28.4629 C.ar    1  UNL1       -0.0011
     15 C           3.0236    0.0252   28.3168 C.ar    1  UNL1        0.0022
     16 C           2.3025    0.5837   27.1259 C.3     1  UNL1        0.1750
     17 S           4.4153   -1.3843   32.3573 S.O2    1  UNL1        0.0104
     18 C           4.8793   -1.8542   33.7041 C.3     1  UNL1        0.1816
     19 O           3.4033   -0.4947   33.0163 O.2     1  UNL1       -0.1686
     20 O           5.4273   -2.2740   31.6983 O.2     1  UNL1       -0.1686
     21 C           2.7236   -0.2447   23.2675 C.ar    1  UNL1        0.0503
     22 C           3.8523   -1.1456   22.8622 C.ar    1  UNL1        0.0144
     23 C           4.3680   -1.1146   21.4539 C.ar    1  UNL1       -0.0002
     24 C           3.7548   -0.1828   20.4511 C.ar    1  UNL1        0.0182
     25 C           2.6261    0.7181   20.8565 C.ar    1  UNL1       -0.0002
     26 C           2.1104    0.6872   22.2648 C.ar    1  UNL1        0.0144
     27 C           4.2704   -0.1517   19.0428 C.3     1  UNL1        0.2827
     28 O           4.6735    1.2820   19.2218 O.3     1  UNL1       -0.3692
     29 H           5.0747    1.6098   18.4018 H       1  UNL1        0.2112
     30 C           4.7859   -0.1208   17.6345 C.3     1  UNL1        0.4311
     31 F           5.3015   -0.0899   16.2262 F       1  UNL1       -0.1669
     32 F           3.3808   -0.2156   17.1181 F       1  UNL1       -0.1669
     33 F           5.6465   -0.0630   17.8358 F       1  UNL1       -0.1669
     34 C           3.8673   -1.5855   18.8638 C.3     1  UNL1        0.4311
     35 F           3.4642   -3.0192   18.6847 F       1  UNL1       -0.1669
     36 F           2.9984   -1.4700   18.9910 F       1  UNL1       -0.1669
     37 F           5.1602   -2.2944   18.5885 F       1  UNL1       -0.1669
@<TRIPOS>BOND
     1     5     6    1
     2     6     7    2
     3     6     8   am
     4     8     9    1
     5     9    10    1
     6    10    11   ar
     7    11    12   ar
     8    12    17    1
     9    17    18    1
    10    17    19    2
    11    17    20    2
    12    12    13   ar
    13    13    14   ar
    14    14    15   ar
    15    15    16    1
    16    16     1    1
    17     1     2    2
    18     1     3   am
    19     3    21    1
    20    21    22   ar
    21    22    23   ar
    22    23    24   ar
    23    24    27    1
    24    27    28    1
    25    27    30    1
    26    30    31    1
    27    30    32    1
    28    30    33    1
    29    27    34    1
    30    34    35    1
    31    34    36    1
    32    34    37    1
    33    24    25   ar
    34    25    26   ar
    35    16     8    1
    36    26    21   ar
    37    15    10   ar
    38     3     4    1
    39    28    29    1
@<TRIPOS>MOLECULE
*****
 37 39 0 0 0
SMALL
GASTEIGER

@<TRIPOS>ATOM
      1 C           5.6572   -0.8643   31.9620 C.2     1  UNL1        0.2485
      2 O           6.8074   -0.0838   32.5254 O.2     1  UNL1       -0.2726
      3 N           4.3275   -0.8473   32.6563 N.am    1  UNL1       -0.2823
      4 H           3.5725   -1.3596   32.2866 H       1  UNL1        0.1549
      5 C           3.8996    0.0625   27.6391 C.3     1  UNL1        0.0949
      6 C           4.4051   -0.1402   29.0367 C.2     1  UNL1        0.2269
      7 O           4.0549    0.8460   30.1112 O.2     1  UNL1       -0.2748
      8 N           5.2608   -1.3291   29.3597 N.am    1  UNL1       -0.2655
      9 C           5.6913   -2.3939   28.3949 C.3     1  UNL1        0.1206
     10 C           6.5328   -3.3848   29.1432 C.ar    1  UNL1       -0.0030
     11 C           7.2290   -4.6405   28.7093 C.ar    1  UNL1        0.0155
     12 C           8.0148   -5.4439   29.7027 C.ar    1  UNL1        0.1054
     13 C           8.1045   -4.9916   31.1300 C.ar    1  UNL1        0.0181
     14 C           7.4083   -3.7358   31.5640 C.ar    1  UNL1       -0.0011
     15 C           6.6224   -2.9324   30.5705 C.ar    1  UNL1        0.0022
     16 C           5.8363   -1.6619   30.7043 C.3     1  UNL1        0.1750
     17 S           8.7111   -6.6998   29.2688 S.O2    1  UNL1        0.0104
     18 C           9.4073   -7.9555   28.8350 C.3     1  UNL1        0.1816
     19 O           7.9295   -6.6908   27.9886 O.2     1  UNL1       -0.1686
     20 O           9.4927   -6.7087   30.5490 O.2     1  UNL1       -0.1686
     21 C           4.1484   -0.0497   33.9140 C.ar    1  UNL1        0.0503
     22 C           4.7354   -0.5412   35.2039 C.ar    1  UNL1        0.0144
     23 C           4.5563    0.2564   36.4616 C.ar    1  UNL1       -0.0002
     24 C           3.7901    1.5455   36.4293 C.ar    1  UNL1        0.0182
     25 C           3.2030    2.0370   35.1394 C.ar    1  UNL1       -0.0002
     26 C           3.3822    1.2394   33.8818 C.ar    1  UNL1        0.0144
     27 C           3.6109    2.3432   37.6870 C.3     1  UNL1        0.2827
     28 O           4.5386    3.3939   37.1528 O.3     1  UNL1       -0.3692
     29 H           4.6292    4.1067   37.8044 H       1  UNL1        0.2112
     30 C           3.4316    3.1408   38.9446 C.3     1  UNL1        0.4311
     31 F           3.2524    3.9384   40.2023 F       1  UNL1       -0.1669
     32 F           2.2472    3.8323   38.3373 F       1  UNL1       -0.1669
     33 F           4.1129    2.7929   39.3912 F       1  UNL1       -0.1669
     34 C           2.6832    1.2924   38.2211 C.3     1  UNL1        0.4311
     35 F           1.7554    0.2416   38.7552 F       1  UNL1       -0.1669
     36 F           1.9939    1.4808   37.6977 F       1  UNL1       -0.1669
     37 F           3.4893    0.6010   39.2804 F       1  UNL1       -0.1669
@<TRIPOS>BOND
     1     5     6    1
     2     6     7    2
     3     6     8   am
     4     8     9    1
     5     9    10    1
     6    10    11   ar
     7    11    12   ar
     8    12    17    1
     9    17    18    1
    10    17    19    2
    11    17    20    2
    12    12    13   ar
    13    13    14   ar
    14    14    15   ar
    15    15    16    1
    16    16     1    1
    17     1     2    2
    18     1     3   am
    19     3    21    1
    20    21    22   ar
    21    22    23   ar
    22    23    24   ar
    23    24    27    1
    24    27    28    1
    25    27    30    1
    26    30    31    1
    27    30    32    1
    28    30    33    1
    29    27    34    1
    30    34    35    1
    31    34    36    1
    32    34    37    1
    33    24    25   ar
    34    25    26   ar
    35    16     8    1
    36    26    21   ar
    37    15    10   ar
    38     3     4    1
    39    28    29    1
@<TRIPOS>MOLECULE
*****
 37 39 0 0 0
SMALL
GASTEIGER

@<TRIPOS>ATOM
      1 C           5.4127   -0.4258   31.6654 C.2     1  UNL1        0.2485
      2 O           6.1685    0.8556   31.8563 O.2     1  UNL1       -0.2726
      3 N           4.4508   -0.8931   32.7174 N.am    1  UNL1       -0.2823
      4 H           3.9548   -1.7342   32.5922 H       1  UNL1        0.1549
      5 C           8.0602   -4.3445   31.1452 C.3     1  UNL1        0.0949
      6 C           7.2555   -3.1072   31.4125 C.2     1  UNL1        0.2269
      7 O           7.2407   -2.5045   32.7860 O.2     1  UNL1       -0.2748
      8 N           6.4658   -2.4726   30.3064 N.am    1  UNL1       -0.2655
      9 C           6.3843   -2.9590   28.8898 C.3     1  UNL1        0.1206
     10 C           5.4870   -2.0272   28.1306 C.ar    1  UNL1       -0.0030
     11 C           5.0396   -2.0089   26.6990 C.ar    1  UNL1        0.0155
     12 C           4.1190   -0.9281   26.2147 C.ar    1  UNL1        0.1054
     13 C           3.6458    0.1342   27.1621 C.ar    1  UNL1        0.0181
     14 C           4.0932    0.1159   28.5937 C.ar    1  UNL1       -0.0011
     15 C           5.0138   -0.9649   29.0779 C.ar    1  UNL1        0.0022
     16 C           5.6187   -1.2401   30.4226 C.3     1  UNL1        0.1750
     17 S           3.6716   -0.9097   24.7831 S.O2    1  UNL1        0.0104
     18 C           3.2242   -0.8913   23.3515 C.3     1  UNL1        0.1816
     19 O           4.6379   -2.0125   24.4669 O.2     1  UNL1       -0.1686
     20 O           2.7053    0.1931   25.0993 O.2     1  UNL1       -0.1686
     21 C           4.2449   -0.0788   33.9602 C.ar    1  UNL1        0.0503
     22 C           4.8605   -0.5183   35.2555 C.ar    1  UNL1        0.0144
     23 C           4.6545    0.2960   36.4983 C.ar    1  UNL1       -0.0002
     24 C           3.8329    1.5498   36.4457 C.ar    1  UNL1        0.0182
     25 C           3.2172    1.9893   35.1504 C.ar    1  UNL1       -0.0002
     26 C           3.4232    1.1750   33.9076 C.ar    1  UNL1        0.0144
     27 C           3.6268    2.3641   37.6884 C.3     1  UNL1        0.2827
     28 O           4.5601    3.4113   37.1570 O.3     1  UNL1       -0.3692
     29 H           4.6357    4.1335   37.8002 H       1  UNL1        0.2112
     30 C           3.4207    3.1784   38.9312 C.3     1  UNL1        0.4311
     31 F           3.2146    3.9927   40.1740 F       1  UNL1       -0.1669
     32 F           2.3492    3.9662   38.2374 F       1  UNL1       -0.1669
     33 F           4.0339    2.7754   39.4273 F       1  UNL1       -0.1669
     34 C           2.6935    1.3170   38.2198 C.3     1  UNL1        0.4311
     35 F           1.7602    0.2698   38.7511 F       1  UNL1       -0.1669
     36 F           1.9955    1.5298   37.7178 F       1  UNL1       -0.1669
     37 F           3.5121    0.5864   39.2427 F       1  UNL1       -0.1669
@<TRIPOS>BOND
     1     5     6    1
     2     6     7    2
     3     6     8   am
     4     8     9    1
     5     9    10    1
     6    10    11   ar
     7    11    12   ar
     8    12    17    1
     9    17    18    1
    10    17    19    2
    11    17    20    2
    12    12    13   ar
    13    13    14   ar
    14    14    15   ar
    15    15    16    1
    16    16     1    1
    17     1     2    2
    18     1     3   am
    19     3    21    1
    20    21    22   ar
    21    22    23   ar
    22    23    24   ar
    23    24    27    1
    24    27    28    1
    25    27    30    1
    26    30    31    1
    27    30    32    1
    28    30    33    1
    29    27    34    1
    30    34    35    1
    31    34    36    1
    32    34    37    1
    33    24    25   ar
    34    25    26   ar
    35    16     8    1
    36    26    21   ar
    37    15    10   ar
    38     3     4    1
    39    28    29    1
