@<TRIPOS>MOLECULE
*****
 20 22 0 0 0
SMALL
GASTEIGER

@<TRIPOS>ATOM
      1 N           0.2091  -17.8243   19.3123 N.pl3   1  UNL1       -0.3375
      2 C          -1.1384  -18.2198   19.8392 C.ar    1  UNL1        0.1567
      3 N          -1.4576  -18.5850   21.2586 N.ar    1  UNL1       -0.2245
      4 C          -2.9198  -18.9105   21.3360 C.ar    1  UNL1        0.0893
      5 C          -3.7945  -19.3350   22.4782 C.ar    1  UNL1        0.0202
      6 C          -5.2538  -19.5955   22.2487 C.ar    1  UNL1        0.0077
      7 C          -5.8383  -19.4313   20.8771 C.ar    1  UNL1        0.0261
      8 C          -4.9636  -19.0067   19.7349 C.ar    1  UNL1        0.0142
      9 C          -3.5044  -18.7463   19.9644 C.ar    1  UNL1        0.0502
     10 S          -2.4034  -18.3194   19.0394 S.2     1  UNL1       -0.0520
     11 H           0.9836  -17.7878   19.9190 H       1  UNL1        0.1442
     12 H           0.3191  -17.6012   18.3597 H       1  UNL1        0.1442
     13 S          -7.2977  -19.6917   20.6477 S.3     1  UNL1       -0.1088
     14 C          -8.3172  -18.6803   21.0806 C.3     1  UNL1        0.0884
     15 C          -9.1887  -18.9556   22.2701 C.ar    1  UNL1       -0.0110
     16 C         -10.3913  -18.0986   22.5331 C.ar    1  UNL1       -0.0034
     17 C         -11.2628  -18.3740   23.7225 C.ar    1  UNL1       -0.0003
     18 C         -10.9316  -19.5063   24.6489 C.ar    1  UNL1       -0.0000
     19 C          -9.7289  -20.3632   24.3859 C.ar    1  UNL1       -0.0003
     20 C          -8.8575  -20.0879   23.1965 C.ar    1  UNL1       -0.0034
@<TRIPOS>BOND
     1     1     2    1
     2     2     3   ar
     3     3     4   ar
     4     4     5   ar
     5     5     6   ar
     6     6     7   ar
     7     7    13    1
     8    13    14    1
     9    14    15    1
    10    15    16   ar
    11    16    17   ar
    12    17    18   ar
    13    18    19   ar
    14    19    20   ar
    15     7     8   ar
    16     8     9   ar
    17     9    10   ar
    18    10     2   ar
    19     9     4   ar
    20    20    15   ar
    21     1    11    1
    22     1    12    1
@<TRIPOS>MOLECULE
*****
 20 22 0 0 0
SMALL
GASTEIGER

@<TRIPOS>ATOM
      1 N          -0.3834  -17.6720   20.8867 N.pl3   1  UNL1       -0.3375
      2 C          -1.7719  -18.2332   20.9713 C.ar    1  UNL1        0.1567
      3 N          -2.3223  -19.3536   20.1396 N.ar    1  UNL1       -0.2245
      4 C          -3.7443  -19.5853   20.5568 C.ar    1  UNL1        0.0893
      5 C          -4.7825  -20.5599   20.0853 C.ar    1  UNL1        0.0202
      6 C          -6.1492  -20.5572   20.7034 C.ar    1  UNL1        0.0077
      7 C          -6.4777  -19.5800   21.7929 C.ar    1  UNL1        0.0261
      8 C          -5.4395  -18.6054   22.2644 C.ar    1  UNL1        0.0142
      9 C          -4.0728  -18.6081   21.6463 C.ar    1  UNL1        0.0502
     10 S          -2.8538  -17.7724   21.9025 S.2     1  UNL1       -0.0520
     11 H           0.2590  -18.0433   20.2396 H       1  UNL1        0.1442
     12 H          -0.1144  -16.9324   21.4782 H       1  UNL1        0.1442
     13 S          -7.8445  -19.5774   22.4110 S.3     1  UNL1       -0.1088
     14 C          -9.0631  -19.5790   21.5365 C.3     1  UNL1        0.0884
     15 C         -10.3477  -18.9895   22.0389 C.ar    1  UNL1       -0.0110
     16 C         -10.6668  -19.0252   23.5042 C.ar    1  UNL1       -0.0034
     17 C         -11.9513  -18.4357   24.0065 C.ar    1  UNL1       -0.0003
     18 C         -12.9168  -17.8107   23.0437 C.ar    1  UNL1       -0.0000
     19 C         -12.5978  -17.7750   21.5785 C.ar    1  UNL1       -0.0003
     20 C         -11.3133  -18.3645   21.0761 C.ar    1  UNL1       -0.0034
@<TRIPOS>BOND
     1     1     2    1
     2     2     3   ar
     3     3     4   ar
     4     4     5   ar
     5     5     6   ar
     6     6     7   ar
     7     7    13    1
     8    13    14    1
     9    14    15    1
    10    15    16   ar
    11    16    17   ar
    12    17    18   ar
    13    18    19   ar
    14    19    20   ar
    15     7     8   ar
    16     8     9   ar
    17     9    10   ar
    18    10     2   ar
    19     9     4   ar
    20    20    15   ar
    21     1    11    1
    22     1    12    1
@<TRIPOS>MOLECULE
*****
 20 22 0 0 0
SMALL
GASTEIGER

@<TRIPOS>ATOM
      1 N           0.2360  -16.9034   20.1762 N.pl3   1  UNL1       -0.3375
      2 C          -1.0339  -17.6895   20.3158 C.ar    1  UNL1        0.1567
      3 N          -1.5044  -18.7755   19.3943 N.ar    1  UNL1       -0.2245
      4 C          -2.8175  -19.2849   19.9103 C.ar    1  UNL1        0.0893
      5 C          -3.7467  -20.3512   19.4110 C.ar    1  UNL1        0.0202
      6 C          -5.0169  -20.6464   20.1521 C.ar    1  UNL1        0.0077
      7 C          -5.3580  -19.8751   21.3926 C.ar    1  UNL1        0.0261
      8 C          -4.4288  -18.8087   21.8920 C.ar    1  UNL1        0.0142
      9 C          -3.1586  -18.5136   21.1508 C.ar    1  UNL1        0.0502
     10 S          -2.0562  -17.5277   21.4014 S.2     1  UNL1       -0.0520
     11 H           0.8466  -17.0838   19.4253 H       1  UNL1        0.1442
     12 H           0.4589  -16.2071   20.8355 H       1  UNL1        0.1442
     13 S          -6.6283  -20.1703   22.1337 S.3     1  UNL1       -0.1088
     14 C          -7.8704  -19.3840   21.8359 C.3     1  UNL1        0.0884
     15 C          -8.2930  -18.2738   22.7519 C.ar    1  UNL1       -0.0110
     16 C          -9.4346  -18.4795   23.7029 C.ar    1  UNL1       -0.0034
     17 C          -9.8571  -17.3694   24.6188 C.ar    1  UNL1       -0.0003
     18 C          -9.1379  -16.0535   24.5838 C.ar    1  UNL1       -0.0000
     19 C          -7.9963  -15.8477   23.6329 C.ar    1  UNL1       -0.0003
     20 C          -7.5738  -16.9579   22.7170 C.ar    1  UNL1       -0.0034
@<TRIPOS>BOND
     1     1     2    1
     2     2     3   ar
     3     3     4   ar
     4     4     5   ar
     5     5     6   ar
     6     6     7   ar
     7     7    13    1
     8    13    14    1
     9    14    15    1
    10    15    16   ar
    11    16    17   ar
    12    17    18   ar
    13    18    19   ar
    14    19    20   ar
    15     7     8   ar
    16     8     9   ar
    17     9    10   ar
    18    10     2   ar
    19     9     4   ar
    20    20    15   ar
    21     1    11    1
    22     1    12    1
@<TRIPOS>MOLECULE
*****
 20 22 0 0 0
SMALL
GASTEIGER

@<TRIPOS>ATOM
      1 N          -5.1279  -15.0294   25.4362 N.pl3   1  UNL1       -0.3375
      2 C          -5.6126  -15.9948   24.3955 C.ar    1  UNL1        0.1567
      3 N          -4.8207  -17.1215   23.8010 N.ar    1  UNL1       -0.2245
      4 C          -5.6931  -17.8261   22.8047 C.ar    1  UNL1        0.0893
      5 C          -5.4473  -19.0077   21.9141 C.ar    1  UNL1        0.0202
      6 C          -6.5327  -19.4982   21.0023 C.ar    1  UNL1        0.0077
      7 C          -7.8637  -18.8069   20.9810 C.ar    1  UNL1        0.0261
      8 C          -8.1094  -17.6252   21.8716 C.ar    1  UNL1        0.0142
      9 C          -7.0241  -17.1348   22.7835 C.ar    1  UNL1        0.0502
     10 S          -6.9744  -16.0031   23.7666 S.2     1  UNL1       -0.0520
     11 H          -4.2122  -15.1055   25.7898 H       1  UNL1        0.1442
     12 H          -5.7254  -14.3197   25.7656 H       1  UNL1        0.1442
     13 S          -8.9491  -19.2974   20.0691 S.3     1  UNL1       -0.1088
     14 C         -10.1728  -19.9486   20.6421 C.3     1  UNL1        0.0884
     15 C         -11.1113  -19.1554   21.5025 C.ar    1  UNL1       -0.0110
     16 C         -11.1729  -19.4116   22.9791 C.ar    1  UNL1       -0.0034
     17 C         -12.1114  -18.6185   23.8394 C.ar    1  UNL1       -0.0003
     18 C         -12.9883  -17.5691   23.2230 C.ar    1  UNL1       -0.0000
     19 C         -12.9267  -17.3129   21.7464 C.ar    1  UNL1       -0.0003
     20 C         -11.9882  -18.1060   20.8861 C.ar    1  UNL1       -0.0034
@<TRIPOS>BOND
     1     1     2    1
     2     2     3   ar
     3     3     4   ar
     4     4     5   ar
     5     5     6   ar
     6     6     7   ar
     7     7    13    1
     8    13    14    1
     9    14    15    1
    10    15    16   ar
    11    16    17   ar
    12    17    18   ar
    13    18    19   ar
    14    19    20   ar
    15     7     8   ar
    16     8     9   ar
    17     9    10   ar
    18    10     2   ar
    19     9     4   ar
    20    20    15   ar
    21     1    11    1
    22     1    12    1
@<TRIPOS>MOLECULE
*****
 20 22 0 0 0
SMALL
GASTEIGER

@<TRIPOS>ATOM
      1 N         -19.9046  -11.0907   18.2086 N.pl3   1  UNL1       -0.3375
      2 C         -18.6832  -10.2291   18.3345 C.ar    1  UNL1        0.1567
      3 N         -17.2711  -10.6562   18.0632 N.ar    1  UNL1       -0.2245
      4 C         -16.3746   -9.4802   18.3148 C.ar    1  UNL1        0.0893
      5 C         -14.8879   -9.3110   18.2104 C.ar    1  UNL1        0.0202
      6 C         -14.2592   -7.9879   18.5328 C.ar    1  UNL1        0.0077
      7 C         -15.1172   -6.8339   18.9597 C.ar    1  UNL1        0.0261
      8 C         -16.6040   -7.0031   19.0641 C.ar    1  UNL1        0.0142
      9 C         -17.2327   -8.3262   18.7416 C.ar    1  UNL1        0.0502
     10 S         -18.6594   -8.7891   18.7538 S.2     1  UNL1       -0.0520
     11 H         -19.8177  -12.0294   17.9247 H       1  UNL1        0.1442
     12 H         -20.7931  -10.7176   18.4099 H       1  UNL1        0.1442
     13 S         -14.4884   -5.5108   19.2821 S.3     1  UNL1       -0.1088
     14 C         -13.1411   -5.4610   19.9395 C.3     1  UNL1        0.0884
     15 C         -11.9204   -5.1490   19.1253 C.ar    1  UNL1       -0.0110
     16 C         -10.9824   -6.2500   18.7280 C.ar    1  UNL1       -0.0034
     17 C          -9.7618   -5.9380   17.9139 C.ar    1  UNL1       -0.0003
     18 C          -9.4793   -4.5251   17.4971 C.ar    1  UNL1       -0.0000
     19 C         -10.4173   -3.4241   17.8945 C.ar    1  UNL1       -0.0003
     20 C         -11.6379   -3.7361   18.7085 C.ar    1  UNL1       -0.0034
@<TRIPOS>BOND
     1     1     2    1
     2     2     3   ar
     3     3     4   ar
     4     4     5   ar
     5     5     6   ar
     6     6     7   ar
     7     7    13    1
     8    13    14    1
     9    14    15    1
    10    15    16   ar
    11    16    17   ar
    12    17    18   ar
    13    18    19   ar
    14    19    20   ar
    15     7     8   ar
    16     8     9   ar
    17     9    10   ar
    18    10     2   ar
    19     9     4   ar
    20    20    15   ar
    21     1    11    1
    22     1    12    1
@<TRIPOS>MOLECULE
*****
 20 22 0 0 0
SMALL
GASTEIGER

@<TRIPOS>ATOM
      1 N          -7.0566  -14.4530   27.7360 N.pl3   1  UNL1       -0.3375
      2 C          -7.5341  -15.4214   26.6947 C.ar    1  UNL1        0.1567
      3 N          -7.0978  -15.4597   25.2601 N.ar    1  UNL1       -0.2245
      4 C          -7.8258  -16.5835   24.5840 C.ar    1  UNL1        0.0893
      5 C          -7.7962  -17.0940   23.1739 C.ar    1  UNL1        0.0202
      6 C          -8.6529  -18.2608   22.7806 C.ar    1  UNL1        0.0077
      7 C          -9.5391  -18.9171   23.7974 C.ar    1  UNL1        0.0261
      8 C          -9.5687  -18.4066   25.2075 C.ar    1  UNL1        0.0142
      9 C          -8.7121  -17.2398   25.6008 C.ar    1  UNL1        0.0502
     10 S          -8.5318  -16.5216   26.9053 S.2     1  UNL1       -0.0520
     11 H          -6.3962  -13.7622   27.4997 H       1  UNL1        0.1442
     12 H          -7.4036  -14.5083   28.6556 H       1  UNL1        0.1442
     13 S         -10.3958  -20.0839   23.4040 S.3     1  UNL1       -0.1088
     14 C         -11.1747  -20.0442   22.1227 C.3     1  UNL1        0.0884
     15 C         -11.4901  -18.7275   21.4771 C.ar    1  UNL1       -0.0110
     16 C         -10.9076  -18.3909   20.1364 C.ar    1  UNL1       -0.0034
     17 C         -11.2230  -17.0742   19.4909 C.ar    1  UNL1       -0.0003
     18 C         -12.1207  -16.0940   20.1861 C.ar    1  UNL1       -0.0000
     19 C         -12.7031  -16.4305   21.5268 C.ar    1  UNL1       -0.0003
     20 C         -12.3878  -17.7473   22.1723 C.ar    1  UNL1       -0.0034
@<TRIPOS>BOND
     1     1     2    1
     2     2     3   ar
     3     3     4   ar
     4     4     5   ar
     5     5     6   ar
     6     6     7   ar
     7     7    13    1
     8    13    14    1
     9    14    15    1
    10    15    16   ar
    11    16    17   ar
    12    17    18   ar
    13    18    19   ar
    14    19    20   ar
    15     7     8   ar
    16     8     9   ar
    17     9    10   ar
    18    10     2   ar
    19     9     4   ar
    20    20    15   ar
    21     1    11    1
    22     1    12    1
@<TRIPOS>MOLECULE
*****
 20 22 0 0 0
SMALL
GASTEIGER

@<TRIPOS>ATOM
      1 N         -17.0852  -11.7539   18.9534 N.pl3   1  UNL1       -0.3375
      2 C         -16.8396  -10.2768   19.0419 C.ar    1  UNL1        0.1567
      3 N         -17.8247   -9.2455   19.5066 N.ar    1  UNL1       -0.2245
      4 C         -17.1597   -7.9030   19.4332 C.ar    1  UNL1        0.0893
      5 C         -17.6451   -6.5230   19.7649 C.ar    1  UNL1        0.0202
      6 C         -16.7344   -5.3446   19.5865 C.ar    1  UNL1        0.0077
      7 C         -15.3383   -5.5462   19.0763 C.ar    1  UNL1        0.0261
      8 C         -14.8529   -6.9261   18.7445 C.ar    1  UNL1        0.0142
      9 C         -15.7636   -8.1045   18.9230 C.ar    1  UNL1        0.0502
     10 S         -15.5658   -9.5716   18.6812 S.2     1  UNL1       -0.0520
     11 H         -17.9593  -12.1241   19.2143 H       1  UNL1        0.1442
     12 H         -16.3722  -12.3532   18.6343 H       1  UNL1        0.1442
     13 S         -14.4276   -4.3677   18.8978 S.3     1  UNL1       -0.1088
     14 C         -13.1233   -4.3091   19.6364 C.3     1  UNL1        0.0884
     15 C         -11.8358   -4.5490   18.9051 C.ar    1  UNL1       -0.0110
     16 C         -11.2113   -5.9128   18.9135 C.ar    1  UNL1       -0.0034
     17 C          -9.9239   -6.1526   18.1821 C.ar    1  UNL1       -0.0003
     18 C          -9.2609   -5.0287   17.4424 C.ar    1  UNL1       -0.0000
     19 C          -9.8853   -3.6649   17.4340 C.ar    1  UNL1       -0.0003
     20 C         -11.1728   -3.4250   18.1654 C.ar    1  UNL1       -0.0034
@<TRIPOS>BOND
     1     1     2    1
     2     2     3   ar
     3     3     4   ar
     4     4     5   ar
     5     5     6   ar
     6     6     7   ar
     7     7    13    1
     8    13    14    1
     9    14    15    1
    10    15    16   ar
    11    16    17   ar
    12    17    18   ar
    13    18    19   ar
    14    19    20   ar
    15     7     8   ar
    16     8     9   ar
    17     9    10   ar
    18    10     2   ar
    19     9     4   ar
    20    20    15   ar
    21     1    11    1
    22     1    12    1
@<TRIPOS>MOLECULE
*****
 20 22 0 0 0
SMALL
GASTEIGER

@<TRIPOS>ATOM
      1 N         -17.4673  -11.5195   18.7599 N.pl3   1  UNL1       -0.3375
      2 C         -16.6196  -10.2820   18.7541 C.ar    1  UNL1        0.1567
      3 N         -15.2209  -10.1738   18.2233 N.ar    1  UNL1       -0.2245
      4 C         -14.7587   -8.7603   18.4192 C.ar    1  UNL1        0.0893
      5 C         -13.4681   -8.0713   18.0882 C.ar    1  UNL1        0.0202
      6 C         -13.2906   -6.6169   18.4091 C.ar    1  UNL1        0.0077
      7 C         -14.4037   -5.8514   19.0611 C.ar    1  UNL1        0.0261
      8 C         -15.6943   -6.5404   19.3921 C.ar    1  UNL1        0.0142
      9 C         -15.8718   -7.9948   19.0711 C.ar    1  UNL1        0.0502
     10 S         -17.0219   -8.9353   19.2781 S.2     1  UNL1       -0.0520
     11 H         -17.1127  -12.3607   18.3912 H       1  UNL1        0.1442
     12 H         -18.3781  -11.4905   19.1324 H       1  UNL1        0.1442
     13 S         -14.2262   -4.3969   19.3820 S.3     1  UNL1       -0.1088
     14 C         -12.8758   -3.8747   19.7741 C.3     1  UNL1        0.0884
     15 C         -12.1032   -3.0064   18.8259 C.ar    1  UNL1       -0.0110
     16 C         -11.0480   -3.6095   17.9469 C.ar    1  UNL1       -0.0034
     17 C         -10.2754   -2.7411   16.9987 C.ar    1  UNL1       -0.0003
     18 C         -10.5580   -1.2696   16.9296 C.ar    1  UNL1       -0.0000
     19 C         -11.6133   -0.6665   17.8086 C.ar    1  UNL1       -0.0003
     20 C         -12.3858   -1.5348   18.7568 C.ar    1  UNL1       -0.0034
@<TRIPOS>BOND
     1     1     2    1
     2     2     3   ar
     3     3     4   ar
     4     4     5   ar
     5     5     6   ar
     6     6     7   ar
     7     7    13    1
     8    13    14    1
     9    14    15    1
    10    15    16   ar
    11    16    17   ar
    12    17    18   ar
    13    18    19   ar
    14    19    20   ar
    15     7     8   ar
    16     8     9   ar
    17     9    10   ar
    18    10     2   ar
    19     9     4   ar
    20    20    15   ar
    21     1    11    1
    22     1    12    1
@<TRIPOS>MOLECULE
*****
 20 22 0 0 0
SMALL
GASTEIGER

@<TRIPOS>ATOM
      1 N          -6.5724  -14.6934   27.6367 N.pl3   1  UNL1       -0.3375
      2 C          -7.2344  -15.1132   26.3578 C.ar    1  UNL1        0.1567
      3 N          -6.8213  -14.7033   24.9753 N.ar    1  UNL1       -0.2245
      4 C          -7.7573  -15.3534   23.9999 C.ar    1  UNL1        0.0893
      5 C          -7.8347  -15.3111   22.5025 C.ar    1  UNL1        0.0202
      6 C          -8.9038  -16.0804   21.7848 C.ar    1  UNL1        0.0077
      7 C          -9.8954  -16.8921   22.5645 C.ar    1  UNL1        0.0261
      8 C          -9.8180  -16.9344   24.0619 C.ar    1  UNL1        0.0142
      9 C          -8.7489  -16.1650   24.7796 C.ar    1  UNL1        0.0502
     10 S          -8.4257  -16.0166   26.2368 S.2     1  UNL1       -0.0520
     11 H          -5.7916  -14.0943   27.6132 H       1  UNL1        0.1442
     12 H          -6.9189  -15.0170   28.4996 H       1  UNL1        0.1442
     13 S         -10.9645  -17.6615   21.8468 S.3     1  UNL1       -0.1088
     14 C         -10.5998  -18.8574   21.0181 C.3     1  UNL1        0.0884
     15 C          -9.1834  -19.3506   20.9956 C.ar    1  UNL1       -0.0110
     16 C          -8.4958  -19.7155   22.2778 C.ar    1  UNL1       -0.0034
     17 C          -7.0794  -20.2086   22.2552 C.ar    1  UNL1       -0.0003
     18 C          -6.3506  -20.3369   20.9505 C.ar    1  UNL1       -0.0000
     19 C          -7.0381  -19.9720   19.6683 C.ar    1  UNL1       -0.0003
     20 C          -8.4545  -19.4788   19.6909 C.ar    1  UNL1       -0.0034
@<TRIPOS>BOND
     1     1     2    1
     2     2     3   ar
     3     3     4   ar
     4     4     5   ar
     5     5     6   ar
     6     6     7   ar
     7     7    13    1
     8    13    14    1
     9    14    15    1
    10    15    16   ar
    11    16    17   ar
    12    17    18   ar
    13    18    19   ar
    14    19    20   ar
    15     7     8   ar
    16     8     9   ar
    17     9    10   ar
    18    10     2   ar
    19     9     4   ar
    20    20    15   ar
    21     1    11    1
    22     1    12    1
