@<TRIPOS>MOLECULE
*****
 31 34 0 0 0
SMALL
GASTEIGER

@<TRIPOS>ATOM
      1 C           4.4242   -0.6159   17.5911 C.2     1  UNL1        0.2525
      2 O           3.9400   -1.2078   16.3007 O.2     1  UNL1       -0.2698
      3 N           5.0774   -1.4911   18.6194 N.am    1  UNL1       -0.2660
      4 C           5.6085   -1.0438   19.9490 C.3     1  UNL1        0.1236
      5 C           6.1735   -2.2436   20.6498 C.ar    1  UNL1        0.0338
      6 C           6.8510   -2.7086   21.9047 C.ar    1  UNL1        0.0991
      7 N           7.0878   -4.1849   21.7839 N.ar    1  UNL1       -0.2265
      8 N           6.5566   -4.6323   20.4542 N.ar    1  UNL1       -0.1679
      9 C           5.9916   -3.4324   19.7534 C.ar    1  UNL1        0.0981
     10 C           5.3142   -2.9674   18.4985 C.3     1  UNL1        0.1414
     11 C           7.7409   -5.0602   22.8121 C.ar    1  UNL1        0.1102
     12 C           8.8752   -5.9599   22.4197 C.ar    1  UNL1        0.0214
     13 C           9.5284   -6.8352   23.4479 C.ar    1  UNL1        0.0017
     14 C           9.0474   -6.8107   24.8685 C.ar    1  UNL1        0.0024
     15 C           7.9131   -5.9109   25.2609 C.ar    1  UNL1        0.0312
     16 C           7.2599   -5.0357   24.2327 C.ar    1  UNL1        0.1577
     17 F           6.1257   -4.1359   24.6250 F       1  UNL1       -0.2026
     18 C           2.9120    1.3938   18.2429 C.ar    1  UNL1        0.1427
     19 C           2.7430    2.8610   18.5051 C.ar    1  UNL1        0.0384
     20 C           3.9171    3.7858   18.3777 C.ar    1  UNL1        0.0215
     21 C           5.2602    3.2434   17.9881 C.ar    1  UNL1        0.1061
     22 C           5.4292    1.7761   17.7259 C.ar    1  UNL1        0.0259
     23 C           4.2551    0.8513   17.8533 C.ar    1  UNL1        0.0887
     24 S           6.4343    4.1682   17.8607 S.O2    1  UNL1        0.0105
     25 C           7.6084    5.0930   17.7333 C.3     1  UNL1        0.1816
     26 O           5.8468    4.7411   16.6051 O.2     1  UNL1       -0.1686
     27 O           7.0218    3.5952   19.1164 O.2     1  UNL1       -0.1686
     28 O           1.7379    0.4690   18.3703 O.3     1  UNL1       -0.4790
     29 C           0.0952    0.7138   20.3682 C.3     1  UNL1        0.0472
     30 C           1.2690    0.0346   19.7273 C.3     1  UNL1        0.1661
     31 C           1.9742   -1.0789   20.4434 C.3     1  UNL1        0.0472
@<TRIPOS>BOND
     1    29    30    1
     2    30    31    1
     3    30    28    1
     4    28    18    1
     5    18    19   ar
     6    19    20   ar
     7    20    21   ar
     8    21    24    1
     9    24    25    1
    10    24    26    2
    11    24    27    2
    12    21    22   ar
    13    22    23   ar
    14    23     1    1
    15     1     2    2
    16     1     3   am
    17     3     4    1
    18     4     5    1
    19     5     6   ar
    20     6     7   ar
    21     7    11    1
    22    11    12   ar
    23    12    13   ar
    24    13    14   ar
    25    14    15   ar
    26    15    16   ar
    27    16    17    1
    28     7     8   ar
    29     8     9   ar
    30     9    10    1
    31    23    18   ar
    32    10     3    1
    33     9     5   ar
    34    16    11   ar
@<TRIPOS>MOLECULE
*****
 31 34 0 0 0
SMALL
GASTEIGER

@<TRIPOS>ATOM
      1 C          -0.8942    4.1898   21.3015 C.2     1  UNL1        0.2525
      2 O          -0.5029    5.5989   20.9679 O.2     1  UNL1       -0.2698
      3 N           0.0535    3.0617   21.0201 N.am    1  UNL1       -0.2660
      4 C          -0.1977    1.6092   21.2978 C.3     1  UNL1        0.1236
      5 C           1.0123    0.8378   20.8609 C.ar    1  UNL1        0.0338
      6 C           1.6050   -0.5366   20.7625 C.ar    1  UNL1        0.0991
      7 N           2.9702   -0.4104   20.1541 N.ar    1  UNL1       -0.2265
      8 N           3.2214    1.0423   19.8764 N.ar    1  UNL1       -0.1679
      9 C           2.0113    1.8136   20.3133 C.ar    1  UNL1        0.0981
     10 C           1.4187    3.1880   20.4117 C.3     1  UNL1        0.1414
     11 C           3.9179   -1.5384   19.8727 C.ar    1  UNL1        0.1102
     12 C           4.4236   -2.3916   20.9980 C.ar    1  UNL1        0.0214
     13 C           5.3713   -3.5197   20.7167 C.ar    1  UNL1        0.0017
     14 C           5.8133   -3.7947   19.3100 C.ar    1  UNL1        0.0024
     15 C           5.3076   -2.9415   18.1845 C.ar    1  UNL1        0.0312
     16 C           4.3600   -1.8135   18.4659 C.ar    1  UNL1        0.1577
     17 F           3.8543   -0.9603   17.3406 F       1  UNL1       -0.2026
     18 C          -3.3714    3.4455   21.0562 C.ar    1  UNL1        0.1427
     19 C          -4.7103    3.1646   21.6712 C.ar    1  UNL1        0.0384
     20 C          -4.9112    3.3470   23.1464 C.ar    1  UNL1        0.0215
     21 C          -3.7731    3.8103   24.0067 C.ar    1  UNL1        0.1061
     22 C          -2.4341    4.0912   23.3917 C.ar    1  UNL1        0.0259
     23 C          -2.2332    3.9089   21.9164 C.ar    1  UNL1        0.0887
     24 S          -3.9740    3.9927   25.4820 S.O2    1  UNL1        0.0105
     25 C          -4.1749    4.1750   26.9572 C.3     1  UNL1        0.1816
     26 O          -2.5781    4.5273   25.6060 O.2     1  UNL1       -0.1686
     27 O          -5.3700    3.4580   25.3579 O.2     1  UNL1       -0.1686
     28 O          -3.1704    3.2631   19.5809 O.3     1  UNL1       -0.4790
     29 C          -3.2559    5.5454   18.3423 C.3     1  UNL1        0.0472
     30 C          -3.8417    4.1911   18.6122 C.3     1  UNL1        0.1661
     31 C          -5.0986    3.7647   17.9135 C.3     1  UNL1        0.0472
@<TRIPOS>BOND
     1    29    30    1
     2    30    31    1
     3    30    28    1
     4    28    18    1
     5    18    19   ar
     6    19    20   ar
     7    20    21   ar
     8    21    24    1
     9    24    25    1
    10    24    26    2
    11    24    27    2
    12    21    22   ar
    13    22    23   ar
    14    23     1    1
    15     1     2    2
    16     1     3   am
    17     3     4    1
    18     4     5    1
    19     5     6   ar
    20     6     7   ar
    21     7    11    1
    22    11    12   ar
    23    12    13   ar
    24    13    14   ar
    25    14    15   ar
    26    15    16   ar
    27    16    17    1
    28     7     8   ar
    29     8     9   ar
    30     9    10    1
    31    23    18   ar
    32    10     3    1
    33     9     5   ar
    34    16    11   ar
@<TRIPOS>MOLECULE
*****
 31 34 0 0 0
SMALL
GASTEIGER

@<TRIPOS>ATOM
      1 C           3.5377   -2.6967   20.0372 C.2     1  UNL1        0.2525
      2 O           3.2360   -3.9720   19.3074 O.2     1  UNL1       -0.2698
      3 N           4.2808   -2.7357   21.3397 N.am    1  UNL1       -0.2660
      4 C           4.6523   -1.5490   22.1786 C.3     1  UNL1        0.1236
      5 C           5.3839   -2.0481   23.3892 C.ar    1  UNL1        0.0338
      6 C           6.0656   -1.6232   24.6560 C.ar    1  UNL1        0.0991
      7 N           6.5677   -2.8557   25.3482 N.ar    1  UNL1       -0.2265
      8 N           6.1961   -4.0423   24.5091 N.ar    1  UNL1       -0.1679
      9 C           5.4645   -3.5432   23.2985 C.ar    1  UNL1        0.0981
     10 C           4.7827   -3.9681   22.0318 C.3     1  UNL1        0.1414
     11 C           7.3107   -2.8946   26.6505 C.ar    1  UNL1        0.1102
     12 C           8.7927   -3.1258   26.6619 C.ar    1  UNL1        0.0214
     13 C           9.5358   -3.1648   27.9643 C.ar    1  UNL1        0.0017
     14 C           8.7968   -2.9726   29.2554 C.ar    1  UNL1        0.0024
     15 C           7.3147   -2.7415   29.2441 C.ar    1  UNL1        0.0312
     16 C           6.5717   -2.7025   27.9417 C.ar    1  UNL1        0.1577
     17 F           5.0897   -2.4714   27.9304 F       1  UNL1       -0.2026
     18 C           3.7678   -0.8342   18.2404 C.ar    1  UNL1        0.1427
     19 C           3.3264    0.4800   17.6678 C.ar    1  UNL1        0.0384
     20 C           2.2135    1.2461   18.3193 C.ar    1  UNL1        0.0215
     21 C           1.5420    0.6980   19.5435 C.ar    1  UNL1        0.1061
     22 C           1.9834   -0.6163   20.1161 C.ar    1  UNL1        0.0259
     23 C           3.0963   -1.3825   19.4646 C.ar    1  UNL1        0.0887
     24 S           0.4291    1.4641   20.1951 S.O2    1  UNL1        0.0105
     25 C          -0.6838    2.2302   20.8466 C.3     1  UNL1        0.1816
     26 O           1.0427    2.7513   19.7297 O.2     1  UNL1       -0.1686
     27 O          -0.1846    0.1768   20.6604 O.2     1  UNL1       -0.1686
     28 O           4.8807   -1.6004   17.5888 O.3     1  UNL1       -0.4790
     29 C           7.0864   -2.3133   18.7621 C.3     1  UNL1        0.0472
     30 C           6.3057   -1.3147   17.9602 C.3     1  UNL1        0.1661
     31 C           6.9498   -0.0303   17.5295 C.3     1  UNL1        0.0472
@<TRIPOS>BOND
     1    29    30    1
     2    30    31    1
     3    30    28    1
     4    28    18    1
     5    18    19   ar
     6    19    20   ar
     7    20    21   ar
     8    21    24    1
     9    24    25    1
    10    24    26    2
    11    24    27    2
    12    21    22   ar
    13    22    23   ar
    14    23     1    1
    15     1     2    2
    16     1     3   am
    17     3     4    1
    18     4     5    1
    19     5     6   ar
    20     6     7   ar
    21     7    11    1
    22    11    12   ar
    23    12    13   ar
    24    13    14   ar
    25    14    15   ar
    26    15    16   ar
    27    16    17    1
    28     7     8   ar
    29     8     9   ar
    30     9    10    1
    31    23    18   ar
    32    10     3    1
    33     9     5   ar
    34    16    11   ar
@<TRIPOS>MOLECULE
*****
 31 34 0 0 0
SMALL
GASTEIGER

@<TRIPOS>ATOM
      1 C           2.1256    0.3345   19.3363 C.2     1  UNL1        0.2525
      2 O           0.9184    0.4448   18.4530 O.2     1  UNL1       -0.2698
      3 N           1.9915    0.5291   20.8176 N.am    1  UNL1       -0.2660
      4 C           3.1031    0.4495   21.8216 C.3     1  UNL1        0.1236
      5 C           2.5207    0.7087   23.1794 C.ar    1  UNL1        0.0338
      6 C           2.8478    0.8197   24.6391 C.ar    1  UNL1        0.0991
      7 N           1.5784    1.1281   25.3765 N.ar    1  UNL1       -0.2265
      8 N           0.4668    1.2076   24.3724 N.ar    1  UNL1       -0.1679
      9 C           1.0492    0.9485   23.0146 C.ar    1  UNL1        0.0981
     10 C           0.7221    0.8375   21.5549 C.3     1  UNL1        0.1414
     11 C           1.4442    1.3227   26.8576 C.ar    1  UNL1        0.1102
     12 C           0.6697    2.4901   27.3936 C.ar    1  UNL1        0.0214
     13 C           0.5355    2.6848   28.8749 C.ar    1  UNL1        0.0017
     14 C           1.1758    1.7120   29.8202 C.ar    1  UNL1        0.0024
     15 C           1.9503    0.5444   29.2842 C.ar    1  UNL1        0.0312
     16 C           2.0845    0.3498   27.8030 C.ar    1  UNL1        0.1577
     17 F           2.8590   -0.8176   27.2671 F       1  UNL1       -0.2026
     18 C           4.0118   -1.3671   18.7909 C.ar    1  UNL1        0.1427
     19 C           5.3532   -1.6719   18.1930 C.ar    1  UNL1        0.0384
     20 C           6.1501   -0.5802   17.5426 C.ar    1  UNL1        0.0215
     21 C           5.6055    0.8165   17.4900 C.ar    1  UNL1        0.1061
     22 C           4.2640    1.1213   18.0880 C.ar    1  UNL1        0.0259
     23 C           3.4671    0.0296   18.7384 C.ar    1  UNL1        0.0887
     24 S           6.4024    1.9082   16.8396 S.O2    1  UNL1        0.0105
     25 C           7.1992    3.0000   16.1892 C.3     1  UNL1        0.1816
     26 O           5.5073    2.9354   17.4671 O.2     1  UNL1       -0.1686
     27 O           7.2974    0.8810   16.2121 O.2     1  UNL1       -0.1686
     28 O           3.2149   -2.4589   19.4414 O.3     1  UNL1       -0.4790
     29 C           3.9620   -4.9286   19.1374 C.3     1  UNL1        0.0472
     30 C           3.9072   -3.6808   19.9681 C.3     1  UNL1        0.1661
     31 C           4.5447   -3.6550   21.3256 C.3     1  UNL1        0.0472
@<TRIPOS>BOND
     1    29    30    1
     2    30    31    1
     3    30    28    1
     4    28    18    1
     5    18    19   ar
     6    19    20   ar
     7    20    21   ar
     8    21    24    1
     9    24    25    1
    10    24    26    2
    11    24    27    2
    12    21    22   ar
    13    22    23   ar
    14    23     1    1
    15     1     2    2
    16     1     3   am
    17     3     4    1
    18     4     5    1
    19     5     6   ar
    20     6     7   ar
    21     7    11    1
    22    11    12   ar
    23    12    13   ar
    24    13    14   ar
    25    14    15   ar
    26    15    16   ar
    27    16    17    1
    28     7     8   ar
    29     8     9   ar
    30     9    10    1
    31    23    18   ar
    32    10     3    1
    33     9     5   ar
    34    16    11   ar
@<TRIPOS>MOLECULE
*****
 31 34 0 0 0
SMALL
GASTEIGER

@<TRIPOS>ATOM
      1 C           5.0665   -3.2794   19.3118 C.2     1  UNL1        0.2525
      2 O           4.5594   -4.3575   18.4005 O.2     1  UNL1       -0.2698
      3 N           4.1166   -2.2626   19.8720 N.am    1  UNL1       -0.2660
      4 C           4.4757   -1.1327   20.7909 C.3     1  UNL1        0.1236
      5 C           3.2218   -0.3690   21.0984 C.ar    1  UNL1        0.0338
      6 C           2.6688    0.8013   21.8564 C.ar    1  UNL1        0.0991
      7 N           1.1930    0.8667   21.5961 N.ar    1  UNL1       -0.2265
      8 N           0.8339   -0.2632   20.6771 N.ar    1  UNL1       -0.1679
      9 C           2.0878   -1.0269   20.3696 C.ar    1  UNL1        0.0981
     10 C           2.6408   -2.1972   19.6116 C.3     1  UNL1        0.1414
     11 C           0.2431    1.8834   22.1563 C.ar    1  UNL1        0.1102
     12 C           0.1716    2.1069   23.6378 C.ar    1  UNL1        0.0214
     13 C          -0.7783    3.1237   24.1980 C.ar    1  UNL1        0.0017
     14 C          -1.6567    3.9170   23.2767 C.ar    1  UNL1        0.0024
     15 C          -1.5852    3.6936   21.7950 C.ar    1  UNL1        0.0312
     16 C          -0.6354    2.6768   21.2349 C.ar    1  UNL1        0.1577
     17 F          -0.5639    2.4534   19.7534 F       1  UNL1       -0.2026
     18 C           7.4836   -2.5036   18.7585 C.ar    1  UNL1        0.1427
     19 C           8.9406   -2.4423   19.1096 C.ar    1  UNL1        0.0384
     20 C           9.4377   -3.0954   20.3651 C.ar    1  UNL1        0.0215
     21 C           8.4777   -3.8099   21.2696 C.ar    1  UNL1        0.1061
     22 C           7.0206   -3.8712   20.9184 C.ar    1  UNL1        0.0259
     23 C           6.5235   -3.2181   19.6629 C.ar    1  UNL1        0.0887
     24 S           8.9748   -4.4631   22.5251 S.O2    1  UNL1        0.0105
     25 C           9.4718   -5.1163   23.7805 C.3     1  UNL1        0.1816
     26 O           8.4396   -5.7817   22.0509 O.2     1  UNL1       -0.1686
     27 O           9.5099   -3.1444   22.9992 O.2     1  UNL1       -0.1686
     28 O           6.9865   -1.8504   17.5030 O.3     1  UNL1       -0.4790
     29 C           5.0691   -0.1410   17.1134 C.3     1  UNL1        0.0472
     30 C           6.4747   -0.4410   17.5428 C.3     1  UNL1        0.1661
     31 C           7.3685    0.6685   18.0120 C.3     1  UNL1        0.0472
@<TRIPOS>BOND
     1    29    30    1
     2    30    31    1
     3    30    28    1
     4    28    18    1
     5    18    19   ar
     6    19    20   ar
     7    20    21   ar
     8    21    24    1
     9    24    25    1
    10    24    26    2
    11    24    27    2
    12    21    22   ar
    13    22    23   ar
    14    23     1    1
    15     1     2    2
    16     1     3   am
    17     3     4    1
    18     4     5    1
    19     5     6   ar
    20     6     7   ar
    21     7    11    1
    22    11    12   ar
    23    12    13   ar
    24    13    14   ar
    25    14    15   ar
    26    15    16   ar
    27    16    17    1
    28     7     8   ar
    29     8     9   ar
    30     9    10    1
    31    23    18   ar
    32    10     3    1
    33     9     5   ar
    34    16    11   ar
@<TRIPOS>MOLECULE
*****
 31 34 0 0 0
SMALL
GASTEIGER

@<TRIPOS>ATOM
      1 C           5.5983    0.6099   20.5774 C.2     1  UNL1        0.2525
      2 O           6.5756    1.7360   20.4140 O.2     1  UNL1       -0.2698
      3 N           5.9632   -0.5855   21.4069 N.am    1  UNL1       -0.2660
      4 C           5.0943   -1.7817   21.6596 C.3     1  UNL1        0.1236
      5 C           5.8552   -2.7299   22.5382 C.ar    1  UNL1        0.0338
      6 C           5.7884   -4.0553   23.2374 C.ar    1  UNL1        0.0991
      7 N           7.0864   -4.2643   23.9598 N.ar    1  UNL1       -0.2265
      8 N           7.9553   -3.0680   23.7069 N.ar    1  UNL1       -0.1679
      9 C           7.1944   -2.1197   22.8284 C.ar    1  UNL1        0.0981
     10 C           7.2612   -0.7944   22.1292 C.3     1  UNL1        0.1414
     11 C           7.4513   -5.4595   24.7892 C.ar    1  UNL1        0.1102
     12 C           7.0532   -5.5196   26.2341 C.ar    1  UNL1        0.0214
     13 C           7.4181   -6.7149   27.0637 C.ar    1  UNL1        0.0017
     14 C           8.1812   -7.8502   26.4482 C.ar    1  UNL1        0.0024
     15 C           8.5793   -7.7902   25.0032 C.ar    1  UNL1        0.0312
     16 C           8.2144   -6.5949   24.1737 C.ar    1  UNL1        0.1577
     17 F           8.6125   -6.5349   22.7288 F       1  UNL1       -0.2026
     18 C           4.0819    0.1508   18.5182 C.ar    1  UNL1        0.1427
     19 C           2.7396    0.2201   17.8523 C.ar    1  UNL1        0.0384
     20 C           1.5715    0.8176   18.5793 C.ar    1  UNL1        0.0215
     21 C           1.7457    1.3458   19.9724 C.ar    1  UNL1        0.1061
     22 C           3.0880    1.2766   20.6384 C.ar    1  UNL1        0.0259
     23 C           4.2561    0.6791   19.9113 C.ar    1  UNL1        0.0887
     24 S           0.5776    1.9433   20.6994 S.O2    1  UNL1        0.0105
     25 C          -0.5905    2.5408   21.4264 C.3     1  UNL1        0.1816
     26 O          -0.1923    0.6702   20.5087 O.2     1  UNL1       -0.1686
     27 O           1.3475    3.2165   20.8900 O.2     1  UNL1       -0.1686
     28 O           5.2500   -0.4466   17.7912 O.3     1  UNL1       -0.4790
     29 C           7.1518   -2.1367   18.3172 C.3     1  UNL1        0.0472
     30 C           5.6957   -1.8434   18.1079 C.3     1  UNL1        0.1661
     31 C           4.6854   -2.9468   18.2153 C.3     1  UNL1        0.0472
@<TRIPOS>BOND
     1    29    30    1
     2    30    31    1
     3    30    28    1
     4    28    18    1
     5    18    19   ar
     6    19    20   ar
     7    20    21   ar
     8    21    24    1
     9    24    25    1
    10    24    26    2
    11    24    27    2
    12    21    22   ar
    13    22    23   ar
    14    23     1    1
    15     1     2    2
    16     1     3   am
    17     3     4    1
    18     4     5    1
    19     5     6   ar
    20     6     7   ar
    21     7    11    1
    22    11    12   ar
    23    12    13   ar
    24    13    14   ar
    25    14    15   ar
    26    15    16   ar
    27    16    17    1
    28     7     8   ar
    29     8     9   ar
    30     9    10    1
    31    23    18   ar
    32    10     3    1
    33     9     5   ar
    34    16    11   ar
@<TRIPOS>MOLECULE
*****
 31 34 0 0 0
SMALL
GASTEIGER

@<TRIPOS>ATOM
      1 C           5.1065   -0.2898   22.1447 C.2     1  UNL1        0.2525
      2 O           6.2899    0.0766   21.2990 O.2     1  UNL1       -0.2698
      3 N           5.3052   -0.7099   23.5709 N.am    1  UNL1       -0.2660
      4 C           4.2237   -1.1029   24.5332 C.3     1  UNL1        0.1236
      5 C           4.8705   -1.4466   25.8422 C.ar    1  UNL1        0.0338
      6 C           4.6018   -1.9020   27.2459 C.ar    1  UNL1        0.0991
      7 N           5.9169   -2.0028   27.9603 N.ar    1  UNL1       -0.2265
      8 N           6.9984   -1.6098   26.9980 N.ar    1  UNL1       -0.1679
      9 C           6.3517   -1.2661   25.6890 C.ar    1  UNL1        0.0981
     10 C           6.6204   -0.8107   24.2853 C.3     1  UNL1        0.1414
     11 C           6.1157   -2.4229   29.3864 C.ar    1  UNL1        0.1102
     12 C           5.7445   -1.4908   30.5015 C.ar    1  UNL1        0.0214
     13 C           5.9433   -1.9108   31.9278 C.ar    1  UNL1        0.0017
     14 C           6.5131   -3.2630   32.2389 C.ar    1  UNL1        0.0024
     15 C           6.8843   -4.1952   31.1237 C.ar    1  UNL1        0.0312
     16 C           6.6856   -3.7751   29.6976 C.ar    1  UNL1        0.1577
     17 F           7.0567   -4.7072   28.5825 F       1  UNL1       -0.2026
     18 C           3.3148   -1.2215   20.5101 C.ar    1  UNL1        0.1427
     19 C           1.9327   -1.1678   19.9297 C.ar    1  UNL1        0.0384
     20 C           0.9602   -0.1288   20.4035 C.ar    1  UNL1        0.0215
     21 C           1.3697    0.8566   21.4577 C.ar    1  UNL1        0.1061
     22 C           2.7518    0.8028   22.0381 C.ar    1  UNL1        0.0259
     23 C           3.7244   -0.2362   21.5643 C.ar    1  UNL1        0.0887
     24 S           0.3971    1.8956   21.9314 S.O2    1  UNL1        0.0105
     25 C          -0.5755    2.9347   22.4052 C.3     1  UNL1        0.1816
     26 O           1.3604    2.3079   23.0048 O.2     1  UNL1       -0.1686
     27 O          -0.5662    1.4833   20.8580 O.2     1  UNL1       -0.1686
     28 O           4.2874   -2.2606   20.0363 O.3     1  UNL1       -0.4790
     29 C           3.7689   -4.7720   19.6195 C.3     1  UNL1        0.0472
     30 C           4.1879   -3.6683   20.5447 C.3     1  UNL1        0.1661
     31 C           4.5075   -3.9721   21.9784 C.3     1  UNL1        0.0472
@<TRIPOS>BOND
     1    29    30    1
     2    30    31    1
     3    30    28    1
     4    28    18    1
     5    18    19   ar
     6    19    20   ar
     7    20    21   ar
     8    21    24    1
     9    24    25    1
    10    24    26    2
    11    24    27    2
    12    21    22   ar
    13    22    23   ar
    14    23     1    1
    15     1     2    2
    16     1     3   am
    17     3     4    1
    18     4     5    1
    19     5     6   ar
    20     6     7   ar
    21     7    11    1
    22    11    12   ar
    23    12    13   ar
    24    13    14   ar
    25    14    15   ar
    26    15    16   ar
    27    16    17    1
    28     7     8   ar
    29     8     9   ar
    30     9    10    1
    31    23    18   ar
    32    10     3    1
    33     9     5   ar
    34    16    11   ar
@<TRIPOS>MOLECULE
*****
 31 34 0 0 0
SMALL
GASTEIGER

@<TRIPOS>ATOM
      1 C           4.5664    0.2703   35.4192 C.2     1  UNL1        0.2525
      2 O           5.4461   -0.9140   35.6905 O.2     1  UNL1       -0.2698
      3 N           3.9025    0.4209   34.0825 N.am    1  UNL1       -0.2660
      4 C           3.0006    1.5453   33.6678 C.3     1  UNL1        0.1236
      5 C           2.5647    1.2928   32.2549 C.ar    1  UNL1        0.0338
      6 C           1.7379    1.8317   31.1253 C.ar    1  UNL1        0.0991
      7 N           1.8594    0.8843   29.9687 N.ar    1  UNL1       -0.2265
      8 N           2.7614   -0.2402   30.3836 N.ar    1  UNL1       -0.1679
      9 C           3.1972    0.0123   31.7965 C.ar    1  UNL1        0.0981
     10 C           4.0241   -0.5266   32.9260 C.3     1  UNL1        0.1414
     11 C           1.1956    1.0348   28.6322 C.ar    1  UNL1        0.1102
     12 C           2.0272    1.2346   27.3999 C.ar    1  UNL1        0.0214
     13 C           1.3634    1.3852   26.0632 C.ar    1  UNL1        0.0017
     14 C          -0.1321    1.3360   25.9588 C.ar    1  UNL1        0.0024
     15 C          -0.9639    1.1362   27.1911 C.ar    1  UNL1        0.0312
     16 C          -0.3000    0.9856   28.5277 C.ar    1  UNL1        0.1577
     17 F          -1.1317    0.7858   29.7599 F       1  UNL1       -0.2026
     18 C           5.3341    2.4238   36.6534 C.ar    1  UNL1        0.1427
     19 C           5.1182    3.4574   37.7188 C.ar    1  UNL1        0.0384
     20 C           3.9187    3.3712   38.6153 C.ar    1  UNL1        0.0215
     21 C           2.9350    2.2514   38.4465 C.ar    1  UNL1        0.1061
     22 C           3.1510    1.2178   37.3810 C.ar    1  UNL1        0.0259
     23 C           4.3505    1.3039   36.4845 C.ar    1  UNL1        0.0887
     24 S           1.7355    2.1653   39.3430 S.O2    1  UNL1        0.0105
     25 C           0.5360    2.0791   40.2395 C.3     1  UNL1        0.1816
     26 O           1.1537    1.0996   38.4621 O.2     1  UNL1       -0.1686
     27 O           2.3174    3.2310   40.2238 O.2     1  UNL1       -0.1686
     28 O           6.5336    2.5099   35.7569 O.3     1  UNL1       -0.4790
     29 C           7.8974    0.9861   37.3594 C.3     1  UNL1        0.0472
     30 C           7.8482    1.9445   36.2065 C.3     1  UNL1        0.1661
     31 C           9.1135    2.3375   35.5033 C.3     1  UNL1        0.0472
@<TRIPOS>BOND
     1    29    30    1
     2    30    31    1
     3    30    28    1
     4    28    18    1
     5    18    19   ar
     6    19    20   ar
     7    20    21   ar
     8    21    24    1
     9    24    25    1
    10    24    26    2
    11    24    27    2
    12    21    22   ar
    13    22    23   ar
    14    23     1    1
    15     1     2    2
    16     1     3   am
    17     3     4    1
    18     4     5    1
    19     5     6   ar
    20     6     7   ar
    21     7    11    1
    22    11    12   ar
    23    12    13   ar
    24    13    14   ar
    25    14    15   ar
    26    15    16   ar
    27    16    17    1
    28     7     8   ar
    29     8     9   ar
    30     9    10    1
    31    23    18   ar
    32    10     3    1
    33     9     5   ar
    34    16    11   ar
@<TRIPOS>MOLECULE
*****
 31 34 0 0 0
SMALL
GASTEIGER

@<TRIPOS>ATOM
      1 C           7.7822   -1.9077   28.6004 C.2     1  UNL1        0.2525
      2 O           9.2655   -1.6987   28.5221 O.2     1  UNL1       -0.2698
      3 N           6.9331   -1.7232   27.3777 N.am    1  UNL1       -0.2660
      4 C           5.4450   -1.8962   27.3033 C.3     1  UNL1        0.1236
      5 C           5.0154   -1.6132   25.8943 C.ar    1  UNL1        0.0338
      6 C           3.8301   -1.5453   24.9775 C.ar    1  UNL1        0.0991
      7 N           4.3201   -1.1554   23.6144 N.ar    1  UNL1       -0.2265
      8 N           5.8083   -0.9824   23.6888 N.ar    1  UNL1       -0.1679
      9 C           6.2380   -1.2653   25.0978 C.ar    1  UNL1        0.0981
     10 C           7.4232   -1.3333   26.0146 C.3     1  UNL1        0.1414
     11 C           3.4711   -0.9709   22.3917 C.ar    1  UNL1        0.1102
     12 C           3.7282   -1.7996   21.1681 C.ar    1  UNL1        0.0214
     13 C           2.8792   -1.6151   19.9453 C.ar    1  UNL1        0.0017
     14 C           1.7731   -0.6019   19.9462 C.ar    1  UNL1        0.0024
     15 C           1.5160    0.2268   21.1698 C.ar    1  UNL1        0.0312
     16 C           2.3650    0.0423   22.3925 C.ar    1  UNL1        0.1577
     17 F           2.1079    0.8710   23.6161 F       1  UNL1       -0.2026
     18 C           7.3786   -3.6725   30.4640 C.ar    1  UNL1        0.1427
     19 C           6.7443   -4.0659   31.7651 C.ar    1  UNL1        0.0384
     20 C           5.8794   -3.0881   32.5038 C.ar    1  UNL1        0.0215
     21 C           5.6487   -1.7168   31.9414 C.ar    1  UNL1        0.1061
     22 C           6.2830   -1.3234   30.6402 C.ar    1  UNL1        0.0259
     23 C           7.1479   -2.3012   29.9015 C.ar    1  UNL1        0.0887
     24 S           4.7838   -0.7389   32.6801 S.O2    1  UNL1        0.0105
     25 C           3.9188    0.2389   33.4189 C.3     1  UNL1        0.1816
     26 O           5.9556    0.1855   32.8285 O.2     1  UNL1       -0.1686
     27 O           3.6119   -1.6635   32.5317 O.2     1  UNL1       -0.1686
     28 O           8.2435   -4.6503   29.7252 O.3     1  UNL1       -0.4790
     29 C           6.2459   -5.3777   28.2318 C.3     1  UNL1        0.0472
     30 C           7.6244   -5.6257   28.7685 C.3     1  UNL1        0.1661
     31 C           8.3839   -6.8491   28.3485 C.3     1  UNL1        0.0472
@<TRIPOS>BOND
     1    29    30    1
     2    30    31    1
     3    30    28    1
     4    28    18    1
     5    18    19   ar
     6    19    20   ar
     7    20    21   ar
     8    21    24    1
     9    24    25    1
    10    24    26    2
    11    24    27    2
    12    21    22   ar
    13    22    23   ar
    14    23     1    1
    15     1     2    2
    16     1     3   am
    17     3     4    1
    18     4     5    1
    19     5     6   ar
    20     6     7   ar
    21     7    11    1
    22    11    12   ar
    23    12    13   ar
    24    13    14   ar
    25    14    15   ar
    26    15    16   ar
    27    16    17    1
    28     7     8   ar
    29     8     9   ar
    30     9    10    1
    31    23    18   ar
    32    10     3    1
    33     9     5   ar
    34    16    11   ar
