@<TRIPOS>MOLECULE
*****
 17 19 0 0 0
SMALL
GASTEIGER

@<TRIPOS>ATOM
      1 C          -9.2135  -16.5754   21.8116 C.2     1  UNL1        0.2149
      2 N         -10.1753  -15.7533   21.0060 N.2     1  UNL1       -0.2130
      3 C         -11.5156  -16.3156   20.6358 C.2     1  UNL1        0.1030
      4 C         -11.8943  -17.7003   21.0713 C.2     1  UNL1        0.0362
      5 C         -10.9325  -18.5224   21.8769 C.2     1  UNL1        0.0732
      6 N         -11.0266  -19.9079   22.4440 N.2     1  UNL1       -0.2476
      7 C          -9.7442  -20.2017   23.1646 C.2     1  UNL1        0.0948
      8 C          -8.8577  -18.9979   23.0429 C.2     1  UNL1        0.0093
      9 C          -9.5921  -17.9600   22.2470 C.3     1  UNL1        0.1400
     10 O          -7.8731  -16.0130   22.1817 O.3     1  UNL1       -0.4392
     11 F          -6.4701  -15.1523   27.9515 F       1  UNL1       -0.2042
     12 C          -6.8209  -15.3675   26.5090 C.ar    1  UNL1        0.1403
     13 C          -8.2591  -15.4428   26.0901 C.ar    1  UNL1        0.0328
     14 C          -8.6100  -15.6580   24.6476 C.ar    1  UNL1        0.0398
     15 C          -7.5223  -15.7978   23.6241 C.ar    1  UNL1        0.1470
     16 C          -6.0840  -15.7225   24.0430 C.ar    1  UNL1        0.0398
     17 C          -5.7332  -15.5073   25.4855 C.ar    1  UNL1        0.0328
@<TRIPOS>BOND
     1    11    12    1
     2    12    13   ar
     3    13    14   ar
     4    14    15   ar
     5    15    10    1
     6    10     1    1
     7     1     2    2
     8     2     3    1
     9     3     4    2
    10     4     5    1
    11     5     6    2
    12     6     7    1
    13     7     8    2
    14     8     9    1
    15    15    16   ar
    16    16    17   ar
    17    17    12   ar
    18     9     1    1
    19     9     5    1
@<TRIPOS>MOLECULE
*****
 17 19 0 0 0
SMALL
GASTEIGER

@<TRIPOS>ATOM
      1 C          -8.6647  -16.9010   21.5906 C.2     1  UNL1        0.2149
      2 N          -7.8404  -18.0840   21.1770 N.2     1  UNL1       -0.2130
      3 C          -8.5094  -19.3091   20.6280 C.2     1  UNL1        0.1030
      4 C         -10.0027  -19.3514   20.4927 C.2     1  UNL1        0.0362
      5 C         -10.8270  -18.1684   20.9064 C.2     1  UNL1        0.0732
      6 N         -12.3063  -17.9206   20.8895 N.2     1  UNL1       -0.2476
      7 C         -12.5515  -16.5423   21.4281 C.2     1  UNL1        0.0948
      8 C         -11.2238  -15.9382   21.7778 C.2     1  UNL1        0.0093
      9 C         -10.1579  -16.9432   21.4553 C.3     1  UNL1        0.1400
     10 O          -7.9956  -15.6758   22.1396 O.3     1  UNL1       -0.4392
     11 F          -6.5036  -15.4189   27.9454 F       1  UNL1       -0.2042
     12 C          -6.8766  -15.4832   26.4939 C.ar    1  UNL1        0.1403
     13 C          -8.3108  -15.6686   26.0957 C.ar    1  UNL1        0.0328
     14 C          -8.6838  -15.7328   24.6441 C.ar    1  UNL1        0.0398
     15 C          -7.6226  -15.6116   23.5910 C.ar    1  UNL1        0.1470
     16 C          -6.1883  -15.4262   23.9893 C.ar    1  UNL1        0.0398
     17 C          -5.8154  -15.3620   25.4407 C.ar    1  UNL1        0.0328
@<TRIPOS>BOND
     1    11    12    1
     2    12    13   ar
     3    13    14   ar
     4    14    15   ar
     5    15    10    1
     6    10     1    1
     7     1     2    2
     8     2     3    1
     9     3     4    2
    10     4     5    1
    11     5     6    2
    12     6     7    1
    13     7     8    2
    14     8     9    1
    15    15    16   ar
    16    16    17   ar
    17    17    12   ar
    18     9     1    1
    19     9     5    1
@<TRIPOS>MOLECULE
*****
 17 19 0 0 0
SMALL
GASTEIGER

@<TRIPOS>ATOM
      1 C          -7.6912  -18.7966   22.2383 C.2     1  UNL1        0.2149
      2 N          -7.4540  -17.4061   21.7282 N.2     1  UNL1       -0.2130
      3 C          -8.3592  -16.2875   22.1513 C.2     1  UNL1        0.1030
      4 C          -9.5018  -16.5593   23.0846 C.2     1  UNL1        0.0362
      5 C          -9.7389  -17.9498   23.5947 C.2     1  UNL1        0.0732
      6 N         -10.7762  -18.5168   24.5179 N.2     1  UNL1       -0.2476
      7 C         -10.5120  -19.9860   24.6654 C.2     1  UNL1        0.0948
      8 C          -9.3114  -20.3269   23.8333 C.2     1  UNL1        0.0093
      9 C          -8.8336  -19.0685   23.1715 C.3     1  UNL1        0.1400
     10 O          -6.7859  -19.9153   21.8152 O.3     1  UNL1       -0.4392
     11 F          -1.1065  -18.7559   20.2656 F       1  UNL1       -0.2042
     12 C          -2.5264  -19.0457   20.6531 C.ar    1  UNL1        0.1403
     13 C          -2.9422  -18.9667   22.0920 C.ar    1  UNL1        0.0328
     14 C          -4.3621  -19.2566   22.4795 C.ar    1  UNL1        0.0398
     15 C          -5.3660  -19.6254   21.4278 C.ar    1  UNL1        0.1470
     16 C          -4.9503  -19.7045   19.9887 C.ar    1  UNL1        0.0398
     17 C          -3.5304  -19.4146   19.6014 C.ar    1  UNL1        0.0328
@<TRIPOS>BOND
     1    11    12    1
     2    12    13   ar
     3    13    14   ar
     4    14    15   ar
     5    15    10    1
     6    10     1    1
     7     1     2    2
     8     2     3    1
     9     3     4    2
    10     4     5    1
    11     5     6    2
    12     6     7    1
    13     7     8    2
    14     8     9    1
    15    15    16   ar
    16    16    17   ar
    17    17    12   ar
    18     9     1    1
    19     9     5    1
@<TRIPOS>MOLECULE
*****
 17 19 0 0 0
SMALL
GASTEIGER

@<TRIPOS>ATOM
      1 C         -10.4078  -17.4157   23.3224 C.2     1  UNL1        0.2149
      2 N         -10.2401  -18.8183   23.8268 N.2     1  UNL1       -0.2130
      3 C         -10.4878  -19.9795   22.9104 C.2     1  UNL1        0.1030
      4 C         -10.9033  -19.7383   21.4894 C.2     1  UNL1        0.0362
      5 C         -11.0711  -18.3356   20.9849 C.2     1  UNL1        0.0732
      6 N         -11.4679  -17.7919   19.6445 N.2     1  UNL1       -0.2476
      7 C         -11.4654  -16.2945   19.7326 C.2     1  UNL1        0.0948
      8 C         -11.0670  -15.9128   21.1274 C.2     1  UNL1        0.0093
      9 C         -10.8233  -17.1743   21.9015 C.3     1  UNL1        0.1400
     10 O         -10.1601  -16.2544   24.2389 O.3     1  UNL1       -0.4392
     11 F          -4.5883  -15.0405   26.1049 F       1  UNL1       -0.2042
     12 C          -5.9813  -15.3440   25.6383 C.ar    1  UNL1        0.1403
     13 C          -6.2737  -15.4533   24.1713 C.ar    1  UNL1        0.0328
     14 C          -7.6667  -15.7568   23.7047 C.ar    1  UNL1        0.0398
     15 C          -8.7671  -15.9509   24.7054 C.ar    1  UNL1        0.1470
     16 C          -8.4747  -15.8416   26.1726 C.ar    1  UNL1        0.0398
     17 C          -7.0818  -15.5381   26.6390 C.ar    1  UNL1        0.0328
@<TRIPOS>BOND
     1    11    12    1
     2    12    13   ar
     3    13    14   ar
     4    14    15   ar
     5    15    10    1
     6    10     1    1
     7     1     2    2
     8     2     3    1
     9     3     4    2
    10     4     5    1
    11     5     6    2
    12     6     7    1
    13     7     8    2
    14     8     9    1
    15    15    16   ar
    16    16    17   ar
    17    17    12   ar
    18     9     1    1
    19     9     5    1
@<TRIPOS>MOLECULE
*****
 17 19 0 0 0
SMALL
GASTEIGER

@<TRIPOS>ATOM
      1 C          -9.2154  -19.3963   22.0513 C.2     1  UNL1        0.2149
      2 N          -8.8082  -20.1456   23.2852 N.2     1  UNL1       -0.2130
      3 C          -9.7303  -20.2021   24.4669 C.2     1  UNL1        0.1030
      4 C         -11.0597  -19.5093   24.4147 C.2     1  UNL1        0.0362
      5 C         -11.4669  -18.7600   23.1808 C.2     1  UNL1        0.0732
      6 N         -12.7055  -17.9856   22.8397 N.2     1  UNL1       -0.2476
      7 C         -12.5488  -17.4504   21.4472 C.2     1  UNL1        0.0948
      8 C         -11.2134  -17.8941   20.9277 C.2     1  UNL1        0.0093
      9 C         -10.5448  -18.7034   21.9991 C.3     1  UNL1        0.1400
     10 O          -8.2932  -19.3397   20.8696 O.3     1  UNL1       -0.4392
     11 F          -2.3705  -19.8884   21.6572 F       1  UNL1       -0.2042
     12 C          -3.8512  -19.7513   21.4603 C.ar    1  UNL1        0.1403
     13 C          -4.5436  -20.5509   20.3968 C.ar    1  UNL1        0.0328
     14 C          -6.0243  -20.4137   20.1998 C.ar    1  UNL1        0.0398
     15 C          -6.8125  -19.4769   21.0665 C.ar    1  UNL1        0.1470
     16 C          -6.1201  -18.6772   22.1301 C.ar    1  UNL1        0.0398
     17 C          -4.6395  -18.8144   22.3270 C.ar    1  UNL1        0.0328
@<TRIPOS>BOND
     1    11    12    1
     2    12    13   ar
     3    13    14   ar
     4    14    15   ar
     5    15    10    1
     6    10     1    1
     7     1     2    2
     8     2     3    1
     9     3     4    2
    10     4     5    1
    11     5     6    2
    12     6     7    1
    13     7     8    2
    14     8     9    1
    15    15    16   ar
    16    16    17   ar
    17    17    12   ar
    18     9     1    1
    19     9     5    1
@<TRIPOS>MOLECULE
*****
 17 19 0 0 0
SMALL
GASTEIGER

@<TRIPOS>ATOM
      1 C          -7.0556  -18.5451   21.8380 C.2     1  UNL1        0.2149
      2 N          -6.5995  -17.4592   22.7668 N.2     1  UNL1       -0.2130
      3 C          -7.5276  -16.3348   23.1191 C.2     1  UNL1        0.1030
      4 C          -8.9119  -16.2962   22.5425 C.2     1  UNL1        0.0362
      5 C          -9.3679  -17.3820   21.6137 C.2     1  UNL1        0.0732
      6 N         -10.6652  -17.6096   20.8959 N.2     1  UNL1       -0.2476
      7 C         -10.5389  -18.8747   20.1000 C.2     1  UNL1        0.0948
      8 C          -9.1635  -19.4291   20.3259 C.2     1  UNL1        0.0093
      9 C          -8.4398  -18.5065   21.2614 C.3     1  UNL1        0.1400
     10 O          -6.1274  -19.6696   21.4857 O.3     1  UNL1       -0.4392
     11 F          -0.4428  -18.5020   19.9617 F       1  UNL1       -0.2042
     12 C          -1.8640  -18.7939   20.3427 C.ar    1  UNL1        0.1403
     13 C          -2.2056  -19.1291   21.7642 C.ar    1  UNL1        0.0328
     14 C          -3.6268  -19.4210   22.1453 C.ar    1  UNL1        0.0398
     15 C          -4.7063  -19.3777   21.1047 C.ar    1  UNL1        0.1470
     16 C          -4.3647  -19.0425   19.6831 C.ar    1  UNL1        0.0398
     17 C          -2.9436  -18.7506   19.3021 C.ar    1  UNL1        0.0328
@<TRIPOS>BOND
     1    11    12    1
     2    12    13   ar
     3    13    14   ar
     4    14    15   ar
     5    15    10    1
     6    10     1    1
     7     1     2    2
     8     2     3    1
     9     3     4    2
    10     4     5    1
    11     5     6    2
    12     6     7    1
    13     7     8    2
    14     8     9    1
    15    15    16   ar
    16    16    17   ar
    17    17    12   ar
    18     9     1    1
    19     9     5    1
@<TRIPOS>MOLECULE
*****
 17 19 0 0 0
SMALL
GASTEIGER

@<TRIPOS>ATOM
      1 C          -7.0274  -17.8906   22.3787 C.2     1  UNL1        0.2149
      2 N          -5.7716  -18.6631   22.1027 N.2     1  UNL1       -0.2130
      3 C          -4.4725  -18.2249   22.7111 C.2     1  UNL1        0.1030
      4 C          -4.4291  -17.0141   23.5955 C.2     1  UNL1        0.0362
      5 C          -5.6849  -16.2416   23.8715 C.2     1  UNL1        0.0732
      6 N          -5.9491  -15.0171   24.6967 N.2     1  UNL1       -0.2476
      7 C          -7.4116  -14.6986   24.5983 C.2     1  UNL1        0.0948
      8 C          -8.0512  -15.7262   23.7123 C.2     1  UNL1        0.0093
      9 C          -6.9840  -16.6798   23.2631 C.3     1  UNL1        0.1400
     10 O          -8.3265  -18.3288   21.7703 O.3     1  UNL1       -0.4392
     11 F         -13.2574  -18.6982   25.1689 F       1  UNL1       -0.2042
     12 C         -12.0246  -18.6059   24.3192 C.ar    1  UNL1        0.1403
     13 C         -10.8151  -19.4242   24.6612 C.ar    1  UNL1        0.0328
     14 C          -9.5823  -19.3319   23.8116 C.ar    1  UNL1        0.0398
     15 C          -9.5592  -18.4212   22.6199 C.ar    1  UNL1        0.1470
     16 C         -10.7689  -17.6027   22.2779 C.ar    1  UNL1        0.0398
     17 C         -12.0016  -17.6951   23.1275 C.ar    1  UNL1        0.0328
@<TRIPOS>BOND
     1    11    12    1
     2    12    13   ar
     3    13    14   ar
     4    14    15   ar
     5    15    10    1
     6    10     1    1
     7     1     2    2
     8     2     3    1
     9     3     4    2
    10     4     5    1
    11     5     6    2
    12     6     7    1
    13     7     8    2
    14     8     9    1
    15    15    16   ar
    16    16    17   ar
    17    17    12   ar
    18     9     1    1
    19     9     5    1
@<TRIPOS>MOLECULE
*****
 17 19 0 0 0
SMALL
GASTEIGER

@<TRIPOS>ATOM
      1 C          -7.8274  -17.9200   22.0127 C.2     1  UNL1        0.2149
      2 N          -6.3789  -18.1046   22.3559 N.2     1  UNL1       -0.2130
      3 C          -5.5386  -19.0665   21.5696 C.2     1  UNL1        0.1030
      4 C          -6.1467  -19.8439   20.4399 C.2     1  UNL1        0.0362
      5 C          -7.5952  -19.6593   20.0968 C.2     1  UNL1        0.0732
      6 N          -8.4647  -20.2821   19.0451 N.2     1  UNL1       -0.2476
      7 C          -9.8425  -19.7050   19.1815 C.2     1  UNL1        0.0948
      8 C          -9.8245  -18.7256   20.3175 C.2     1  UNL1        0.0093
      9 C          -8.4355  -18.6973   20.8832 C.3     1  UNL1        0.1400
     10 O          -8.6678  -16.9580   22.7991 O.3     1  UNL1       -0.4392
     11 F         -14.3793  -18.2982   24.0573 F       1  UNL1       -0.2042
     12 C         -12.9514  -17.9631   23.7427 C.ar    1  UNL1        0.1403
     13 C         -12.6339  -16.8188   22.8266 C.ar    1  UNL1        0.0328
     14 C         -11.2060  -16.4837   22.5120 C.ar    1  UNL1        0.0398
     15 C         -10.0957  -17.2931   23.1137 C.ar    1  UNL1        0.1470
     16 C         -10.4131  -18.4375   24.0299 C.ar    1  UNL1        0.0398
     17 C         -11.8410  -18.7725   24.3445 C.ar    1  UNL1        0.0328
@<TRIPOS>BOND
     1    11    12    1
     2    12    13   ar
     3    13    14   ar
     4    14    15   ar
     5    15    10    1
     6    10     1    1
     7     1     2    2
     8     2     3    1
     9     3     4    2
    10     4     5    1
    11     5     6    2
    12     6     7    1
    13     7     8    2
    14     8     9    1
    15    15    16   ar
    16    16    17   ar
    17    17    12   ar
    18     9     1    1
    19     9     5    1
@<TRIPOS>MOLECULE
*****
 17 19 0 0 0
SMALL
GASTEIGER

@<TRIPOS>ATOM
      1 C          -5.7043  -17.3914   23.0952 C.2     1  UNL1        0.2149
      2 N          -5.9770  -16.0531   23.7154 N.2     1  UNL1       -0.2130
      3 C          -7.2840  -15.3619   23.4630 C.2     1  UNL1        0.1030
      4 C          -8.3185  -16.0089   22.5904 C.2     1  UNL1        0.0362
      5 C          -8.0457  -17.3472   21.9702 C.2     1  UNL1        0.0732
      6 N          -8.8679  -18.2237   21.0726 N.2     1  UNL1       -0.2476
      7 C          -8.0689  -19.4567   20.7703 C.2     1  UNL1        0.0948
      8 C          -6.7529  -19.3422   21.4810 C.2     1  UNL1        0.0093
      9 C          -6.7386  -18.0384   22.2227 C.3     1  UNL1        0.1400
     10 O          -4.3971  -18.0826   23.3477 O.3     1  UNL1       -0.4392
     11 F          -0.0253  -17.8233   19.2464 F       1  UNL1       -0.2042
     12 C          -1.1183  -17.8882   20.2718 C.ar    1  UNL1        0.1403
     13 C          -1.8557  -19.1739   20.5016 C.ar    1  UNL1        0.0328
     14 C          -2.9488  -19.2388   21.5269 C.ar    1  UNL1        0.0398
     15 C          -3.3042  -18.0178   22.3224 C.ar    1  UNL1        0.1470
     16 C          -2.5667  -16.7319   22.0926 C.ar    1  UNL1        0.0398
     17 C          -1.4738  -16.6671   21.0673 C.ar    1  UNL1        0.0328
@<TRIPOS>BOND
     1    11    12    1
     2    12    13   ar
     3    13    14   ar
     4    14    15   ar
     5    15    10    1
     6    10     1    1
     7     1     2    2
     8     2     3    1
     9     3     4    2
    10     4     5    1
    11     5     6    2
    12     6     7    1
    13     7     8    2
    14     8     9    1
    15    15    16   ar
    16    16    17   ar
    17    17    12   ar
    18     9     1    1
    19     9     5    1
