@<TRIPOS>MOLECULE
*****
 29 32 0 0 0
SMALL
GASTEIGER

@<TRIPOS>ATOM
      1 O          -5.5274  -20.4847   22.0181 O.3     1  UNL1       -0.4689
      2 C          -4.4947  -19.4110   22.1931 C.ar    1  UNL1        0.1422
      3 C          -3.0685  -19.6725   21.8088 C.ar    1  UNL1        0.0371
      4 C          -2.0357  -18.5988   21.9838 C.ar    1  UNL1        0.0062
      5 C          -2.4291  -17.2637   22.5431 C.ar    1  UNL1        0.0371
      6 C          -3.8554  -17.0023   22.9274 C.ar    1  UNL1        0.1416
      7 C          -4.8881  -18.0760   22.7524 C.ar    1  UNL1        0.0738
      8 O          -4.2488  -15.6672   23.4867 O.3     1  UNL1       -0.4754
      9 C          -5.6903  -15.2524   23.4939 C.3     1  UNL1        0.2054
     10 C          -6.4952  -15.3593   24.7552 C.3     1  UNL1        0.0487
     11 C          -5.8123  -15.2895   26.0888 C.3     1  UNL1        0.0359
     12 C          -6.6171  -15.3965   27.3501 C.3     1  UNL1        0.1423
     13 O          -8.1049  -15.5732   27.2777 O.3     1  UNL1       -0.3538
     14 C          -8.7879  -15.6429   25.9440 C.3     1  UNL1        0.1423
     15 C          -7.9830  -15.5360   24.6827 C.3     1  UNL1        0.0359
     16 C          -6.5581  -20.3646   20.9349 C.3     1  UNL1        0.2506
     17 C          -8.3941  -19.4952   18.7274 C.3     1  UNL1        0.0358
     18 C          -8.8480  -19.4170   20.1549 C.2     1  UNL1        0.0342
     19 C          -7.9300  -19.8516   21.2587 C.2     1  UNL1        0.1013
     20 N          -8.3839  -19.7734   22.6862 N.2     1  UNL1       -0.2501
     21 C          -9.7558  -19.2604   23.0100 C.2     1  UNL1        0.0663
     22 C         -10.2097  -19.1822   24.4375 C.3     1  UNL1        0.0742
     23 C         -11.5816  -18.6692   24.7613 C.2     1  UNL1        0.0098
     24 C         -12.4996  -18.2346   23.6575 C.2     1  UNL1        0.1364
     25 F         -13.8715  -17.7216   23.9813 F       1  UNL1       -0.2045
     26 C         -12.0457  -18.3128   22.2300 C.2     1  UNL1        0.0337
     27 C         -10.6738  -18.8258   21.9062 C.2     1  UNL1        0.0547
     28 C         -10.2199  -18.9040   20.4787 C.2     1  UNL1        0.1941
     29 O         -11.1379  -18.4694   19.3749 O.2     1  UNL1       -0.2868
@<TRIPOS>BOND
     1    17    18    1
     2    18    19    2
     3    19    16    1
     4    16     1    1
     5     1     2    1
     6     2     3   ar
     7     3     4   ar
     8     4     5   ar
     9     5     6   ar
    10     6     8    1
    11     8     9    1
    12     9    10    1
    13    10    11    1
    14    11    12    1
    15    12    13    1
    16    13    14    1
    17    14    15    1
    18     6     7   ar
    19    19    20    1
    20    20    21    2
    21    21    22    1
    22    22    23    1
    23    23    24    2
    24    24    25    1
    25    24    26    1
    26    26    27    2
    27    27    28    1
    28    28    29    2
    29    28    18    1
    30     7     2   ar
    31    27    21    1
    32    15    10    1
@<TRIPOS>MOLECULE
*****
 29 32 0 0 0
SMALL
GASTEIGER

@<TRIPOS>ATOM
      1 O          -5.5906  -20.1638   20.8361 O.3     1  UNL1       -0.4689
      2 C          -4.5464  -19.2852   21.4588 C.ar    1  UNL1        0.1422
      3 C          -3.0983  -19.6678   21.3767 C.ar    1  UNL1        0.0371
      4 C          -2.0540  -18.7892   21.9994 C.ar    1  UNL1        0.0062
      5 C          -2.4578  -17.5282   22.7041 C.ar    1  UNL1        0.0371
      6 C          -3.9060  -17.1457   22.7862 C.ar    1  UNL1        0.1416
      7 C          -4.9502  -18.0242   22.1635 C.ar    1  UNL1        0.0738
      8 O          -4.3098  -15.8846   23.4909 O.3     1  UNL1       -0.4754
      9 C          -4.6778  -15.9227   24.9446 C.3     1  UNL1        0.2054
     10 C          -6.1051  -15.7269   25.3623 C.3     1  UNL1        0.0487
     11 C          -7.1856  -15.6450   24.3252 C.3     1  UNL1        0.0359
     12 C          -8.6129  -15.4491   24.7429 C.3     1  UNL1        0.1423
     13 O          -8.9596  -15.3351   26.1978 O.3     1  UNL1       -0.3538
     14 C          -7.8791  -15.4170   27.2350 C.3     1  UNL1        0.1423
     15 C          -6.4518  -15.6129   26.8173 C.3     1  UNL1        0.0359
     16 C          -6.8244  -19.5546   20.2390 C.3     1  UNL1        0.2506
     17 C          -7.0498  -20.9176   22.9020 C.3     1  UNL1        0.0358
     18 C          -8.1566  -20.0278   22.4188 C.2     1  UNL1        0.0342
     19 C          -8.0439  -19.3463   21.0873 C.2     1  UNL1        0.1013
     20 N          -9.1506  -18.4566   20.6042 N.2     1  UNL1       -0.2501
     21 C         -10.3701  -18.2483   21.4525 C.2     1  UNL1        0.0663
     22 C         -11.4768  -17.3585   20.9693 C.3     1  UNL1        0.0742
     23 C         -12.6962  -17.1503   21.8176 C.2     1  UNL1        0.0098
     24 C         -12.8089  -17.8319   23.1491 C.2     1  UNL1        0.1364
     25 F         -14.0284  -17.6236   23.9974 F       1  UNL1       -0.2045
     26 C         -11.7022  -18.7216   23.6323 C.2     1  UNL1        0.0337
     27 C         -10.4828  -18.9298   22.7840 C.2     1  UNL1        0.0547
     28 C          -9.3760  -19.8196   23.2671 C.2     1  UNL1        0.1941
     29 O          -9.4887  -20.5011   24.5986 O.2     1  UNL1       -0.2868
@<TRIPOS>BOND
     1    17    18    1
     2    18    19    2
     3    19    16    1
     4    16     1    1
     5     1     2    1
     6     2     3   ar
     7     3     4   ar
     8     4     5   ar
     9     5     6   ar
    10     6     8    1
    11     8     9    1
    12     9    10    1
    13    10    11    1
    14    11    12    1
    15    12    13    1
    16    13    14    1
    17    14    15    1
    18     6     7   ar
    19    19    20    1
    20    20    21    2
    21    21    22    1
    22    22    23    1
    23    23    24    2
    24    24    25    1
    25    24    26    1
    26    26    27    2
    27    27    28    1
    28    28    29    2
    29    28    18    1
    30     7     2   ar
    31    27    21    1
    32    15    10    1
@<TRIPOS>MOLECULE
*****
 29 32 0 0 0
SMALL
GASTEIGER

@<TRIPOS>ATOM
      1 O         -11.9390   -7.8353   16.3800 O.3     1  UNL1       -0.4689
      2 C         -11.0036   -7.2468   17.3942 C.ar    1  UNL1        0.1422
      3 C         -10.0668   -8.1368   18.1559 C.ar    1  UNL1        0.0371
      4 C          -9.1313   -7.5483   19.1701 C.ar    1  UNL1        0.0062
      5 C          -9.1328   -6.0697   19.4227 C.ar    1  UNL1        0.0371
      6 C         -10.0697   -5.1796   18.6610 C.ar    1  UNL1        0.1416
      7 C         -11.0051   -5.7682   17.6468 C.ar    1  UNL1        0.0738
      8 O         -10.0711   -3.7011   18.9135 O.3     1  UNL1       -0.4754
      9 C         -11.0423   -2.8173   18.1884 C.3     1  UNL1        0.2054
     10 C         -12.3653   -2.4858   18.8127 C.3     1  UNL1        0.0487
     11 C         -12.9035   -3.3357   19.9253 C.3     1  UNL1        0.0359
     12 C         -14.2265   -3.0043   20.5497 C.3     1  UNL1        0.1423
     13 O         -15.0112   -1.8229   20.0615 O.3     1  UNL1       -0.3538
     14 C         -14.4730   -0.9728   18.9489 C.3     1  UNL1        0.1423
     15 C         -13.1500   -1.3043   18.3245 C.3     1  UNL1        0.0359
     16 C         -13.1787   -7.0906   15.9820 C.3     1  UNL1        0.2506
     17 C         -14.4371   -4.4578   16.6784 C.3     1  UNL1        0.0358
     18 C         -14.9855   -5.7279   17.2583 C.2     1  UNL1        0.0342
     19 C         -14.3563   -7.0443   16.9101 C.2     1  UNL1        0.1013
     20 N         -14.9047   -8.3144   17.4899 N.2     1  UNL1       -0.2501
     21 C         -16.0823   -8.2681   18.4179 C.2     1  UNL1        0.0663
     22 C         -16.6306   -9.5381   18.9977 C.3     1  UNL1        0.0742
     23 C         -17.8081   -9.4918   19.9257 C.2     1  UNL1        0.0098
     24 C         -18.4373   -8.1754   20.2739 C.2     1  UNL1        0.1364
     25 F         -19.6149   -8.1291   21.2020 F       1  UNL1       -0.2045
     26 C         -17.8890   -6.9054   19.6942 C.2     1  UNL1        0.0337
     27 C         -16.7114   -6.9517   18.7661 C.2     1  UNL1        0.0547
     28 C         -16.1630   -5.6816   18.1863 C.2     1  UNL1        0.1941
     29 O         -16.7922   -4.3652   18.5345 O.2     1  UNL1       -0.2868
@<TRIPOS>BOND
     1    17    18    1
     2    18    19    2
     3    19    16    1
     4    16     1    1
     5     1     2    1
     6     2     3   ar
     7     3     4   ar
     8     4     5   ar
     9     5     6   ar
    10     6     8    1
    11     8     9    1
    12     9    10    1
    13    10    11    1
    14    11    12    1
    15    12    13    1
    16    13    14    1
    17    14    15    1
    18     6     7   ar
    19    19    20    1
    20    20    21    2
    21    21    22    1
    22    22    23    1
    23    23    24    2
    24    24    25    1
    25    24    26    1
    26    26    27    2
    27    27    28    1
    28    28    29    2
    29    28    18    1
    30     7     2   ar
    31    27    21    1
    32    15    10    1
@<TRIPOS>MOLECULE
*****
 29 32 0 0 0
SMALL
GASTEIGER

@<TRIPOS>ATOM
      1 O         -12.1112   -7.9491   16.5221 O.3     1  UNL1       -0.4689
      2 C         -11.2711   -7.0126   17.3389 C.ar    1  UNL1        0.1422
      3 C         -10.3151   -7.5579   18.3580 C.ar    1  UNL1        0.0371
      4 C          -9.4749   -6.6214   19.1749 C.ar    1  UNL1        0.0062
      5 C          -9.5909   -5.1396   18.9726 C.ar    1  UNL1        0.0371
      6 C         -10.5470   -4.5944   17.9534 C.ar    1  UNL1        0.1416
      7 C         -11.3871   -5.5309   17.1366 C.ar    1  UNL1        0.0738
      8 O         -10.6630   -3.1126   17.7511 O.3     1  UNL1       -0.4754
      9 C         -11.9527   -2.5207   17.2650 C.3     1  UNL1        0.2054
     10 C         -13.0283   -2.1582   18.2456 C.3     1  UNL1        0.0487
     11 C         -13.8155   -0.8946   18.0623 C.3     1  UNL1        0.0359
     12 C         -14.8911   -0.5321   19.0430 C.3     1  UNL1        0.1423
     13 O         -15.1794   -1.4331   20.2070 O.3     1  UNL1       -0.3538
     14 C         -14.3922   -2.6968   20.3904 C.3     1  UNL1        0.1423
     15 C         -13.3166   -3.0593   19.4097 C.3     1  UNL1        0.0359
     16 C         -13.4341   -7.4928   15.9822 C.3     1  UNL1        0.2506
     17 C         -14.5046   -9.1804   18.2195 C.3     1  UNL1        0.0358
     18 C         -15.0069   -7.7797   18.0301 C.2     1  UNL1        0.0342
     19 C         -14.4717   -6.9359   16.9114 C.2     1  UNL1        0.1013
     20 N         -14.9739   -5.5353   16.7220 N.2     1  UNL1       -0.2501
     21 C         -16.0115   -4.9784   17.6513 C.2     1  UNL1        0.0663
     22 C         -16.5137   -3.5778   17.4618 C.3     1  UNL1        0.0742
     23 C         -17.5512   -3.0210   18.3911 C.2     1  UNL1        0.0098
     24 C         -18.0865   -3.8648   19.5097 C.2     1  UNL1        0.1364
     25 F         -19.1240   -3.3080   20.4390 F       1  UNL1       -0.2045
     26 C         -17.5842   -5.2654   19.6992 C.2     1  UNL1        0.0337
     27 C         -16.5467   -5.8222   18.7699 C.2     1  UNL1        0.0547
     28 C         -16.0444   -7.2229   18.9594 C.2     1  UNL1        0.1941
     29 O         -16.5797   -8.0668   20.0780 O.2     1  UNL1       -0.2868
@<TRIPOS>BOND
     1    17    18    1
     2    18    19    2
     3    19    16    1
     4    16     1    1
     5     1     2    1
     6     2     3   ar
     7     3     4   ar
     8     4     5   ar
     9     5     6   ar
    10     6     8    1
    11     8     9    1
    12     9    10    1
    13    10    11    1
    14    11    12    1
    15    12    13    1
    16    13    14    1
    17    14    15    1
    18     6     7   ar
    19    19    20    1
    20    20    21    2
    21    21    22    1
    22    22    23    1
    23    23    24    2
    24    24    25    1
    25    24    26    1
    26    26    27    2
    27    27    28    1
    28    28    29    2
    29    28    18    1
    30     7     2   ar
    31    27    21    1
    32    15    10    1
@<TRIPOS>MOLECULE
*****
 29 32 0 0 0
SMALL
GASTEIGER

@<TRIPOS>ATOM
      1 O         -11.3949   -3.3702   18.9962 O.3     1  UNL1       -0.4689
      2 C         -11.0847   -4.8257   18.8089 C.ar    1  UNL1        0.1422
      3 C          -9.7309   -5.3572   19.1758 C.ar    1  UNL1        0.0371
      4 C          -9.4206   -6.8128   18.9885 C.ar    1  UNL1        0.0062
      5 C         -10.4642   -7.7369   18.4344 C.ar    1  UNL1        0.0371
      6 C         -11.8181   -7.2053   18.0675 C.ar    1  UNL1        0.1416
      7 C         -12.1283   -5.7498   18.2548 C.ar    1  UNL1        0.0738
      8 O         -12.8616   -8.1294   17.5134 O.3     1  UNL1       -0.4754
      9 C         -14.3004   -7.7059   17.4867 C.3     1  UNL1        0.2054
     10 C         -15.3297   -8.4991   18.2359 C.3     1  UNL1        0.0487
     11 C         -15.6563   -9.8988   17.8068 C.3     1  UNL1        0.0359
     12 C         -16.6856  -10.6921   18.5560 C.3     1  UNL1        0.1423
     13 O         -17.3883  -10.0857   19.7343 O.3     1  UNL1       -0.3538
     14 C         -17.0617   -8.6859   20.1634 C.3     1  UNL1        0.1423
     15 C         -16.0324   -7.8926   19.4142 C.3     1  UNL1        0.0359
     16 C         -12.0307   -2.5897   17.8842 C.3     1  UNL1        0.2506
     17 C         -11.3034    0.1527   16.9093 C.3     1  UNL1        0.0358
     18 C         -12.5543   -0.0507   17.7119 C.2     1  UNL1        0.0342
     19 C         -12.9179   -1.4219   18.1993 C.2     1  UNL1        0.1013
     20 N         -14.1687   -1.6254   19.0019 N.2     1  UNL1       -0.2501
     21 C         -15.0559   -0.4576   19.3170 C.2     1  UNL1        0.0663
     22 C         -16.3067   -0.6611   20.1196 C.3     1  UNL1        0.0742
     23 C         -17.1938    0.5066   20.4347 C.2     1  UNL1        0.0098
     24 C         -16.8302    1.8778   19.9472 C.2     1  UNL1        0.1364
     25 F         -17.7174    3.0456   20.2624 F       1  UNL1       -0.2045
     26 C         -15.5794    2.0813   19.1447 C.2     1  UNL1        0.0337
     27 C         -14.6923    0.9136   18.8296 C.2     1  UNL1        0.0547
     28 C         -13.4414    1.1170   18.0270 C.2     1  UNL1        0.1941
     29 O         -13.0778    2.4882   17.5396 O.2     1  UNL1       -0.2868
@<TRIPOS>BOND
     1    17    18    1
     2    18    19    2
     3    19    16    1
     4    16     1    1
     5     1     2    1
     6     2     3   ar
     7     3     4   ar
     8     4     5   ar
     9     5     6   ar
    10     6     8    1
    11     8     9    1
    12     9    10    1
    13    10    11    1
    14    11    12    1
    15    12    13    1
    16    13    14    1
    17    14    15    1
    18     6     7   ar
    19    19    20    1
    20    20    21    2
    21    21    22    1
    22    22    23    1
    23    23    24    2
    24    24    25    1
    25    24    26    1
    26    26    27    2
    27    27    28    1
    28    28    29    2
    29    28    18    1
    30     7     2   ar
    31    27    21    1
    32    15    10    1
@<TRIPOS>MOLECULE
*****
 29 32 0 0 0
SMALL
GASTEIGER

@<TRIPOS>ATOM
      1 O         -11.0999   -3.2692   18.6400 O.3     1  UNL1       -0.4689
      2 C         -10.7713   -4.7282   18.5259 C.ar    1  UNL1        0.1422
      3 C          -9.5937   -5.2918   19.2646 C.ar    1  UNL1        0.0371
      4 C          -9.2651   -6.7509   19.1505 C.ar    1  UNL1        0.0062
      5 C         -10.1141   -7.6465   18.2978 C.ar    1  UNL1        0.0371
      6 C         -11.2917   -7.0829   17.5591 C.ar    1  UNL1        0.1416
      7 C         -11.6203   -5.6238   17.6732 C.ar    1  UNL1        0.0738
      8 O         -12.1408   -7.9784   16.7064 O.3     1  UNL1       -0.4754
      9 C         -13.5916   -7.6599   16.4971 C.3     1  UNL1        0.2054
     10 C         -14.5939   -7.9939   17.5620 C.3     1  UNL1        0.0487
     11 C         -15.1277   -9.3909   17.6779 C.3     1  UNL1        0.0359
     12 C         -16.1300   -9.7248   18.7428 C.3     1  UNL1        0.1423
     13 O         -16.5985   -8.6618   19.6916 O.3     1  UNL1       -0.3538
     14 C         -16.0648   -7.2647   19.5757 C.3     1  UNL1        0.1423
     15 C         -15.0625   -6.9307   18.5108 C.3     1  UNL1        0.0359
     16 C         -12.1253   -2.6580   17.7317 C.3     1  UNL1        0.2506
     17 C         -12.6440    0.2674   18.1477 C.3     1  UNL1        0.0358
     18 C         -13.7012   -0.7386   18.4947 C.2     1  UNL1        0.0342
     19 C         -13.4419   -2.2013   18.2867 C.2     1  UNL1        0.1013
     20 N         -14.4990   -3.2072   18.6337 N.2     1  UNL1       -0.2501
     21 C         -15.8156   -2.7505   19.1888 C.2     1  UNL1        0.0663
     22 C         -16.8728   -3.7564   19.5358 C.3     1  UNL1        0.0742
     23 C         -18.1893   -3.2997   20.0909 C.2     1  UNL1        0.0098
     24 C         -18.4487   -1.8370   20.2989 C.2     1  UNL1        0.1364
     25 F         -19.7653   -1.3803   20.8539 F       1  UNL1       -0.2045
     26 C         -17.3915   -0.8311   19.9518 C.2     1  UNL1        0.0337
     27 C         -16.0750   -1.2878   19.3968 C.2     1  UNL1        0.0547
     28 C         -15.0178   -0.2818   19.0498 C.2     1  UNL1        0.1941
     29 O         -15.2771    1.1808   19.2578 O.2     1  UNL1       -0.2868
@<TRIPOS>BOND
     1    17    18    1
     2    18    19    2
     3    19    16    1
     4    16     1    1
     5     1     2    1
     6     2     3   ar
     7     3     4   ar
     8     4     5   ar
     9     5     6   ar
    10     6     8    1
    11     8     9    1
    12     9    10    1
    13    10    11    1
    14    11    12    1
    15    12    13    1
    16    13    14    1
    17    14    15    1
    18     6     7   ar
    19    19    20    1
    20    20    21    2
    21    21    22    1
    22    22    23    1
    23    23    24    2
    24    24    25    1
    25    24    26    1
    26    26    27    2
    27    27    28    1
    28    28    29    2
    29    28    18    1
    30     7     2   ar
    31    27    21    1
    32    15    10    1
@<TRIPOS>MOLECULE
*****
 29 32 0 0 0
SMALL
GASTEIGER

@<TRIPOS>ATOM
      1 O         -11.8773   -6.8683   18.9239 O.3     1  UNL1       -0.4689
      2 C         -12.3947   -5.5226   19.3379 C.ar    1  UNL1        0.1422
      3 C         -13.6584   -5.4190   20.1392 C.ar    1  UNL1        0.0371
      4 C         -14.1758   -4.0733   20.5533 C.ar    1  UNL1        0.0062
      5 C         -13.4294   -2.8312   20.1660 C.ar    1  UNL1        0.0371
      6 C         -12.1655   -2.9348   19.3647 C.ar    1  UNL1        0.1416
      7 C         -11.6482   -4.2805   18.9506 C.ar    1  UNL1        0.0738
      8 O         -11.4191   -1.6927   18.9774 O.3     1  UNL1       -0.4754
      9 C         -11.7400   -0.9960   17.6883 C.3     1  UNL1        0.2054
     10 C         -12.5618    0.2589   17.6984 C.3     1  UNL1        0.0487
     11 C         -13.7545    0.3671   18.6014 C.3     1  UNL1        0.0359
     12 C         -14.5763    1.6219   18.6115 C.3     1  UNL1        0.1423
     13 O         -14.2052    2.7686   17.7186 O.3     1  UNL1       -0.3538
     14 C         -13.0124    2.6604   16.8155 C.3     1  UNL1        0.1423
     15 C         -12.1907    1.4056   16.8054 C.3     1  UNL1        0.0359
     16 C         -12.4093   -7.5280   17.6862 C.3     1  UNL1        0.2506
     17 C         -14.0942   -5.4711   16.2968 C.3     1  UNL1        0.0358
     18 C         -14.7271   -6.7203   16.8343 C.2     1  UNL1        0.0342
     19 C         -13.8846   -7.7488   17.5290 C.2     1  UNL1        0.1013
     20 N         -14.5175   -8.9980   18.0666 N.2     1  UNL1       -0.2501
     21 C         -15.9929   -9.2188   17.9094 C.2     1  UNL1        0.0663
     22 C         -16.6257  -10.4680   18.4469 C.3     1  UNL1        0.0742
     23 C         -18.1010  -10.6887   18.2898 C.2     1  UNL1        0.0098
     24 C         -18.9434   -9.6603   17.5950 C.2     1  UNL1        0.1364
     25 F         -20.4188   -9.8811   17.4379 F       1  UNL1       -0.2045
     26 C         -18.3106   -8.4111   17.0575 C.2     1  UNL1        0.0337
     27 C         -16.8353   -8.1904   17.2147 C.2     1  UNL1        0.0547
     28 C         -16.2024   -6.9411   16.6772 C.2     1  UNL1        0.1941
     29 O         -17.0448   -5.9127   15.9825 O.2     1  UNL1       -0.2868
@<TRIPOS>BOND
     1    17    18    1
     2    18    19    2
     3    19    16    1
     4    16     1    1
     5     1     2    1
     6     2     3   ar
     7     3     4   ar
     8     4     5   ar
     9     5     6   ar
    10     6     8    1
    11     8     9    1
    12     9    10    1
    13    10    11    1
    14    11    12    1
    15    12    13    1
    16    13    14    1
    17    14    15    1
    18     6     7   ar
    19    19    20    1
    20    20    21    2
    21    21    22    1
    22    22    23    1
    23    23    24    2
    24    24    25    1
    25    24    26    1
    26    26    27    2
    27    27    28    1
    28    28    29    2
    29    28    18    1
    30     7     2   ar
    31    27    21    1
    32    15    10    1
@<TRIPOS>MOLECULE
*****
 29 32 0 0 0
SMALL
GASTEIGER

@<TRIPOS>ATOM
      1 O           1.2484    1.3221   18.6495 O.3     1  UNL1       -0.4689
      2 C           2.7065    1.5420   18.3748 C.ar    1  UNL1        0.1422
      3 C           3.3290    2.8779   18.6535 C.ar    1  UNL1        0.0371
      4 C           4.7872    3.0979   18.3788 C.ar    1  UNL1        0.0062
      5 C           5.6228    1.9819   17.8254 C.ar    1  UNL1        0.0371
      6 C           5.0003    0.6459   17.5467 C.ar    1  UNL1        0.1416
      7 C           3.5421    0.4260   17.8213 C.ar    1  UNL1        0.0738
      8 O           5.8359   -0.4701   16.9932 O.3     1  UNL1       -0.4754
      9 C           6.8639   -1.1374   17.8582 C.3     1  UNL1        0.2054
     10 C           6.4912   -2.3392   18.6746 C.3     1  UNL1        0.0487
     11 C           7.3699   -2.7775   19.8085 C.3     1  UNL1        0.0359
     12 C           6.9972   -3.9793   20.6250 C.3     1  UNL1        0.1423
     13 O           5.7458   -4.7430   20.3075 O.3     1  UNL1       -0.3538
     14 C           4.8671   -4.3048   19.1736 C.3     1  UNL1        0.1423
     15 C           5.2397   -3.1029   18.3571 C.3     1  UNL1        0.0359
     16 C           0.8149    0.1991   19.5444 C.3     1  UNL1        0.2506
     17 C           0.1571    1.9548   21.8864 C.3     1  UNL1        0.0358
     18 C           1.1716    0.8595   22.0317 C.2     1  UNL1        0.0342
     19 C           1.5005   -0.0184   20.8608 C.2     1  UNL1        0.1013
     20 N           2.5150   -1.1136   21.0061 N.2     1  UNL1       -0.2501
     21 C           3.2006   -1.3311   22.3224 C.2     1  UNL1        0.0663
     22 C           4.2151   -2.4264   22.4677 C.3     1  UNL1        0.0742
     23 C           4.9007   -2.6438   23.7840 C.2     1  UNL1        0.0098
     24 C           4.5718   -1.7659   24.9550 C.2     1  UNL1        0.1364
     25 F           5.2574   -1.9834   26.2714 F       1  UNL1       -0.2045
     26 C           3.5573   -0.6706   24.8097 C.2     1  UNL1        0.0337
     27 C           2.8717   -0.4532   23.4934 C.2     1  UNL1        0.0547
     28 C           1.8572    0.6421   23.3480 C.2     1  UNL1        0.1941
     29 O           1.5283    1.5200   24.5190 O.2     1  UNL1       -0.2868
@<TRIPOS>BOND
     1    17    18    1
     2    18    19    2
     3    19    16    1
     4    16     1    1
     5     1     2    1
     6     2     3   ar
     7     3     4   ar
     8     4     5   ar
     9     5     6   ar
    10     6     8    1
    11     8     9    1
    12     9    10    1
    13    10    11    1
    14    11    12    1
    15    12    13    1
    16    13    14    1
    17    14    15    1
    18     6     7   ar
    19    19    20    1
    20    20    21    2
    21    21    22    1
    22    22    23    1
    23    23    24    2
    24    24    25    1
    25    24    26    1
    26    26    27    2
    27    27    28    1
    28    28    29    2
    29    28    18    1
    30     7     2   ar
    31    27    21    1
    32    15    10    1
@<TRIPOS>MOLECULE
*****
 29 32 0 0 0
SMALL
GASTEIGER

@<TRIPOS>ATOM
      1 O           5.3226   -2.0982   22.5796 O.3     1  UNL1       -0.4689
      2 C           4.8941   -2.7097   21.2787 C.ar    1  UNL1        0.1422
      3 C           4.2791   -4.0777   21.2596 C.ar    1  UNL1        0.0371
      4 C           3.8505   -4.6893   19.9586 C.ar    1  UNL1        0.0062
      5 C           4.0369   -3.9328   18.6769 C.ar    1  UNL1        0.0371
      6 C           4.6519   -2.5647   18.6960 C.ar    1  UNL1        0.1416
      7 C           5.0805   -1.9532   19.9969 C.ar    1  UNL1        0.0738
      8 O           4.8383   -1.8082   17.4142 O.3     1  UNL1       -0.4754
      9 C           3.7823   -0.8501   16.9485 C.3     1  UNL1        0.2054
     10 C           3.3676    0.2936   17.8260 C.3     1  UNL1        0.0487
     11 C           4.3646    1.3485   18.2043 C.3     1  UNL1        0.0359
     12 C           3.9499    2.4922   19.0818 C.3     1  UNL1        0.1423
     13 O           2.5383    2.5809   19.5811 O.3     1  UNL1       -0.3538
     14 C           1.5412    1.5259   19.2029 C.3     1  UNL1        0.1423
     15 C           1.9559    0.3823   18.3253 C.3     1  UNL1        0.0359
     16 C           6.7152   -2.3213   23.0904 C.3     1  UNL1        0.2506
     17 C           7.9812   -4.3609   21.2912 C.3     1  UNL1        0.0358
     18 C           7.7410   -4.6819   22.7367 C.2     1  UNL1        0.0342
     19 C           7.1080   -3.6622   23.6363 C.2     1  UNL1        0.1013
     20 N           6.8679   -3.9831   25.0817 N.2     1  UNL1       -0.2501
     21 C           7.2607   -5.3240   25.6275 C.2     1  UNL1        0.0663
     22 C           7.0205   -5.6450   27.0729 C.3     1  UNL1        0.0742
     23 C           7.4134   -6.9858   27.6187 C.2     1  UNL1        0.0098
     24 C           8.0464   -8.0056   26.7191 C.2     1  UNL1        0.1364
     25 F           8.4392   -9.3465   27.2649 F       1  UNL1       -0.2045
     26 C           8.2865   -7.6846   25.2737 C.2     1  UNL1        0.0337
     27 C           7.8937   -6.3438   24.7279 C.2     1  UNL1        0.0547
     28 C           8.1338   -6.0227   23.2824 C.2     1  UNL1        0.1941
     29 O           8.7668   -7.0425   22.3828 O.2     1  UNL1       -0.2868
@<TRIPOS>BOND
     1    17    18    1
     2    18    19    2
     3    19    16    1
     4    16     1    1
     5     1     2    1
     6     2     3   ar
     7     3     4   ar
     8     4     5   ar
     9     5     6   ar
    10     6     8    1
    11     8     9    1
    12     9    10    1
    13    10    11    1
    14    11    12    1
    15    12    13    1
    16    13    14    1
    17    14    15    1
    18     6     7   ar
    19    19    20    1
    20    20    21    2
    21    21    22    1
    22    22    23    1
    23    23    24    2
    24    24    25    1
    25    24    26    1
    26    26    27    2
    27    27    28    1
    28    28    29    2
    29    28    18    1
    30     7     2   ar
    31    27    21    1
    32    15    10    1
