@<TRIPOS>MOLECULE
*****
 30 33 0 0 0
SMALL
GASTEIGER

@<TRIPOS>ATOM
      1 N           2.2047    3.3800   35.6095 N.pl3   1  UNL1       -0.2713
      2 C           1.5187    4.7112   35.6949 C.3     1  UNL1        0.0974
      3 C           1.0184    5.3785   34.4482 C.3     1  UNL1        0.0282
      4 C           1.2041    4.7146   33.1160 C.3     1  UNL1        0.0489
      5 C           1.8901    3.3834   33.0305 C.ar    1  UNL1        0.0723
      6 N           2.0758    2.7195   31.6983 N.ar    1  UNL1       -0.2511
      7 C           2.7618    1.3883   31.6129 C.ar    1  UNL1        0.0764
      8 C           3.2621    0.7210   32.8597 C.ar    1  UNL1        0.0176
      9 C           3.0764    1.3849   34.1919 C.ar    1  UNL1        0.0173
     10 C           2.3904    2.7161   34.2773 C.ar    1  UNL1        0.0664
     11 C           1.4056    0.2061   39.6453 C.3     1  UNL1        0.0737
     12 C           2.3054    1.1257   38.8741 C.ar    1  UNL1        0.1410
     13 N           3.7055    1.3780   39.3498 N.ar    1  UNL1       -0.2291
     14 C           4.6053    2.2976   38.5786 C.ar    1  UNL1        0.1031
     15 C           4.1050    2.9650   37.3318 C.ar    1  UNL1        0.0553
     16 C           2.7050    2.7127   36.8562 C.ar    1  UNL1        0.1383
     17 N           1.8052    1.7930   37.6274 N.ar    1  UNL1       -0.2157
     18 C           2.9475    0.7244   30.2807 C.3     1  UNL1        0.1121
     19 C           3.7825   -0.5168   30.1712 C.3     1  UNL1        0.0278
     20 N           2.2982    1.3019   29.0579 N.am    1  UNL1       -0.2973
     21 C           0.9325    0.8392   28.6446 C.2     1  UNL1        0.2461
     22 O           0.2162   -0.2009   29.4540 O.2     1  UNL1       -0.2701
     23 H           2.7684    1.9845   28.5267 H       1  UNL1        0.1500
     24 C           0.2832    1.4166   27.4219 C.ar    1  UNL1        0.0535
     25 C          -0.9276    2.2914   27.5579 C.ar    1  UNL1        0.0068
     26 C          -1.5769    2.8688   26.3352 C.ar    1  UNL1        0.0298
     27 C          -1.0154    2.5713   24.9765 C.ar    1  UNL1        0.1401
     28 F          -1.6647    3.1487   23.7538 F       1  UNL1       -0.2042
     29 C           0.1954    1.6965   24.8404 C.ar    1  UNL1        0.0298
     30 C           0.8447    1.1191   26.0631 C.ar    1  UNL1        0.0068
@<TRIPOS>BOND
     1    11    12    1
     2    12    13   ar
     3    13    14   ar
     4    14    15   ar
     5    15    16   ar
     6    16     1    1
     7     1     2    1
     8     2     3    1
     9     3     4    1
    10     4     5    1
    11     5     6   ar
    12     6     7   ar
    13     7    18    1
    14    18    19    1
    15    18    20    1
    16    20    21   am
    17    21    22    2
    18    21    24    1
    19    24    25   ar
    20    25    26   ar
    21    26    27   ar
    22    27    28    1
    23    27    29   ar
    24    29    30   ar
    25     7     8   ar
    26     8     9   ar
    27     9    10   ar
    28    16    17   ar
    29    17    12   ar
    30    10     1    1
    31    10     5   ar
    32    30    24   ar
    33    20    23    1
@<TRIPOS>MOLECULE
*****
 30 33 0 0 0
SMALL
GASTEIGER

@<TRIPOS>ATOM
      1 N           3.8439   -0.6710   28.9742 N.pl3   1  UNL1       -0.2713
      2 C           4.4811   -0.8824   30.3155 C.3     1  UNL1        0.0974
      3 C           5.7367   -1.6950   30.4296 C.3     1  UNL1        0.0282
      4 C           6.3550   -2.2963   29.2023 C.3     1  UNL1        0.0489
      5 C           5.7178   -2.0849   27.8610 C.ar    1  UNL1        0.0723
      6 N           6.3361   -2.6862   26.6338 N.ar    1  UNL1       -0.2511
      7 C           5.6989   -2.4748   25.2925 C.ar    1  UNL1        0.0764
      8 C           4.4432   -1.6622   25.1783 C.ar    1  UNL1        0.0176
      9 C           3.8249   -1.0609   26.4056 C.ar    1  UNL1        0.0173
     10 C           4.4622   -1.2723   27.7469 C.ar    1  UNL1        0.0664
     11 C          -1.3438   -0.3966   28.8582 C.3     1  UNL1        0.0737
     12 C          -0.0056    0.2788   28.8020 C.ar    1  UNL1        0.1410
     13 N           0.0769    1.7669   28.6318 N.ar    1  UNL1       -0.2291
     14 C           1.4151    2.4423   28.5757 C.ar    1  UNL1        0.1031
     15 C           2.6707    1.6296   28.6898 C.ar    1  UNL1        0.0553
     16 C           2.5882    0.1416   28.8601 C.ar    1  UNL1        0.1383
     17 N           1.2500   -0.5338   28.9162 N.ar    1  UNL1       -0.2157
     18 C           6.3172   -3.0761   24.0652 C.3     1  UNL1        0.1121
     19 C           7.2391   -4.2528   24.1895 C.3     1  UNL1        0.0278
     20 N           6.0137   -2.5006   22.7136 N.am    1  UNL1       -0.2973
     21 C           4.9977   -3.1600   21.8287 C.2     1  UNL1        0.2461
     22 O           4.2852   -4.3948   22.2954 O.2     1  UNL1       -0.2701
     23 H           6.4812   -1.6902   22.4073 H       1  UNL1        0.1500
     24 C           4.6941   -2.5845   20.4772 C.ar    1  UNL1        0.0535
     25 C           3.5454   -1.6350   20.3071 C.ar    1  UNL1        0.0068
     26 C           3.2418   -1.0596   18.9555 C.ar    1  UNL1        0.0298
     27 C           4.0869   -1.4337   17.7741 C.ar    1  UNL1        0.1401
     28 F           3.7833   -0.8583   16.4225 F       1  UNL1       -0.2042
     29 C           5.2356   -2.3832   17.9442 C.ar    1  UNL1        0.0298
     30 C           5.5392   -2.9586   19.2957 C.ar    1  UNL1        0.0068
@<TRIPOS>BOND
     1    11    12    1
     2    12    13   ar
     3    13    14   ar
     4    14    15   ar
     5    15    16   ar
     6    16     1    1
     7     1     2    1
     8     2     3    1
     9     3     4    1
    10     4     5    1
    11     5     6   ar
    12     6     7   ar
    13     7    18    1
    14    18    19    1
    15    18    20    1
    16    20    21   am
    17    21    22    2
    18    21    24    1
    19    24    25   ar
    20    25    26   ar
    21    26    27   ar
    22    27    28    1
    23    27    29   ar
    24    29    30   ar
    25     7     8   ar
    26     8     9   ar
    27     9    10   ar
    28    16    17   ar
    29    17    12   ar
    30    10     1    1
    31    10     5   ar
    32    30    24   ar
    33    20    23    1
@<TRIPOS>MOLECULE
*****
 30 33 0 0 0
SMALL
GASTEIGER

@<TRIPOS>ATOM
      1 N           2.7118   -0.2253   19.5828 N.pl3   1  UNL1       -0.2713
      2 C           2.0322    0.3476   18.3746 C.3     1  UNL1        0.0974
      3 C           0.8745    1.2870   18.5401 C.3     1  UNL1        0.0282
      4 C           0.3965    1.6534   19.9139 C.3     1  UNL1        0.0489
      5 C           1.0761    1.0804   21.1221 C.ar    1  UNL1        0.0723
      6 N           0.5980    1.4468   22.4959 N.ar    1  UNL1       -0.2511
      7 C           1.2776    0.8738   23.7041 C.ar    1  UNL1        0.0764
      8 C           2.4353   -0.0656   23.5386 C.ar    1  UNL1        0.0176
      9 C           2.9134   -0.4320   22.1648 C.ar    1  UNL1        0.0173
     10 C           2.2337    0.1411   20.9566 C.ar    1  UNL1        0.0664
     11 C           4.5336   -5.0328   18.8284 C.3     1  UNL1        0.0737
     12 C           4.7803   -3.5685   19.0401 C.ar    1  UNL1        0.1410
     13 N           6.1848   -3.0435   19.0863 N.ar    1  UNL1       -0.2291
     14 C           6.4315   -1.5792   19.2980 C.ar    1  UNL1        0.1031
     15 C           5.2738   -0.6398   19.4635 C.ar    1  UNL1        0.0553
     16 C           3.8695   -1.1647   19.4173 C.ar    1  UNL1        0.1383
     17 N           3.6227   -2.6291   19.2056 N.ar    1  UNL1       -0.2157
     18 C           0.7996    1.2402   25.0779 C.3     1  UNL1        0.1121
     19 C           1.7340    1.1448   26.2474 C.3     1  UNL1        0.0278
     20 N          -0.6130    1.7019   25.2821 N.am    1  UNL1       -0.2973
     21 C          -0.9618    3.1499   25.1044 C.2     1  UNL1        0.2461
     22 O           0.1020    4.1362   24.7225 O.2     1  UNL1       -0.2701
     23 H          -1.3111    1.0546   25.5327 H       1  UNL1        0.1500
     24 C          -2.3742    3.6117   25.3087 C.ar    1  UNL1        0.0535
     25 C          -3.3292    3.6382   24.1523 C.ar    1  UNL1        0.0068
     26 C          -4.7417    4.1000   24.3565 C.ar    1  UNL1        0.0298
     27 C          -5.1992    4.5352   25.7171 C.ar    1  UNL1        0.1401
     28 F          -6.6116    4.9970   25.9214 F       1  UNL1       -0.2042
     29 C          -4.2441    4.5087   26.8735 C.ar    1  UNL1        0.0298
     30 C          -2.8317    4.0470   26.6693 C.ar    1  UNL1        0.0068
@<TRIPOS>BOND
     1    11    12    1
     2    12    13   ar
     3    13    14   ar
     4    14    15   ar
     5    15    16   ar
     6    16     1    1
     7     1     2    1
     8     2     3    1
     9     3     4    1
    10     4     5    1
    11     5     6   ar
    12     6     7   ar
    13     7    18    1
    14    18    19    1
    15    18    20    1
    16    20    21   am
    17    21    22    2
    18    21    24    1
    19    24    25   ar
    20    25    26   ar
    21    26    27   ar
    22    27    28    1
    23    27    29   ar
    24    29    30   ar
    25     7     8   ar
    26     8     9   ar
    27     9    10   ar
    28    16    17   ar
    29    17    12   ar
    30    10     1    1
    31    10     5   ar
    32    30    24   ar
    33    20    23    1
@<TRIPOS>MOLECULE
*****
 30 33 0 0 0
SMALL
GASTEIGER

@<TRIPOS>ATOM
      1 N           3.7131   -1.8495   20.3283 N.pl3   1  UNL1       -0.2713
      2 C           3.8960   -2.1459   18.8693 C.3     1  UNL1        0.0974
      3 C           4.9159   -3.1547   18.4311 C.3     1  UNL1        0.0282
      4 C           5.7530   -3.8670   19.4518 C.3     1  UNL1        0.0489
      5 C           5.5701   -3.5706   20.9108 C.ar    1  UNL1        0.0723
      6 N           6.4071   -4.2829   21.9315 N.ar    1  UNL1       -0.2511
      7 C           6.2242   -3.9865   23.3905 C.ar    1  UNL1        0.0764
      8 C           5.2043   -2.9777   23.8288 C.ar    1  UNL1        0.0176
      9 C           4.3672   -2.2654   22.8081 C.ar    1  UNL1        0.0173
     10 C           4.5501   -2.5618   21.3490 C.ar    1  UNL1        0.0664
     11 C           2.3683    2.1845   23.3146 C.3     1  UNL1        0.0737
     12 C           2.0207    1.1763   22.2597 C.ar    1  UNL1        0.1410
     13 N           0.6533    1.1769   21.6432 N.ar    1  UNL1       -0.2291
     14 C           0.3058    0.1687   20.5883 C.ar    1  UNL1        0.1031
     15 C           1.3257   -0.8401   20.1500 C.ar    1  UNL1        0.0553
     16 C           2.6931   -0.8407   20.7666 C.ar    1  UNL1        0.1383
     17 N           3.0406    0.1675   21.8214 N.ar    1  UNL1       -0.2157
     18 C           7.0613   -4.6989   24.4112 C.3     1  UNL1        0.1121
     19 C           7.9218   -5.8565   23.9998 C.3     1  UNL1        0.0278
     20 N           7.0378   -4.2535   25.8435 N.am    1  UNL1       -0.2973
     21 C           6.7964   -5.2529   26.9357 C.2     1  UNL1        0.2461
     22 O           6.5786   -6.6976   26.5958 O.2     1  UNL1       -0.2701
     23 H           7.1807   -3.3054   26.0666 H       1  UNL1        0.1500
     24 C           6.7729   -4.8076   28.3679 C.ar    1  UNL1        0.0535
     25 C           6.5206   -3.3671   28.7014 C.ar    1  UNL1        0.0068
     26 C           6.4971   -2.9219   30.1337 C.ar    1  UNL1        0.0298
     27 C           6.7258   -3.9171   31.2323 C.ar    1  UNL1        0.1401
     28 F           6.7023   -3.4719   32.6645 F       1  UNL1       -0.2042
     29 C           6.9781   -5.3576   30.8988 C.ar    1  UNL1        0.0298
     30 C           7.0016   -5.8029   29.4666 C.ar    1  UNL1        0.0068
@<TRIPOS>BOND
     1    11    12    1
     2    12    13   ar
     3    13    14   ar
     4    14    15   ar
     5    15    16   ar
     6    16     1    1
     7     1     2    1
     8     2     3    1
     9     3     4    1
    10     4     5    1
    11     5     6   ar
    12     6     7   ar
    13     7    18    1
    14    18    19    1
    15    18    20    1
    16    20    21   am
    17    21    22    2
    18    21    24    1
    19    24    25   ar
    20    25    26   ar
    21    26    27   ar
    22    27    28    1
    23    27    29   ar
    24    29    30   ar
    25     7     8   ar
    26     8     9   ar
    27     9    10   ar
    28    16    17   ar
    29    17    12   ar
    30    10     1    1
    31    10     5   ar
    32    30    24   ar
    33    20    23    1
@<TRIPOS>MOLECULE
*****
 30 33 0 0 0
SMALL
GASTEIGER

@<TRIPOS>ATOM
      1 N           3.2476   -0.6192   20.9896 N.pl3   1  UNL1       -0.2713
      2 C           3.4800   -0.8581   22.4521 C.3     1  UNL1        0.0974
      3 C           2.6778   -0.1052   23.4717 C.3     1  UNL1        0.0282
      4 C           1.6432    0.8865   23.0288 C.3     1  UNL1        0.0489
      5 C           1.4108    1.1254   21.5664 C.ar    1  UNL1        0.0723
      6 N           0.3763    2.1171   21.1235 N.ar    1  UNL1       -0.2511
      7 C           0.1439    2.3560   19.6610 C.ar    1  UNL1        0.0764
      8 C           0.9461    1.6031   18.6413 C.ar    1  UNL1        0.0176
      9 C           1.9806    0.6114   19.0842 C.ar    1  UNL1        0.0173
     10 C           2.2130    0.3725   20.5467 C.ar    1  UNL1        0.0664
     11 C           4.5179   -5.0934   18.6726 C.3     1  UNL1        0.0737
     12 C           4.6849   -3.6092   18.8114 C.ar    1  UNL1        0.1410
     13 N           5.6541   -2.8779   17.9306 N.ar    1  UNL1       -0.2291
     14 C           5.8212   -1.3937   18.0694 C.ar    1  UNL1        0.1031
     15 C           5.0190   -0.6408   19.0891 C.ar    1  UNL1        0.0553
     16 C           4.0498   -1.3721   19.9699 C.ar    1  UNL1        0.1383
     17 N           3.8828   -2.8563   19.8311 N.ar    1  UNL1       -0.2157
     18 C          -0.8907    3.3477   19.2181 C.3     1  UNL1        0.1121
     19 C          -0.5493    4.3743   18.1791 C.3     1  UNL1        0.0278
     20 N          -2.2667    3.3128   19.8143 N.am    1  UNL1       -0.2973
     21 C          -2.5995    4.1903   20.9846 C.2     1  UNL1        0.2461
     22 O          -1.5562    5.1026   21.5586 O.2     1  UNL1       -0.2701
     23 H          -2.9514    2.7141   19.4376 H       1  UNL1        0.1500
     24 C          -3.9755    4.1555   21.5808 C.ar    1  UNL1        0.0535
     25 C          -4.1643    3.7317   23.0072 C.ar    1  UNL1        0.0068
     26 C          -5.5403    3.6969   23.6034 C.ar    1  UNL1        0.0298
     27 C          -6.7274    4.0858   22.7732 C.ar    1  UNL1        0.1401
     28 F          -8.1034    4.0510   23.3694 F       1  UNL1       -0.2042
     29 C          -6.5386    4.5096   21.3467 C.ar    1  UNL1        0.0298
     30 C          -5.1627    4.5444   20.7505 C.ar    1  UNL1        0.0068
@<TRIPOS>BOND
     1    11    12    1
     2    12    13   ar
     3    13    14   ar
     4    14    15   ar
     5    15    16   ar
     6    16     1    1
     7     1     2    1
     8     2     3    1
     9     3     4    1
    10     4     5    1
    11     5     6   ar
    12     6     7   ar
    13     7    18    1
    14    18    19    1
    15    18    20    1
    16    20    21   am
    17    21    22    2
    18    21    24    1
    19    24    25   ar
    20    25    26   ar
    21    26    27   ar
    22    27    28    1
    23    27    29   ar
    24    29    30   ar
    25     7     8   ar
    26     8     9   ar
    27     9    10   ar
    28    16    17   ar
    29    17    12   ar
    30    10     1    1
    31    10     5   ar
    32    30    24   ar
    33    20    23    1
@<TRIPOS>MOLECULE
*****
 30 33 0 0 0
SMALL
GASTEIGER

@<TRIPOS>ATOM
      1 N           4.1926   -0.4915   19.2886 N.pl3   1  UNL1       -0.2713
      2 C           5.4055    0.0545   18.5954 C.3     1  UNL1        0.0974
      3 C           5.3795    1.4381   18.0168 C.3     1  UNL1        0.0282
      4 C           4.1404    2.2757   18.1313 C.3     1  UNL1        0.0489
      5 C           2.9274    1.7297   18.8245 C.ar    1  UNL1        0.0723
      6 N           1.6884    2.5673   18.9390 N.ar    1  UNL1       -0.2511
      7 C           0.4754    2.0214   19.6322 C.ar    1  UNL1        0.0764
      8 C           0.5014    0.6377   20.2109 C.ar    1  UNL1        0.0176
      9 C           1.7405   -0.2000   20.0963 C.ar    1  UNL1        0.0173
     10 C           2.9535    0.3461   19.4031 C.ar    1  UNL1        0.0664
     11 C           5.2854   -3.7033   23.2243 C.3     1  UNL1        0.0737
     12 C           4.7650   -3.4811   21.8352 C.ar    1  UNL1        0.1410
     13 N           4.2707   -4.6425   21.0247 N.ar    1  UNL1       -0.2291
     14 C           3.7503   -4.4202   19.6355 C.ar    1  UNL1        0.1031
     15 C           3.7243   -3.0365   19.0568 C.ar    1  UNL1        0.0553
     16 C           4.2186   -1.8752   19.8673 C.ar    1  UNL1        0.1383
     17 N           4.7390   -2.0975   21.2565 N.ar    1  UNL1       -0.2157
     18 C          -0.7637    2.8590   19.7467 C.3     1  UNL1        0.1121
     19 C          -1.2172    3.6902   18.5834 C.3     1  UNL1        0.0278
     20 N          -1.5491    2.8654   21.0246 N.am    1  UNL1       -0.2973
     21 C          -1.0709    3.6727   22.1949 C.2     1  UNL1        0.2461
     22 O           0.1929    4.4736   22.0872 O.2     1  UNL1       -0.2701
     23 H          -2.3786    2.3398   21.0953 H       1  UNL1        0.1500
     24 C          -1.8563    3.6792   23.4728 C.ar    1  UNL1        0.0535
     25 C          -3.3549    3.7288   23.4318 C.ar    1  UNL1        0.0068
     26 C          -4.1403    3.7353   24.7098 C.ar    1  UNL1        0.0298
     27 C          -3.4271    3.6921   26.0286 C.ar    1  UNL1        0.1401
     28 F          -4.2125    3.6985   27.3065 F       1  UNL1       -0.2042
     29 C          -1.9285    3.6425   26.0696 C.ar    1  UNL1        0.0298
     30 C          -1.1431    3.6360   24.7917 C.ar    1  UNL1        0.0068
@<TRIPOS>BOND
     1    11    12    1
     2    12    13   ar
     3    13    14   ar
     4    14    15   ar
     5    15    16   ar
     6    16     1    1
     7     1     2    1
     8     2     3    1
     9     3     4    1
    10     4     5    1
    11     5     6   ar
    12     6     7   ar
    13     7    18    1
    14    18    19    1
    15    18    20    1
    16    20    21   am
    17    21    22    2
    18    21    24    1
    19    24    25   ar
    20    25    26   ar
    21    26    27   ar
    22    27    28    1
    23    27    29   ar
    24    29    30   ar
    25     7     8   ar
    26     8     9   ar
    27     9    10   ar
    28    16    17   ar
    29    17    12   ar
    30    10     1    1
    31    10     5   ar
    32    30    24   ar
    33    20    23    1
@<TRIPOS>MOLECULE
*****
 30 33 0 0 0
SMALL
GASTEIGER

@<TRIPOS>ATOM
      1 N          -2.0213    3.4456   25.7474 N.pl3   1  UNL1       -0.2713
      2 C          -3.3548    4.0675   26.0389 C.3     1  UNL1        0.0974
      3 C          -4.2583    4.4678   24.9105 C.3     1  UNL1        0.0282
      4 C          -3.8283    4.2462   23.4906 C.3     1  UNL1        0.0489
      5 C          -2.4948    3.6243   23.1991 C.ar    1  UNL1        0.0723
      6 N          -2.0649    3.4027   21.7793 N.ar    1  UNL1       -0.2511
      7 C          -0.7314    2.7808   21.4878 C.ar    1  UNL1        0.0764
      8 C           0.1722    2.3804   22.6162 C.ar    1  UNL1        0.0176
      9 C          -0.2578    2.6020   24.0361 C.ar    1  UNL1        0.0173
     10 C          -1.5913    3.2240   24.3275 C.ar    1  UNL1        0.0664
     11 C          -0.1536   -0.2055   28.9383 C.3     1  UNL1        0.0737
     12 C          -0.1839    1.2197   28.4713 C.ar    1  UNL1        0.1410
     13 N           0.6894    2.2444   29.1326 N.ar    1  UNL1       -0.2291
     14 C           0.6591    3.6695   28.6656 C.ar    1  UNL1        0.1031
     15 C          -0.2445    4.0699   27.5372 C.ar    1  UNL1        0.0553
     16 C          -1.1177    3.0452   26.8758 C.ar    1  UNL1        0.1383
     17 N          -1.0874    1.6201   27.3429 N.ar    1  UNL1       -0.2157
     18 C          -0.3014    2.5592   20.0679 C.3     1  UNL1        0.1121
     19 C          -0.6218    3.5824   19.0189 C.3     1  UNL1        0.0278
     20 N           0.4489    1.3144   19.6971 N.am    1  UNL1       -0.2973
     21 C           1.9406    1.3554   19.5442 C.2     1  UNL1        0.2461
     22 O           2.6818    2.6411   19.7621 O.2     1  UNL1       -0.2701
     23 H          -0.0376    0.4705   19.5541 H       1  UNL1        0.1500
     24 C           2.6909    0.1106   19.1734 C.ar    1  UNL1        0.0535
     25 C           2.7059   -1.0626   20.1079 C.ar    1  UNL1        0.0068
     26 C           3.4563   -2.3073   19.7371 C.ar    1  UNL1        0.0298
     27 C           4.1918   -2.3788   18.4317 C.ar    1  UNL1        0.1401
     28 F           4.9421   -3.6236   18.0609 F       1  UNL1       -0.2042
     29 C           4.1768   -1.2056   17.4972 C.ar    1  UNL1        0.0298
     30 C           3.4264    0.0391   17.8680 C.ar    1  UNL1        0.0068
@<TRIPOS>BOND
     1    11    12    1
     2    12    13   ar
     3    13    14   ar
     4    14    15   ar
     5    15    16   ar
     6    16     1    1
     7     1     2    1
     8     2     3    1
     9     3     4    1
    10     4     5    1
    11     5     6   ar
    12     6     7   ar
    13     7    18    1
    14    18    19    1
    15    18    20    1
    16    20    21   am
    17    21    22    2
    18    21    24    1
    19    24    25   ar
    20    25    26   ar
    21    26    27   ar
    22    27    28    1
    23    27    29   ar
    24    29    30   ar
    25     7     8   ar
    26     8     9   ar
    27     9    10   ar
    28    16    17   ar
    29    17    12   ar
    30    10     1    1
    31    10     5   ar
    32    30    24   ar
    33    20    23    1
@<TRIPOS>MOLECULE
*****
 30 33 0 0 0
SMALL
GASTEIGER

@<TRIPOS>ATOM
      1 N          -0.4406    3.2380   26.8351 N.pl3   1  UNL1       -0.2713
      2 C          -0.9764    4.4894   27.4650 C.3     1  UNL1        0.0974
      3 C          -1.3493    5.6611   26.6060 C.3     1  UNL1        0.0282
      4 C          -1.1865    5.5814   25.1170 C.3     1  UNL1        0.0489
      5 C          -0.6507    4.3301   24.4870 C.ar    1  UNL1        0.0723
      6 N          -0.4879    4.2504   22.9980 N.ar    1  UNL1       -0.2511
      7 C           0.0479    2.9990   22.3680 C.ar    1  UNL1        0.0764
      8 C           0.4209    1.8272   23.2271 C.ar    1  UNL1        0.0176
      9 C           0.2580    1.9069   24.7161 C.ar    1  UNL1        0.0173
     10 C          -0.2778    3.1584   25.3461 C.ar    1  UNL1        0.0664
     11 C           3.0659    0.7025   29.7117 C.3     1  UNL1        0.0737
     12 C           1.6857    0.7985   29.1324 C.ar    1  UNL1        0.1410
     13 N           0.6784   -0.2773   29.4121 N.ar    1  UNL1       -0.2291
     14 C          -0.7019   -0.1812   28.8328 C.ar    1  UNL1        0.1031
     15 C          -1.0749    0.9906   27.9738 C.ar    1  UNL1        0.0553
     16 C          -0.0676    2.0662   27.6941 C.ar    1  UNL1        0.1383
     17 N           1.3126    1.9702   28.2734 N.ar    1  UNL1       -0.2157
     18 C           0.2107    2.9193   20.8790 C.3     1  UNL1        0.1121
     19 C          -0.7036    3.6995   19.9818 C.3     1  UNL1        0.0278
     20 N           1.2880    2.0593   20.2873 N.am    1  UNL1       -0.2973
     21 C           1.0483    0.5931   20.0806 C.2     1  UNL1        0.2461
     22 O          -0.2687   -0.0131   20.4656 O.2     1  UNL1       -0.2701
     23 H           2.1523    2.4572   20.0347 H       1  UNL1        0.1500
     24 C           2.1254   -0.2669   19.4889 C.ar    1  UNL1        0.0535
     25 C           2.7373    0.0993   18.1692 C.ar    1  UNL1        0.0068
     26 C           3.8145   -0.7608   17.5776 C.ar    1  UNL1        0.0298
     27 C           4.2798   -1.9869   18.3056 C.ar    1  UNL1        0.1401
     28 F           5.3570   -2.8469   17.7139 F       1  UNL1       -0.2042
     29 C           3.6680   -2.3530   19.6253 C.ar    1  UNL1        0.0298
     30 C           2.5908   -1.4931   20.2169 C.ar    1  UNL1        0.0068
@<TRIPOS>BOND
     1    11    12    1
     2    12    13   ar
     3    13    14   ar
     4    14    15   ar
     5    15    16   ar
     6    16     1    1
     7     1     2    1
     8     2     3    1
     9     3     4    1
    10     4     5    1
    11     5     6   ar
    12     6     7   ar
    13     7    18    1
    14    18    19    1
    15    18    20    1
    16    20    21   am
    17    21    22    2
    18    21    24    1
    19    24    25   ar
    20    25    26   ar
    21    26    27   ar
    22    27    28    1
    23    27    29   ar
    24    29    30   ar
    25     7     8   ar
    26     8     9   ar
    27     9    10   ar
    28    16    17   ar
    29    17    12   ar
    30    10     1    1
    31    10     5   ar
    32    30    24   ar
    33    20    23    1
@<TRIPOS>MOLECULE
*****
 30 33 0 0 0
SMALL
GASTEIGER

@<TRIPOS>ATOM
      1 N          -3.2554    4.0740   19.5887 N.pl3   1  UNL1       -0.2713
      2 C          -4.1755    4.3507   18.4369 C.3     1  UNL1        0.0974
      3 C          -3.6634    4.2622   17.0299 C.3     1  UNL1        0.0282
      4 C          -2.2311    3.8970   16.7746 C.3     1  UNL1        0.0489
      5 C          -1.3109    3.6203   17.9264 C.ar    1  UNL1        0.0723
      6 N           0.1213    3.2550   17.6711 N.ar    1  UNL1       -0.2511
      7 C           1.0415    2.9784   18.8229 C.ar    1  UNL1        0.0764
      8 C           0.5294    3.0669   20.2301 C.ar    1  UNL1        0.0176
      9 C          -0.9029    3.4321   20.4853 C.ar    1  UNL1        0.0173
     10 C          -1.8231    3.7088   19.3335 C.ar    1  UNL1        0.0664
     11 C          -3.7373    6.7026   24.0450 C.3     1  UNL1        0.0737
     12 C          -4.0084    5.4768   23.2240 C.ar    1  UNL1        0.1410
     13 N          -4.7916    4.3396   23.8101 N.ar    1  UNL1       -0.2291
     14 C          -5.0627    3.1139   22.9891 C.ar    1  UNL1        0.1031
     15 C          -4.5506    3.0254   21.5819 C.ar    1  UNL1        0.0553
     16 C          -3.7675    4.1625   20.9959 C.ar    1  UNL1        0.1383
     17 N          -3.4964    5.3883   21.8169 N.ar    1  UNL1       -0.2157
     18 C           2.4738    2.6131   18.5677 C.3     1  UNL1        0.1121
     19 C           3.5297    3.6784   18.5612 C.3     1  UNL1        0.0278
     20 N           2.8501    1.1825   18.3189 N.am    1  UNL1       -0.2973
     21 C           3.4565    0.3642   19.4201 C.2     1  UNL1        0.2461
     22 O           3.6866    0.9765   20.7700 O.2     1  UNL1       -0.2701
     23 H           2.6991    0.7807   17.4329 H       1  UNL1        0.1500
     24 C           3.8329   -1.0663   19.1714 C.ar    1  UNL1        0.0535
     25 C           5.0564   -1.3910   18.3666 C.ar    1  UNL1        0.0068
     26 C           5.4327   -2.8216   18.1179 C.ar    1  UNL1        0.0298
     27 C           4.5855   -3.9275   18.6740 C.ar    1  UNL1        0.1401
     28 F           4.9618   -5.3580   18.4253 F       1  UNL1       -0.2042
     29 C           3.3620   -3.6029   19.4788 C.ar    1  UNL1        0.0298
     30 C           2.9857   -2.1723   19.7275 C.ar    1  UNL1        0.0068
@<TRIPOS>BOND
     1    11    12    1
     2    12    13   ar
     3    13    14   ar
     4    14    15   ar
     5    15    16   ar
     6    16     1    1
     7     1     2    1
     8     2     3    1
     9     3     4    1
    10     4     5    1
    11     5     6   ar
    12     6     7   ar
    13     7    18    1
    14    18    19    1
    15    18    20    1
    16    20    21   am
    17    21    22    2
    18    21    24    1
    19    24    25   ar
    20    25    26   ar
    21    26    27   ar
    22    27    28    1
    23    27    29   ar
    24    29    30   ar
    25     7     8   ar
    26     8     9   ar
    27     9    10   ar
    28    16    17   ar
    29    17    12   ar
    30    10     1    1
    31    10     5   ar
    32    30    24   ar
    33    20    23    1
