@<TRIPOS>MOLECULE
*****
 32 35 0 0 0
SMALL
GASTEIGER

@<TRIPOS>ATOM
      1 N           6.7356   -6.0261   32.1045 N.3     1  UNL1       -0.3205
      2 C           6.8704   -5.2238   30.8443 C.3     1  UNL1        0.0766
      3 C           7.0664   -5.7768   29.4638 C.3     1  UNL1        0.1079
      4 N           7.1499   -4.6224   28.5096 N.pl3   1  UNL1       -0.2914
      5 C           7.0055   -3.3560   29.3003 C.3     1  UNL1        0.0980
      6 C           6.8327   -3.7276   30.7432 C.3     1  UNL1        0.0602
      7 H           6.7977   -7.0199   31.8831 H       1  UNL1        0.1189
      8 H           5.8332   -5.8299   32.5376 H       1  UNL1        0.1189
      9 C           6.6538   -2.7711   31.8848 C.ar    1  UNL1        0.0103
     10 C           5.3243   -2.6626   32.5709 C.ar    1  UNL1        0.0300
     11 C           5.1454   -1.7060   33.7124 C.ar    1  UNL1        0.1672
     12 F           3.8159   -1.5975   34.3986 F       1  UNL1       -0.2018
     13 C           6.2958   -0.8581   34.1677 C.ar    1  UNL1        0.1696
     14 F           6.1168    0.0984   35.3093 F       1  UNL1       -0.2017
     15 C           7.6253   -0.9667   33.4816 C.ar    1  UNL1        0.0612
     16 C           7.8042   -1.9231   32.3401 C.ar    1  UNL1        0.1386
     17 F           9.1337   -2.0317   31.6539 F       1  UNL1       -0.2044
     18 C           7.3438   -4.7177   27.0251 C.ar    1  UNL1        0.1350
     19 C           6.3978   -4.0133   26.0984 C.ar    1  UNL1        0.0535
     20 C           6.5917   -4.1086   24.6141 C.ar    1  UNL1        0.0858
     21 N           7.7316   -4.9085   24.0565 N.ar    1  UNL1       -0.2239
     22 C           8.6776   -5.6129   24.9832 C.ar    1  UNL1        0.2000
     23 N           8.4837   -5.5176   26.4675 N.ar    1  UNL1       -0.2090
     24 C           5.6458   -3.4041   23.6873 C.ar    1  UNL1        0.0178
     25 C           4.8783   -2.2076   24.1663 C.ar    1  UNL1        0.0015
     26 C           3.9324   -1.5031   23.2396 C.ar    1  UNL1        0.0001
     27 C           3.7538   -1.9952   21.8338 C.ar    1  UNL1        0.0011
     28 C           4.5212   -3.1917   21.3548 C.ar    1  UNL1        0.0140
     29 C           5.4672   -3.8962   22.2816 C.ar    1  UNL1        0.0026
     30 C           4.3427   -3.6837   19.9492 C.2     1  UNL1        0.0729
     31 O           4.9041   -5.0142   19.5433 O.co2   1  UNL1       -0.5446
     32 O           3.6028   -2.8453   18.9494 O.co2   1  UNL1       -0.5446
@<TRIPOS>UNITY_ATOM_ATTR
31 1
charge -1
@<TRIPOS>BOND
     1     1     2    1
     2     2     3    1
     3     3     4    1
     4     4    18    1
     5    18    19   ar
     6    19    20   ar
     7    20    24    1
     8    24    25   ar
     9    25    26   ar
    10    26    27   ar
    11    27    28   ar
    12    28    30    1
    13    30    31   ar
    14    30    32   ar
    15    28    29   ar
    16    20    21   ar
    17    21    22   ar
    18    22    23   ar
    19     4     5    1
    20     5     6    1
    21     6     9    1
    22     9    10   ar
    23    10    11   ar
    24    11    12    1
    25    11    13   ar
    26    13    14    1
    27    13    15   ar
    28    15    16   ar
    29    16    17    1
    30     6     2    1
    31    16     9   ar
    32    23    18   ar
    33    29    24   ar
    34     1     7    1
    35     1     8    1
@<TRIPOS>MOLECULE
*****
 32 35 0 0 0
SMALL
GASTEIGER

@<TRIPOS>ATOM
      1 N           4.6601    2.2475   18.5128 N.3     1  UNL1       -0.3205
      2 C           3.1856    2.0001   18.6340 C.3     1  UNL1        0.0766
      3 C           2.1070    3.0386   18.5441 C.3     1  UNL1        0.1079
      4 N           0.7856    2.3510   18.7209 N.pl3   1  UNL1       -0.2914
      5 C           1.0476    0.8876   18.9201 C.3     1  UNL1        0.0980
      6 C           2.5308    0.6706   18.8664 C.3     1  UNL1        0.0602
      7 H           4.8264    3.2418   18.3576 H       1  UNL1        0.1189
      8 H           5.0309    1.7140   17.7265 H       1  UNL1        0.1189
      9 C           3.2356   -0.6448   19.0183 C.ar    1  UNL1        0.0103
     10 C           3.2363   -1.3465   20.3440 C.ar    1  UNL1        0.0300
     11 C           3.9410   -2.6619   20.4960 C.ar    1  UNL1        0.1672
     12 F           3.9417   -3.3636   21.8217 F       1  UNL1       -0.2018
     13 C           4.6450   -3.2755   19.3223 C.ar    1  UNL1        0.1696
     14 F           5.3498   -4.5909   19.4742 F       1  UNL1       -0.2017
     15 C           4.6443   -2.5737   17.9964 C.ar    1  UNL1        0.0612
     16 C           3.9396   -1.2584   17.8446 C.ar    1  UNL1        0.1386
     17 F           3.9389   -0.5566   16.5188 F       1  UNL1       -0.2044
     18 C          -0.5612    3.0111   18.7019 C.ar    1  UNL1        0.1350
     19 C          -1.3715    3.0985   19.9612 C.ar    1  UNL1        0.0535
     20 C          -2.7183    3.7586   19.9421 C.ar    1  UNL1        0.0858
     21 N          -3.2548    4.3313   18.6638 N.ar    1  UNL1       -0.2239
     22 C          -2.4446    4.2439   17.4045 C.ar    1  UNL1        0.2000
     23 N          -1.0978    3.5838   17.4236 N.ar    1  UNL1       -0.2090
     24 C          -3.5286    3.8460   21.2014 C.ar    1  UNL1        0.0178
     25 C          -2.8916    3.5447   22.5256 C.ar    1  UNL1        0.0015
     26 C          -3.7018    3.6321   23.7849 C.ar    1  UNL1        0.0001
     27 C          -5.1492    4.0208   23.7200 C.ar    1  UNL1        0.0011
     28 C          -5.7862    4.3220   22.3958 C.ar    1  UNL1        0.0140
     29 C          -4.9759    4.2346   21.1365 C.ar    1  UNL1        0.0026
     30 C          -7.2335    4.7107   22.3310 C.2     1  UNL1        0.0729
     31 O          -8.1750    4.2807   23.4166 O.co2   1  UNL1       -0.5446
     32 O          -7.7393    5.5294   21.1804 O.co2   1  UNL1       -0.5446
@<TRIPOS>UNITY_ATOM_ATTR
31 1
charge -1
@<TRIPOS>BOND
     1     1     2    1
     2     2     3    1
     3     3     4    1
     4     4    18    1
     5    18    19   ar
     6    19    20   ar
     7    20    24    1
     8    24    25   ar
     9    25    26   ar
    10    26    27   ar
    11    27    28   ar
    12    28    30    1
    13    30    31   ar
    14    30    32   ar
    15    28    29   ar
    16    20    21   ar
    17    21    22   ar
    18    22    23   ar
    19     4     5    1
    20     5     6    1
    21     6     9    1
    22     9    10   ar
    23    10    11   ar
    24    11    12    1
    25    11    13   ar
    26    13    14    1
    27    13    15   ar
    28    15    16   ar
    29    16    17    1
    30     6     2    1
    31    16     9   ar
    32    23    18   ar
    33    29    24   ar
    34     1     7    1
    35     1     8    1
@<TRIPOS>MOLECULE
*****
 32 35 0 0 0
SMALL
GASTEIGER

@<TRIPOS>ATOM
      1 N          -1.7869    3.7285   25.3012 N.3     1  UNL1       -0.3205
      2 C          -0.8696    2.9148   24.4373 C.3     1  UNL1        0.0766
      3 C          -0.8253    2.9314   22.9380 C.3     1  UNL1        0.1079
      4 N           0.2361    1.9685   22.4950 N.pl3   1  UNL1       -0.2914
      5 C           0.8478    1.3568   23.7205 C.3     1  UNL1        0.0980
      6 C           0.1644    1.9417   24.9208 C.3     1  UNL1        0.0602
      7 H          -2.3870    4.3051   24.7114 H       1  UNL1        0.1189
      8 H          -1.2341    4.3286   25.9134 H       1  UNL1        0.1189
      9 C           0.4626    1.6113   26.3533 C.ar    1  UNL1        0.0103
     10 C          -0.5797    0.9460   27.2023 C.ar    1  UNL1        0.0300
     11 C          -0.2815    0.6157   28.6348 C.ar    1  UNL1        0.1672
     12 F          -1.3239   -0.0497   29.4837 F       1  UNL1       -0.2018
     13 C           1.0591    0.9507   29.2182 C.ar    1  UNL1        0.1696
     14 F           1.3573    0.6204   30.6507 F       1  UNL1       -0.2017
     15 C           2.1015    1.6161   28.3692 C.ar    1  UNL1        0.0612
     16 C           1.8032    1.9464   26.9368 C.ar    1  UNL1        0.1386
     17 F           2.8457    2.6118   26.0878 F       1  UNL1       -0.2044
     18 C           0.6187    1.6698   21.0757 C.ar    1  UNL1        0.1350
     19 C           1.6254    0.5978   20.7800 C.ar    1  UNL1        0.0535
     20 C           2.0079    0.2991   19.3607 C.ar    1  UNL1        0.0858
     21 N           1.3838    1.0724   18.2371 N.ar    1  UNL1       -0.2239
     22 C           0.3772    2.1444   18.5328 C.ar    1  UNL1        0.2000
     23 N          -0.0053    2.4431   19.9521 N.ar    1  UNL1       -0.2090
     24 C           3.0146   -0.7730   19.0650 C.ar    1  UNL1        0.0178
     25 C           3.9739   -0.6068   17.9239 C.ar    1  UNL1        0.0015
     26 C           4.9805   -1.6787   17.6282 C.ar    1  UNL1        0.0001
     27 C           5.0279   -2.9170   18.4735 C.ar    1  UNL1        0.0011
     28 C           4.0686   -3.0832   19.6146 C.ar    1  UNL1        0.0140
     29 C           3.0619   -2.0112   19.9103 C.ar    1  UNL1        0.0026
     30 C           4.1159   -4.3214   20.4599 C.2     1  UNL1        0.0729
     31 O           3.5539   -5.6095   19.9355 O.co2   1  UNL1       -0.5446
     32 O           4.7252   -4.2715   21.8297 O.co2   1  UNL1       -0.5446
@<TRIPOS>UNITY_ATOM_ATTR
31 1
charge -1
@<TRIPOS>BOND
     1     1     2    1
     2     2     3    1
     3     3     4    1
     4     4    18    1
     5    18    19   ar
     6    19    20   ar
     7    20    24    1
     8    24    25   ar
     9    25    26   ar
    10    26    27   ar
    11    27    28   ar
    12    28    30    1
    13    30    31   ar
    14    30    32   ar
    15    28    29   ar
    16    20    21   ar
    17    21    22   ar
    18    22    23   ar
    19     4     5    1
    20     5     6    1
    21     6     9    1
    22     9    10   ar
    23    10    11   ar
    24    11    12    1
    25    11    13   ar
    26    13    14    1
    27    13    15   ar
    28    15    16   ar
    29    16    17    1
    30     6     2    1
    31    16     9   ar
    32    23    18   ar
    33    29    24   ar
    34     1     7    1
    35     1     8    1
@<TRIPOS>MOLECULE
*****
 32 35 0 0 0
SMALL
GASTEIGER

@<TRIPOS>ATOM
      1 N           4.6386    2.1876   18.4084 N.3     1  UNL1       -0.3205
      2 C           3.1734    1.9355   18.6073 C.3     1  UNL1        0.0766
      3 C           2.0878    2.9700   18.5705 C.3     1  UNL1        0.1079
      4 N           0.7800    2.2785   18.8185 N.pl3   1  UNL1       -0.2914
      5 C           1.0573    0.8167   19.0086 C.3     1  UNL1        0.0980
      6 C           2.5365    0.6047   18.8781 C.3     1  UNL1        0.0602
      7 H           4.7929    3.1819   18.2414 H       1  UNL1        0.1189
      8 H           4.9697    1.6526   17.6055 H       1  UNL1        0.1189
      9 C           3.2530   -0.7077   18.9974 C.ar    1  UNL1        0.0103
     10 C           3.2752   -1.4335   20.3100 C.ar    1  UNL1        0.0300
     11 C           3.9917   -2.7459   20.4293 C.ar    1  UNL1        0.1672
     12 F           4.0138   -3.4717   21.7418 F       1  UNL1       -0.2018
     13 C           4.6860   -3.3325   19.2361 C.ar    1  UNL1        0.1696
     14 F           5.4025   -4.6449   19.3554 F       1  UNL1       -0.2017
     15 C           4.6638   -2.6067   17.9235 C.ar    1  UNL1        0.0612
     16 C           3.9473   -1.2944   17.8042 C.ar    1  UNL1        0.1386
     17 F           3.9251   -0.5685   16.4916 F       1  UNL1       -0.2044
     18 C          -0.5684    2.9339   18.8677 C.ar    1  UNL1        0.1350
     19 C          -1.3566    2.9329   20.1439 C.ar    1  UNL1        0.0535
     20 C          -2.7050    3.5882   20.1931 C.ar    1  UNL1        0.0858
     21 N          -3.2651    4.2446   18.9661 N.ar    1  UNL1       -0.2239
     22 C          -2.4769    4.2455   17.6899 C.ar    1  UNL1        0.2000
     23 N          -1.1286    3.5902   17.6408 N.ar    1  UNL1       -0.2090
     24 C          -3.4933    3.5873   21.4693 C.ar    1  UNL1        0.0178
     25 C          -4.9926    3.5870   21.4247 C.ar    1  UNL1        0.0015
     26 C          -5.7809    3.5861   22.7009 C.ar    1  UNL1        0.0001
     27 C          -5.0699    3.5854   24.0217 C.ar    1  UNL1        0.0011
     28 C          -3.5705    3.5857   24.0663 C.ar    1  UNL1        0.0140
     29 C          -2.7822    3.5866   22.7901 C.ar    1  UNL1        0.0026
     30 C          -2.8595    3.5850   25.3870 C.2     1  UNL1        0.0729
     31 O          -3.5767    4.0350   26.6252 O.co2   1  UNL1       -0.5446
     32 O          -1.4312    3.1343   25.4696 O.co2   1  UNL1       -0.5446
@<TRIPOS>UNITY_ATOM_ATTR
31 1
charge -1
@<TRIPOS>BOND
     1     1     2    1
     2     2     3    1
     3     3     4    1
     4     4    18    1
     5    18    19   ar
     6    19    20   ar
     7    20    24    1
     8    24    25   ar
     9    25    26   ar
    10    26    27   ar
    11    27    28   ar
    12    28    30    1
    13    30    31   ar
    14    30    32   ar
    15    28    29   ar
    16    20    21   ar
    17    21    22   ar
    18    22    23   ar
    19     4     5    1
    20     5     6    1
    21     6     9    1
    22     9    10   ar
    23    10    11   ar
    24    11    12    1
    25    11    13   ar
    26    13    14    1
    27    13    15   ar
    28    15    16   ar
    29    16    17    1
    30     6     2    1
    31    16     9   ar
    32    23    18   ar
    33    29    24   ar
    34     1     7    1
    35     1     8    1
@<TRIPOS>MOLECULE
*****
 32 35 0 0 0
SMALL
GASTEIGER

@<TRIPOS>ATOM
      1 N           0.7046    5.1381   25.7601 N.3     1  UNL1       -0.3205
      2 C           0.7751    3.6873   25.3856 C.3     1  UNL1        0.0766
      3 C           2.0242    2.8636   25.2802 C.3     1  UNL1        0.1079
      4 N           1.6300    1.4727   24.8802 N.pl3   1  UNL1       -0.2914
      5 C           0.1371    1.4368   24.7384 C.3     1  UNL1        0.0980
      6 C          -0.3912    2.8055   25.0507 C.3     1  UNL1        0.0602
      7 H           1.6457    5.4900   25.9360 H       1  UNL1        0.1189
      8 H           0.1389    5.2448   26.6022 H       1  UNL1        0.1189
      9 C          -1.8328    3.2196   25.0316 C.ar    1  UNL1        0.0103
     10 C          -2.5569    3.4752   26.3201 C.ar    1  UNL1        0.0300
     11 C          -3.9985    3.8894   26.3010 C.ar    1  UNL1        0.1672
     12 F          -4.7226    4.1450   27.5895 F       1  UNL1       -0.2018
     13 C          -4.7159    4.0479   24.9933 C.ar    1  UNL1        0.1696
     14 F          -6.1575    4.4620   24.9741 F       1  UNL1       -0.2017
     15 C          -3.9918    3.7923   23.7047 C.ar    1  UNL1        0.0612
     16 C          -2.5503    3.3781   23.7239 C.ar    1  UNL1        0.1386
     17 F          -1.8261    3.1225   22.4353 F       1  UNL1       -0.2044
     18 C           2.5645    0.3201   24.6606 C.ar    1  UNL1        0.1350
     19 C           2.7417   -0.2501   23.2846 C.ar    1  UNL1        0.0535
     20 C           3.6762   -1.4026   23.0651 C.ar    1  UNL1        0.0858
     21 N           4.4336   -1.9850   24.2215 N.ar    1  UNL1       -0.2239
     22 C           4.2564   -1.4147   25.5975 C.ar    1  UNL1        0.2000
     23 N           3.3219   -0.2622   25.8170 N.ar    1  UNL1       -0.2090
     24 C           3.8534   -1.9729   21.6890 C.ar    1  UNL1        0.0178
     25 C           4.2927   -3.3970   21.5182 C.ar    1  UNL1        0.0015
     26 C           4.4699   -3.9673   20.1422 C.ar    1  UNL1        0.0001
     27 C           4.2079   -3.1135   18.9370 C.ar    1  UNL1        0.0011
     28 C           3.7687   -1.6895   19.1078 C.ar    1  UNL1        0.0140
     29 C           3.5914   -1.1192   20.4839 C.ar    1  UNL1        0.0026
     30 C           3.5067   -0.8357   17.9027 C.2     1  UNL1        0.0729
     31 O           2.4636    0.2408   17.9585 O.co2   1  UNL1       -0.5446
     32 O           4.2877   -1.0585   16.6416 O.co2   1  UNL1       -0.5446
@<TRIPOS>UNITY_ATOM_ATTR
31 1
charge -1
@<TRIPOS>BOND
     1     1     2    1
     2     2     3    1
     3     3     4    1
     4     4    18    1
     5    18    19   ar
     6    19    20   ar
     7    20    24    1
     8    24    25   ar
     9    25    26   ar
    10    26    27   ar
    11    27    28   ar
    12    28    30    1
    13    30    31   ar
    14    30    32   ar
    15    28    29   ar
    16    20    21   ar
    17    21    22   ar
    18    22    23   ar
    19     4     5    1
    20     5     6    1
    21     6     9    1
    22     9    10   ar
    23    10    11   ar
    24    11    12    1
    25    11    13   ar
    26    13    14    1
    27    13    15   ar
    28    15    16   ar
    29    16    17    1
    30     6     2    1
    31    16     9   ar
    32    23    18   ar
    33    29    24   ar
    34     1     7    1
    35     1     8    1
@<TRIPOS>MOLECULE
*****
 32 35 0 0 0
SMALL
GASTEIGER

@<TRIPOS>ATOM
      1 N           3.9034   -1.2947   16.4405 N.3     1  UNL1       -0.3205
      2 C           4.3218   -1.4844   17.8684 C.3     1  UNL1        0.0766
      3 C           5.3215   -2.4845   18.3688 C.3     1  UNL1        0.1079
      4 N           5.4315   -2.3255   19.8563 N.pl3   1  UNL1       -0.2914
      5 C           4.4997   -1.2272   20.2753 C.3     1  UNL1        0.0980
      6 C           3.8139   -0.7074   19.0467 C.3     1  UNL1        0.0602
      7 H           4.4059   -1.9559   15.8483 H       1  UNL1        0.1189
      8 H           4.1198   -0.3423   16.1465 H       1  UNL1        0.1189
      9 C           2.7984    0.3958   19.0039 C.ar    1  UNL1        0.0103
     10 C           3.1730    1.7389   18.4510 C.ar    1  UNL1        0.0300
     11 C           2.1576    2.8421   18.4082 C.ar    1  UNL1        0.1672
     12 F           2.5322    4.1852   17.8553 F       1  UNL1       -0.2018
     13 C           0.7676    2.6022   18.9183 C.ar    1  UNL1        0.1696
     14 F          -0.2479    3.7054   18.8754 F       1  UNL1       -0.2017
     15 C           0.3929    1.2590   19.4712 C.ar    1  UNL1        0.0612
     16 C           1.4084    0.1559   19.5140 C.ar    1  UNL1        0.1386
     17 F           1.0338   -1.1873   20.0669 F       1  UNL1       -0.2044
     18 C           6.3177   -3.1246   20.7653 C.ar    1  UNL1        0.1350
     19 C           6.1086   -3.0757   22.2498 C.ar    1  UNL1        0.0535
     20 C           6.9948   -3.8748   23.1587 C.ar    1  UNL1        0.0858
     21 N           8.0900   -4.7228   22.5831 N.ar    1  UNL1       -0.2239
     22 C           8.2991   -4.7716   21.0986 C.ar    1  UNL1        0.2000
     23 N           7.4130   -3.9726   20.1897 N.ar    1  UNL1       -0.2090
     24 C           6.7857   -3.8259   24.6433 C.ar    1  UNL1        0.0178
     25 C           6.2053   -2.5975   25.2790 C.ar    1  UNL1        0.0015
     26 C           5.9962   -2.5486   26.7635 C.ar    1  UNL1        0.0001
     27 C           6.3676   -3.7282   27.6125 C.ar    1  UNL1        0.0011
     28 C           6.9480   -4.9566   26.9769 C.ar    1  UNL1        0.0140
     29 C           7.1571   -5.0055   25.4923 C.ar    1  UNL1        0.0026
     30 C           7.3194   -6.1362   27.8258 C.2     1  UNL1        0.0729
     31 O           7.5057   -5.9670   29.3045 O.co2   1  UNL1       -0.5446
     32 O           7.5044   -7.4849   27.1959 O.co2   1  UNL1       -0.5446
@<TRIPOS>UNITY_ATOM_ATTR
31 1
charge -1
@<TRIPOS>BOND
     1     1     2    1
     2     2     3    1
     3     3     4    1
     4     4    18    1
     5    18    19   ar
     6    19    20   ar
     7    20    24    1
     8    24    25   ar
     9    25    26   ar
    10    26    27   ar
    11    27    28   ar
    12    28    30    1
    13    30    31   ar
    14    30    32   ar
    15    28    29   ar
    16    20    21   ar
    17    21    22   ar
    18    22    23   ar
    19     4     5    1
    20     5     6    1
    21     6     9    1
    22     9    10   ar
    23    10    11   ar
    24    11    12    1
    25    11    13   ar
    26    13    14    1
    27    13    15   ar
    28    15    16   ar
    29    16    17    1
    30     6     2    1
    31    16     9   ar
    32    23    18   ar
    33    29    24   ar
    34     1     7    1
    35     1     8    1
@<TRIPOS>MOLECULE
*****
 32 35 0 0 0
SMALL
GASTEIGER

@<TRIPOS>ATOM
      1 N           0.1761    0.9784   26.4035 N.3     1  UNL1       -0.3205
      2 C           0.0774    1.5429   25.0173 C.3     1  UNL1        0.0766
      3 C           0.6524    0.9323   23.7737 C.3     1  UNL1        0.1079
      4 N           0.3168    1.8291   22.6191 N.pl3   1  UNL1       -0.2914
      5 C          -0.4656    2.9940   23.1491 C.3     1  UNL1        0.0980
      6 C          -0.6135    2.8171   24.6312 C.3     1  UNL1        0.0602
      7 H           0.7001    0.1037   26.3779 H       1  UNL1        0.1189
      8 H          -0.7608    0.8031   26.7667 H       1  UNL1        0.1189
      9 C          -1.3272    3.7506   25.5637 C.ar    1  UNL1        0.0103
     10 C          -2.7977    3.5860   25.8096 C.ar    1  UNL1        0.0300
     11 C          -3.5113    4.5195   26.7420 C.ar    1  UNL1        0.1672
     12 F          -4.9818    4.3549   26.9879 F       1  UNL1       -0.2018
     13 C          -2.7543    5.6174   27.4286 C.ar    1  UNL1        0.1696
     14 F          -3.4680    6.5509   28.3610 F       1  UNL1       -0.2017
     15 C          -1.2837    5.7820   27.1827 C.ar    1  UNL1        0.0612
     16 C          -0.5703    4.8486   26.2503 C.ar    1  UNL1        0.1386
     17 F           0.9004    5.0132   26.0044 F       1  UNL1       -0.2044
     18 C           0.6969    1.6011   21.1860 C.ar    1  UNL1        0.1350
     19 C           1.6874    0.5311   20.8339 C.ar    1  UNL1        0.0535
     20 C           2.0674    0.3031   19.4009 C.ar    1  UNL1        0.0858
     21 N           1.4569    1.1450   18.3200 N.ar    1  UNL1       -0.2239
     22 C           0.4663    2.2149   18.6720 C.ar    1  UNL1        0.2000
     23 N           0.0863    2.4430   20.1050 N.ar    1  UNL1       -0.2090
     24 C           3.0581   -0.7669   19.0488 C.ar    1  UNL1        0.0178
     25 C           3.9892   -0.5744   17.8887 C.ar    1  UNL1        0.0015
     26 C           4.9798   -1.6443   17.5365 C.ar    1  UNL1        0.0001
     27 C           5.0393   -2.9067   18.3445 C.ar    1  UNL1        0.0011
     28 C           4.1081   -3.0992   19.5047 C.ar    1  UNL1        0.0140
     29 C           3.1175   -2.0292   19.8568 C.ar    1  UNL1        0.0026
     30 C           4.1676   -4.3615   20.3127 C.2     1  UNL1        0.0729
     31 O           4.5717   -4.3097   21.7563 O.co2   1  UNL1       -0.5446
     32 O           3.8228   -5.6757   19.6771 O.co2   1  UNL1       -0.5446
@<TRIPOS>UNITY_ATOM_ATTR
31 1
charge -1
@<TRIPOS>BOND
     1     1     2    1
     2     2     3    1
     3     3     4    1
     4     4    18    1
     5    18    19   ar
     6    19    20   ar
     7    20    24    1
     8    24    25   ar
     9    25    26   ar
    10    26    27   ar
    11    27    28   ar
    12    28    30    1
    13    30    31   ar
    14    30    32   ar
    15    28    29   ar
    16    20    21   ar
    17    21    22   ar
    18    22    23   ar
    19     4     5    1
    20     5     6    1
    21     6     9    1
    22     9    10   ar
    23    10    11   ar
    24    11    12    1
    25    11    13   ar
    26    13    14    1
    27    13    15   ar
    28    15    16   ar
    29    16    17    1
    30     6     2    1
    31    16     9   ar
    32    23    18   ar
    33    29    24   ar
    34     1     7    1
    35     1     8    1
@<TRIPOS>MOLECULE
*****
 32 35 0 0 0
SMALL
GASTEIGER

@<TRIPOS>ATOM
      1 N           6.4474    0.9184   21.6434 N.3     1  UNL1       -0.3205
      2 C           6.3252   -0.5707   21.5110 C.3     1  UNL1        0.0766
      3 C           7.2830   -1.5862   22.0600 C.3     1  UNL1        0.1079
      4 N           6.7736   -2.9490   21.6946 N.pl3   1  UNL1       -0.2914
      5 C           5.5009   -2.7757   20.9198 C.3     1  UNL1        0.0980
      6 C           5.2238   -1.3059   20.8063 C.3     1  UNL1        0.0602
      7 H           7.2910    1.1448   22.1702 H       1  UNL1        0.1189
      8 H           5.6315    1.2841   22.1344 H       1  UNL1        0.1189
      9 C           4.0512   -0.6809   20.1103 C.ar    1  UNL1        0.0103
     10 C           2.6651   -0.8852   20.6458 C.ar    1  UNL1        0.0300
     11 C           1.4925   -0.2602   19.9498 C.ar    1  UNL1        0.1672
     12 F           0.1063   -0.4645   20.4853 F       1  UNL1       -0.2018
     13 C           1.7061    0.5690   18.7183 C.ar    1  UNL1        0.1696
     14 F           0.5334    1.1940   18.0223 F       1  UNL1       -0.2017
     15 C           3.0923    0.7733   18.1827 C.ar    1  UNL1        0.0612
     16 C           4.2648    0.1484   18.8787 C.ar    1  UNL1        0.1386
     17 F           5.6510    0.3526   18.3432 F       1  UNL1       -0.2044
     18 C           7.4228   -4.2556   22.0430 C.ar    1  UNL1        0.1350
     19 C           7.4026   -4.7490   23.4593 C.ar    1  UNL1        0.0535
     20 C           8.0519   -6.0556   23.8076 C.ar    1  UNL1        0.0858
     21 N           8.7213   -6.8687   22.7395 N.ar    1  UNL1       -0.2239
     22 C           8.7415   -6.3753   21.3232 C.ar    1  UNL1        0.2000
     23 N           8.0922   -5.0687   20.9749 N.ar    1  UNL1       -0.2090
     24 C           8.0317   -6.5491   25.2240 C.ar    1  UNL1        0.0178
     25 C           8.6207   -7.8870   25.5605 C.ar    1  UNL1        0.0015
     26 C           8.6006   -8.3805   26.9768 C.ar    1  UNL1        0.0001
     27 C           7.9915   -7.5362   28.0567 C.ar    1  UNL1        0.0011
     28 C           7.4025   -6.1983   27.7202 C.ar    1  UNL1        0.0140
     29 C           7.4227   -5.7048   26.3038 C.ar    1  UNL1        0.0026
     30 C           6.7935   -5.3539   28.8000 C.2     1  UNL1        0.0729
     31 O           6.1284   -4.0555   28.4514 O.co2   1  UNL1       -0.5446
     32 O           6.8495   -5.8081   30.2285 O.co2   1  UNL1       -0.5446
@<TRIPOS>UNITY_ATOM_ATTR
31 1
charge -1
@<TRIPOS>BOND
     1     1     2    1
     2     2     3    1
     3     3     4    1
     4     4    18    1
     5    18    19   ar
     6    19    20   ar
     7    20    24    1
     8    24    25   ar
     9    25    26   ar
    10    26    27   ar
    11    27    28   ar
    12    28    30    1
    13    30    31   ar
    14    30    32   ar
    15    28    29   ar
    16    20    21   ar
    17    21    22   ar
    18    22    23   ar
    19     4     5    1
    20     5     6    1
    21     6     9    1
    22     9    10   ar
    23    10    11   ar
    24    11    12    1
    25    11    13   ar
    26    13    14    1
    27    13    15   ar
    28    15    16   ar
    29    16    17    1
    30     6     2    1
    31    16     9   ar
    32    23    18   ar
    33    29    24   ar
    34     1     7    1
    35     1     8    1
@<TRIPOS>MOLECULE
*****
 32 35 0 0 0
SMALL
GASTEIGER

@<TRIPOS>ATOM
      1 N           1.2382   -0.3523   30.1626 N.3     1  UNL1       -0.3205
      2 C           2.5607   -0.6448   29.5183 C.3     1  UNL1        0.0766
      3 C           2.7912   -0.9133   28.0606 C.3     1  UNL1        0.1079
      4 N           4.2580   -1.1547   27.8600 N.pl3   1  UNL1       -0.2914
      5 C           4.9341   -1.0354   29.1936 C.3     1  UNL1        0.0980
      6 C           3.8852   -0.7203   30.2185 C.3     1  UNL1        0.0602
      7 H           0.5049   -0.3624   29.4536 H       1  UNL1        0.1189
      8 H           1.2711    0.5664   30.6045 H       1  UNL1        0.1189
      9 C           4.1195   -0.5165   31.6860 C.ar    1  UNL1        0.0103
     10 C           3.7367    0.7813   32.3335 C.ar    1  UNL1        0.0300
     11 C           3.9710    0.9851   33.8010 C.ar    1  UNL1        0.1672
     12 F           3.5883    2.2829   34.4485 F       1  UNL1       -0.2018
     13 C           4.5880   -0.1089   34.6210 C.ar    1  UNL1        0.1696
     14 F           4.8223    0.0949   36.0885 F       1  UNL1       -0.2017
     15 C           4.9708   -1.4068   33.9735 C.ar    1  UNL1        0.0612
     16 C           4.7365   -1.6105   32.5061 C.ar    1  UNL1        0.1386
     17 F           5.1193   -2.9084   31.8585 F       1  UNL1       -0.2044
     18 C           4.9306   -1.4615   26.5547 C.ar    1  UNL1        0.1350
     19 C           4.1590   -1.3638   25.2722 C.ar    1  UNL1        0.0535
     20 C           4.8316   -1.6706   23.9671 C.ar    1  UNL1        0.0858
     21 N           6.2759   -2.0750   23.9445 N.ar    1  UNL1       -0.2239
     22 C           7.0475   -2.1726   25.2270 C.ar    1  UNL1        0.2000
     23 N           6.3749   -1.8659   26.5321 N.ar    1  UNL1       -0.2090
     24 C           4.0599   -1.5730   22.6844 C.ar    1  UNL1        0.0178
     25 C           2.9712   -0.5513   22.5401 C.ar    1  UNL1        0.0015
     26 C           2.1995   -0.4537   21.2576 C.ar    1  UNL1        0.0001
     27 C           2.5166   -1.3777   20.1192 C.ar    1  UNL1        0.0011
     28 C           3.6054   -2.3993   20.2635 C.ar    1  UNL1        0.0140
     29 C           4.3771   -2.4970   21.5462 C.ar    1  UNL1        0.0026
     30 C           3.9225   -3.3233   19.1253 C.2     1  UNL1        0.0729
     31 O           4.9950   -2.9607   18.1413 O.co2   1  UNL1       -0.5446
     32 O           3.1671   -4.6100   18.9710 O.co2   1  UNL1       -0.5446
@<TRIPOS>UNITY_ATOM_ATTR
31 1
charge -1
@<TRIPOS>BOND
     1     1     2    1
     2     2     3    1
     3     3     4    1
     4     4    18    1
     5    18    19   ar
     6    19    20   ar
     7    20    24    1
     8    24    25   ar
     9    25    26   ar
    10    26    27   ar
    11    27    28   ar
    12    28    30    1
    13    30    31   ar
    14    30    32   ar
    15    28    29   ar
    16    20    21   ar
    17    21    22   ar
    18    22    23   ar
    19     4     5    1
    20     5     6    1
    21     6     9    1
    22     9    10   ar
    23    10    11   ar
    24    11    12    1
    25    11    13   ar
    26    13    14    1
    27    13    15   ar
    28    15    16   ar
    29    16    17    1
    30     6     2    1
    31    16     9   ar
    32    23    18   ar
    33    29    24   ar
    34     1     7    1
    35     1     8    1
