@<TRIPOS>MOLECULE
*****
 17 18 0 0 0
SMALL
GASTEIGER

@<TRIPOS>ATOM
      1 O          -7.7752  -14.7960   21.0166 O.2     1  UNL1       -0.2956
      2 C          -8.1138  -15.4311   22.3326 C.2     1  UNL1        0.1576
      3 C          -7.4408  -15.1544   23.6444 C.3     1  UNL1        0.0718
      4 C          -8.0960  -16.0068   24.6904 C.3     1  UNL1        0.0589
      5 C          -6.9886  -15.1414   25.2144 C.3     1  UNL1        0.0074
      6 C          -6.6290  -15.1829   26.6700 C.3     1  UNL1        0.0004
      7 C          -7.3768  -16.0899   27.6017 C.3     1  UNL1        0.0000
      8 C          -8.4843  -16.9554   27.0778 C.3     1  UNL1        0.0004
      9 C          -8.8439  -16.9138   25.6221 C.3     1  UNL1        0.0074
     10 C          -9.1740  -16.8102   24.0252 C.2     1  UNL1        0.1568
     11 O         -10.0816  -17.7963   24.6989 O.2     1  UNL1       -0.2956
     12 C          -9.1851  -16.4545   22.5680 C.3     1  UNL1        0.1162
     13 C         -10.1056  -17.0223   21.5288 C.3     1  UNL1        0.0323
     14 C         -11.4241  -16.3623   21.2537 C.3     1  UNL1        0.0970
     15 CL        -11.7665  -15.9223   19.8612 Cl      1  UNL1       -0.1136
     16 C         -12.4004  -16.1423   22.3710 C.3     1  UNL1        0.1110
     17 CL        -13.0132  -17.3172   23.0738 Cl      1  UNL1       -0.1124
@<TRIPOS>BOND
     1     1     2    2
     2     2     3    1
     3     3     4    1
     4     4     5    1
     5     5     6    1
     6     6     7    1
     7     7     8    1
     8     8     9    1
     9     4    10    1
    10    10    11    2
    11    10    12    1
    12    12    13    1
    13    13    14    1
    14    14    15    1
    15    14    16    1
    16    16    17    1
    17    12     2    1
    18     9     4    1
@<TRIPOS>MOLECULE
*****
 17 18 0 0 0
SMALL
GASTEIGER

@<TRIPOS>ATOM
      1 O          -9.0705  -17.5018   26.7190 O.2     1  UNL1       -0.2956
      2 C          -9.2060  -17.5107   25.2252 C.2     1  UNL1        0.1576
      3 C          -9.9029  -18.5589   24.4092 C.3     1  UNL1        0.0718
      4 C          -9.7959  -18.1690   22.9647 C.3     1  UNL1        0.0589
      5 C         -10.5405  -19.4502   23.1973 C.3     1  UNL1        0.0074
      6 C         -11.0985  -20.2151   22.0340 C.3     1  UNL1        0.0004
      7 C         -10.9120  -19.6989   20.6380 C.3     1  UNL1        0.0000
      8 C         -10.1674  -18.4177   20.4054 C.3     1  UNL1        0.0004
      9 C          -9.6094  -17.6528   21.5688 C.3     1  UNL1        0.0074
     10 C          -9.0330  -16.8798   22.8879 C.2     1  UNL1        0.1568
     11 O          -8.6941  -16.1293   21.6342 O.2     1  UNL1       -0.2956
     12 C          -8.6683  -16.4729   24.2849 C.3     1  UNL1        0.1162
     13 C          -7.9009  -15.2441   24.6734 C.3     1  UNL1        0.0323
     14 C          -6.4204  -15.3250   24.9003 C.3     1  UNL1        0.0970
     15 CL         -5.4765  -15.2108   23.7402 Cl      1  UNL1       -0.1136
     16 C          -5.8838  -15.5202   26.2873 C.3     1  UNL1        0.1110
     17 CL         -6.7308  -15.1714   27.4752 Cl      1  UNL1       -0.1124
@<TRIPOS>BOND
     1     1     2    2
     2     2     3    1
     3     3     4    1
     4     4     5    1
     5     5     6    1
     6     6     7    1
     7     7     8    1
     8     8     9    1
     9     4    10    1
    10    10    11    2
    11    10    12    1
    12    12    13    1
    13    13    14    1
    14    14    15    1
    15    14    16    1
    16    16    17    1
    17    12     2    1
    18     9     4    1
@<TRIPOS>MOLECULE
*****
 17 18 0 0 0
SMALL
GASTEIGER

@<TRIPOS>ATOM
      1 O          -8.1021  -19.2919   18.9805 O.2     1  UNL1       -0.2956
      2 C          -8.8214  -19.1798   20.2920 C.2     1  UNL1        0.1576
      3 C         -10.2135  -18.6579   20.4923 C.3     1  UNL1        0.0718
      4 C         -10.5274  -18.7255   21.9576 C.3     1  UNL1        0.0589
      5 C         -11.6436  -18.1767   21.1191 C.3     1  UNL1        0.0074
      6 C         -12.9296  -17.7547   21.7656 C.3     1  UNL1        0.0004
      7 C         -13.0995  -17.8816   23.2505 C.3     1  UNL1        0.0000
      8 C         -11.9834  -18.4304   24.0890 C.3     1  UNL1        0.0004
      9 C         -10.6974  -18.8524   23.4425 C.3     1  UNL1        0.0074
     10 C          -9.3295  -19.2892   22.6628 C.2     1  UNL1        0.1568
     11 O          -9.2074  -19.5298   24.1383 O.2     1  UNL1       -0.2956
     12 C          -8.2751  -19.5699   21.6334 C.3     1  UNL1        0.1162
     13 C          -6.9137  -20.1406   21.8989 C.3     1  UNL1        0.0323
     14 C          -5.6887  -19.3271   21.6026 C.3     1  UNL1        0.0970
     15 CL         -5.1503  -18.3795   22.6331 Cl      1  UNL1       -0.1136
     16 C          -5.0021  -19.4614   20.2757 C.3     1  UNL1        0.1110
     17 CL         -4.0245  -20.5757   20.0464 Cl      1  UNL1       -0.1124
@<TRIPOS>BOND
     1     1     2    2
     2     2     3    1
     3     3     4    1
     4     4     5    1
     5     5     6    1
     6     6     7    1
     7     7     8    1
     8     8     9    1
     9     4    10    1
    10    10    11    2
    11    10    12    1
    12    12    13    1
    13    13    14    1
    14    14    15    1
    15    14    16    1
    16    16    17    1
    17    12     2    1
    18     9     4    1
@<TRIPOS>MOLECULE
*****
 17 18 0 0 0
SMALL
GASTEIGER

@<TRIPOS>ATOM
      1 O          -7.7253  -14.7792   21.3558 O.2     1  UNL1       -0.2956
      2 C          -8.3531  -15.8701   22.1717 C.2     1  UNL1        0.1576
      3 C          -9.0847  -17.0640   21.6336 C.3     1  UNL1        0.0718
      4 C          -9.5433  -17.8904   22.7984 C.3     1  UNL1        0.0589
      5 C          -9.9234  -18.4557   21.4620 C.3     1  UNL1        0.0074
      6 C         -10.6947  -19.7397   21.3827 C.3     1  UNL1        0.0004
      7 C         -11.0859  -20.4585   22.6399 C.3     1  UNL1        0.0000
      8 C         -10.7059  -19.8932   23.9762 C.3     1  UNL1        0.0004
      9 C          -9.9346  -18.6092   24.0555 C.3     1  UNL1        0.0074
     10 C          -9.0951  -17.2073   24.0564 C.2     1  UNL1        0.1568
     11 O          -9.3396  -17.6884   25.4560 O.2     1  UNL1       -0.2956
     12 C          -8.3596  -15.9587   23.6691 C.3     1  UNL1        0.1162
     13 C          -7.7394  -14.9720   24.6134 C.3     1  UNL1        0.0323
     14 C          -6.5486  -15.3671   25.4355 C.3     1  UNL1        0.0970
     15 CL         -5.2358  -15.6491   24.7670 Cl      1  UNL1       -0.1136
     16 C          -6.6706  -15.4802   26.9263 C.3     1  UNL1        0.1110
     17 CL         -8.0256  -15.4856   27.5696 Cl      1  UNL1       -0.1124
@<TRIPOS>BOND
     1     1     2    2
     2     2     3    1
     3     3     4    1
     4     4     5    1
     5     5     6    1
     6     6     7    1
     7     7     8    1
     8     8     9    1
     9     4    10    1
    10    10    11    2
    11    10    12    1
    12    12    13    1
    13    13    14    1
    14    14    15    1
    15    14    16    1
    16    16    17    1
    17    12     2    1
    18     9     4    1
@<TRIPOS>MOLECULE
*****
 17 18 0 0 0
SMALL
GASTEIGER

@<TRIPOS>ATOM
      1 O         -11.4136  -18.9287   24.4796 O.2     1  UNL1       -0.2956
      2 C         -10.1793  -18.0784   24.4201 C.2     1  UNL1        0.1576
      3 C          -9.4797  -17.4565   25.5924 C.3     1  UNL1        0.0718
      4 C          -8.2959  -16.6945   25.0748 C.3     1  UNL1        0.0589
      5 C          -8.4569  -16.6333   26.5648 C.3     1  UNL1        0.0074
      6 C          -7.4772  -15.8568   27.3937 C.3     1  UNL1        0.0004
      7 C          -6.3365  -15.1414   26.7325 C.3     1  UNL1        0.0000
      8 C          -6.1755  -15.2026   25.2425 C.3     1  UNL1        0.0004
      9 C          -7.1552  -15.9791   24.4136 C.3     1  UNL1        0.0074
     10 C          -8.2638  -16.8454   23.5827 C.2     1  UNL1        0.1568
     11 O          -7.2464  -16.2462   22.6576 O.2     1  UNL1       -0.2956
     12 C          -9.4278  -17.7007   23.1781 C.3     1  UNL1        0.1162
     13 C          -9.7787  -18.1069   21.7775 C.3     1  UNL1        0.0323
     14 C         -10.8038  -17.3301   21.0058 C.3     1  UNL1        0.0970
     15 CL        -11.2976  -17.8445   19.6862 Cl      1  UNL1       -0.1136
     16 C         -11.3351  -16.0387   21.5537 C.3     1  UNL1        0.1110
     17 CL        -12.5034  -16.0474   22.4944 Cl      1  UNL1       -0.1124
@<TRIPOS>BOND
     1     1     2    2
     2     2     3    1
     3     3     4    1
     4     4     5    1
     5     5     6    1
     6     6     7    1
     7     7     8    1
     8     8     9    1
     9     4    10    1
    10    10    11    2
    11    10    12    1
    12    12    13    1
    13    13    14    1
    14    14    15    1
    15    14    16    1
    16    16    17    1
    17    12     2    1
    18     9     4    1
@<TRIPOS>MOLECULE
*****
 17 18 0 0 0
SMALL
GASTEIGER

@<TRIPOS>ATOM
      1 O          -9.0835  -20.6570   18.2955 O.2     1  UNL1       -0.2956
      2 C          -9.2686  -19.6948   19.4312 C.2     1  UNL1        0.1576
      3 C         -10.5816  -19.2085   19.9697 C.3     1  UNL1        0.0718
      4 C         -10.2978  -18.2631   21.0992 C.3     1  UNL1        0.0589
      5 C         -11.7585  -18.4612   20.8217 C.3     1  UNL1        0.0074
      6 C         -12.7830  -17.7403   21.6467 C.3     1  UNL1        0.0004
      7 C         -12.3469  -16.8215   22.7492 C.3     1  UNL1        0.0000
      8 C         -10.8861  -16.6234   23.0266 C.3     1  UNL1        0.0004
      9 C          -9.8616  -17.3442   22.2016 C.3     1  UNL1        0.0074
     10 C          -8.8094  -18.1651   21.2588 C.2     1  UNL1        0.1568
     11 O          -8.0845  -17.3291   22.2714 O.2     1  UNL1       -0.2956
     12 C          -8.1734  -19.0499   20.2279 C.3     1  UNL1        0.1162
     13 C          -6.7009  -19.2540   20.0288 C.3     1  UNL1        0.0323
     14 C          -5.8756  -19.8738   21.1173 C.3     1  UNL1        0.0970
     15 CL         -6.5412  -20.6581   22.2089 Cl      1  UNL1       -0.1136
     16 C          -4.3847  -19.7092   21.1142 C.3     1  UNL1        0.1110
     17 CL         -3.5956  -20.0455   19.8837 Cl      1  UNL1       -0.1124
@<TRIPOS>BOND
     1     1     2    2
     2     2     3    1
     3     3     4    1
     4     4     5    1
     5     5     6    1
     6     6     7    1
     7     7     8    1
     8     8     9    1
     9     4    10    1
    10    10    11    2
    11    10    12    1
    12    12    13    1
    13    13    14    1
    14    14    15    1
    15    14    16    1
    16    16    17    1
    17    12     2    1
    18     9     4    1
@<TRIPOS>MOLECULE
*****
 17 18 0 0 0
SMALL
GASTEIGER

@<TRIPOS>ATOM
      1 O         -11.5502  -18.5367   24.1606 O.2     1  UNL1       -0.2956
      2 C         -10.2756  -17.7459   24.1455 C.2     1  UNL1        0.1576
      3 C          -9.5148  -17.2767   25.3501 C.3     1  UNL1        0.0718
      4 C          -8.3071  -16.5263   24.8723 C.3     1  UNL1        0.0589
      5 C          -8.4260  -16.6036   26.3655 C.3     1  UNL1        0.0074
      6 C          -7.3864  -15.9607   27.2349 C.3     1  UNL1        0.0004
      7 C          -6.2279  -15.2405   26.6111 C.3     1  UNL1        0.0000
      8 C          -6.1090  -15.1632   25.1178 C.3     1  UNL1        0.0004
      9 C          -7.1486  -15.8061   24.2485 C.3     1  UNL1        0.0074
     10 C          -8.3215  -16.5318   23.3723 C.2     1  UNL1        0.1568
     11 O          -7.2988  -15.8952   22.4785 O.2     1  UNL1       -0.2956
     12 C          -9.5381  -17.2855   22.9231 C.3     1  UNL1        0.1162
     13 C          -9.9456  -17.5350   21.5014 C.3     1  UNL1        0.0323
     14 C          -9.8353  -18.9135   20.9204 C.3     1  UNL1        0.0970
     15 CL        -10.9801  -19.8743   21.0465 Cl      1  UNL1       -0.1136
     16 C          -8.5801  -19.3312   20.2133 C.3     1  UNL1        0.1110
     17 CL         -8.6615  -20.0033   18.8748 Cl      1  UNL1       -0.1124
@<TRIPOS>BOND
     1     1     2    2
     2     2     3    1
     3     3     4    1
     4     4     5    1
     5     5     6    1
     6     6     7    1
     7     7     8    1
     8     8     9    1
     9     4    10    1
    10    10    11    2
    11    10    12    1
    12    12    13    1
    13    13    14    1
    14    14    15    1
    15    14    16    1
    16    16    17    1
    17    12     2    1
    18     9     4    1
@<TRIPOS>MOLECULE
*****
 17 18 0 0 0
SMALL
GASTEIGER

@<TRIPOS>ATOM
      1 O         -12.3316  -16.5025   23.0116 O.2     1  UNL1       -0.2956
      2 C         -11.1129  -17.2161   22.5059 C.2     1  UNL1        0.1576
      3 C         -10.9991  -17.9524   21.2040 C.3     1  UNL1        0.0718
      4 C          -9.6099  -18.5100   21.1068 C.3     1  UNL1        0.0589
      5 C         -10.4779  -18.8250   19.9247 C.3     1  UNL1        0.0074
      6 C          -9.9297  -19.6325   18.7857 C.3     1  UNL1        0.0004
      7 C          -8.5135  -20.1250   18.8288 C.3     1  UNL1        0.0000
      8 C          -7.6455  -19.8101   20.0109 C.3     1  UNL1        0.0004
      9 C          -8.1937  -19.0026   21.1499 C.3     1  UNL1        0.0074
     10 C          -8.8653  -18.1183   22.3486 C.2     1  UNL1        0.1568
     11 O          -7.4417  -18.4653   22.6693 O.2     1  UNL1       -0.2956
     12 C          -9.7941  -17.3186   23.2133 C.3     1  UNL1        0.1162
     13 C          -9.4625  -16.7256   24.5505 C.3     1  UNL1        0.0323
     14 C          -8.2934  -15.7963   24.6897 C.3     1  UNL1        0.0970
     15 CL         -7.6776  -15.1777   23.4699 Cl      1  UNL1       -0.1136
     16 C          -7.7400  -15.4854   26.0488 C.3     1  UNL1        0.1110
     17 CL         -8.1665  -16.2972   27.2359 Cl      1  UNL1       -0.1124
@<TRIPOS>BOND
     1     1     2    2
     2     2     3    1
     3     3     4    1
     4     4     5    1
     5     5     6    1
     6     6     7    1
     7     7     8    1
     8     8     9    1
     9     4    10    1
    10    10    11    2
    11    10    12    1
    12    12    13    1
    13    13    14    1
    14    14    15    1
    15    14    16    1
    16    16    17    1
    17    12     2    1
    18     9     4    1
@<TRIPOS>MOLECULE
*****
 17 18 0 0 0
SMALL
GASTEIGER

@<TRIPOS>ATOM
      1 O          -8.4033  -20.6285   18.6068 O.2     1  UNL1       -0.2956
      2 C          -8.1649  -19.7741   19.8164 C.2     1  UNL1        0.1576
      3 C          -9.1808  -18.9040   20.4954 C.3     1  UNL1        0.0718
      4 C          -8.5126  -18.2319   21.6581 C.3     1  UNL1        0.0589
      5 C          -9.9585  -17.8690   21.4922 C.3     1  UNL1        0.0074
      6 C         -10.6055  -16.9105   22.4475 C.3     1  UNL1        0.0004
      7 C          -9.8065  -16.3149   23.5687 C.3     1  UNL1        0.0000
      8 C          -8.3606  -16.6778   23.7345 C.3     1  UNL1        0.0004
      9 C          -7.7136  -17.6363   22.7792 C.3     1  UNL1        0.0074
     10 C          -7.0836  -18.6867   21.6976 C.2     1  UNL1        0.1568
     11 O          -6.0510  -18.2627   22.6995 O.2     1  UNL1       -0.2956
     12 C          -6.8688  -19.6398   20.5595 C.3     1  UNL1        0.1162
     13 C          -5.5836  -20.3362   20.2234 C.3     1  UNL1        0.0323
     14 C          -4.2792  -19.6073   20.3539 C.3     1  UNL1        0.0970
     15 CL         -3.3826  -19.8781   21.5255 Cl      1  UNL1       -0.1136
     16 C          -3.8712  -18.6075   19.3127 C.3     1  UNL1        0.1110
     17 CL         -2.4175  -18.3748   19.0253 Cl      1  UNL1       -0.1124
@<TRIPOS>BOND
     1     1     2    2
     2     2     3    1
     3     3     4    1
     4     4     5    1
     5     5     6    1
     6     6     7    1
     7     7     8    1
     8     8     9    1
     9     4    10    1
    10    10    11    2
    11    10    12    1
    12    12    13    1
    13    13    14    1
    14    14    15    1
    15    14    16    1
    16    16    17    1
    17    12     2    1
    18     9     4    1
