@<TRIPOS>MOLECULE
*****
 37 42 0 0 0
SMALL
GASTEIGER

@<TRIPOS>ATOM
      1 C           6.2781   -2.3281   28.8812 C.ar    1  UNL1        0.0640
      2 C           6.4093   -3.0500   27.5729 C.ar    1  UNL1        0.1010
      3 C           6.7280   -4.5156   27.5535 C.ar    1  UNL1        0.1104
      4 N           6.9154   -5.2594   28.8427 N.ar    1  UNL1       -0.2414
      5 C           6.7841   -4.5376   30.1509 C.ar    1  UNL1        0.1032
      6 C           6.4655   -3.0719   30.1702 C.ar    1  UNL1        0.0677
      7 C           6.3342   -2.3501   31.4786 C.ar    1  UNL1        0.1480
      8 C           5.0962   -2.2716   32.3219 C.ar    1  UNL1        0.0406
      9 C           5.4149   -1.4530   33.5378 C.ar    1  UNL1        0.0373
     10 C           4.5838   -1.0415   34.7168 C.ar    1  UNL1        0.0002
     11 C           5.1876   -0.2027   35.8040 C.ar    1  UNL1       -0.0059
     12 C           6.6225    0.2246   35.7120 C.ar    1  UNL1        0.0002
     13 C           7.4536   -0.1868   34.5330 C.ar    1  UNL1        0.0372
     14 C           6.8498   -1.0256   33.4459 C.ar    1  UNL1        0.1453
     15 O           7.4180   -1.5800   32.1732 O.2     1  UNL1       -0.4534
     16 C           4.3566    0.2087   36.9830 C.3     1  UNL1        0.0992
     17 N           3.4857    1.4271   36.8980 N.3     1  UNL1       -0.2665
     18 C           2.8447    1.9787   38.1369 C.3     1  UNL1        0.0899
     19 C           1.9738    3.1970   38.0520 C.3     1  UNL1        0.0897
     20 N           1.7438    3.8637   36.7280 N.3     1  UNL1       -0.2691
     21 C           0.8729    5.0821   36.6431 C.3     1  UNL1        0.0897
     22 C           2.3848    3.3121   35.4892 C.3     1  UNL1        0.0897
     23 C           3.2557    2.0938   35.5742 C.3     1  UNL1        0.0899
     24 N           5.9594   -0.8625   28.9005 N.pl3   1  UNL1       -0.3123
     25 H           6.6671   -0.2024   28.7194 H       1  UNL1        0.1522
     26 C           5.4794    1.2210   31.0049 C.3     1  UNL1        0.0284
     27 C           4.3225    0.6392   30.2479 C.2     1  UNL1       -0.0212
     28 C           4.5624   -0.4025   29.1957 C.2     1  UNL1        0.0410
     29 C           3.4056   -0.9843   28.4387 C.2     1  UNL1        0.0152
     30 C           2.0086   -0.5244   28.7339 C.2     1  UNL1        0.0166
     31 C           1.7687    0.5174   29.7861 C.2     1  UNL1        0.0666
     32 N           0.5124    1.1622   30.2920 N.2     1  UNL1       -0.2478
     33 C           0.8929    2.1425   31.3616 C.2     1  UNL1        0.0946
     34 C           2.3843    2.1036   31.5168 C.2     1  UNL1        0.0042
     35 C           2.9256    1.0992   30.5431 C.3     1  UNL1        0.0831
     36 C           6.2219   -2.3062   26.2838 C.1     1  UNL1        0.1032
     37 N           6.0345   -1.5624   24.9948 N.1     1  UNL1       -0.1907
@<TRIPOS>BOND
     1    26    27    1
     2    27    28    2
     3    28    24    1
     4    24     1    1
     5     1     2   ar
     6     2    36    1
     7    36    37    3
     8     2     3   ar
     9     3     4   ar
    10     4     5   ar
    11     5     6   ar
    12     6     7    1
    13     7     8   ar
    14     8     9   ar
    15     9    10   ar
    16    10    11   ar
    17    11    16    1
    18    16    17    1
    19    17    18    1
    20    18    19    1
    21    19    20    1
    22    20    21    1
    23    20    22    1
    24    22    23    1
    25    11    12   ar
    26    12    13   ar
    27    13    14   ar
    28    14    15   ar
    29    28    29    1
    30    29    30    2
    31    30    31    1
    32    31    32    2
    33    32    33    1
    34    33    34    2
    35    34    35    1
    36    35    27    1
    37     6     1   ar
    38    15     7   ar
    39    35    31    1
    40    14     9   ar
    41    23    17    1
    42    24    25    1
@<TRIPOS>MOLECULE
*****
 37 42 0 0 0
SMALL
GASTEIGER

@<TRIPOS>ATOM
      1 C           3.9933   -1.6037   19.1294 C.ar    1  UNL1        0.0640
      2 C           4.7941   -2.8462   18.8746 C.ar    1  UNL1        0.1010
      3 C           6.0392   -2.7783   18.0409 C.ar    1  UNL1        0.1104
      4 N           6.4835   -1.4677   17.4619 N.ar    1  UNL1       -0.2414
      5 C           5.6828   -0.2252   17.7167 C.ar    1  UNL1        0.1032
      6 C           4.4376   -0.2932   18.5505 C.ar    1  UNL1        0.0677
      7 C           3.6369    0.9494   18.8052 C.ar    1  UNL1        0.1480
      8 C           2.3527    1.3252   18.1272 C.ar    1  UNL1        0.0406
      9 C           1.9020    2.6423   18.6857 C.ar    1  UNL1        0.0373
     10 C           0.7057    3.4993   18.3948 C.ar    1  UNL1        0.0002
     11 C           0.5150    4.7945   19.1270 C.ar    1  UNL1       -0.0059
     12 C           1.5206    5.2326   20.1502 C.ar    1  UNL1        0.0002
     13 C           2.7168    4.3757   20.4412 C.ar    1  UNL1        0.0372
     14 C           2.9075    3.0805   19.7089 C.ar    1  UNL1        0.1453
     15 O           3.9798    2.0342   19.7828 O.2     1  UNL1       -0.4534
     16 C          -0.6812    5.6515   18.8361 C.3     1  UNL1        0.0992
     17 N          -2.0535    5.0459   18.8281 N.3     1  UNL1       -0.2665
     18 C          -2.5396    4.2739   20.0187 C.3     1  UNL1        0.0899
     19 C          -3.9119    3.6683   20.0106 C.3     1  UNL1        0.0897
     20 N          -4.7981    3.8348   18.8118 N.3     1  UNL1       -0.2691
     21 C          -6.1704    3.2292   18.8038 C.3     1  UNL1        0.0897
     22 C          -4.3120    4.6068   17.6213 C.3     1  UNL1        0.0897
     23 C          -2.9397    5.2124   17.6293 C.3     1  UNL1        0.0899
     24 N           2.7482   -1.6716   19.9631 N.pl3   1  UNL1       -0.3123
     25 H           1.9243   -2.0577   19.5870 H       1  UNL1        0.1522
     26 C           0.6147    0.2304   20.8743 C.3     1  UNL1        0.0284
     27 C           1.6916   -0.2002   21.8256 C.2     1  UNL1       -0.0212
     28 C           2.7584   -1.1512   21.3700 C.2     1  UNL1        0.0410
     29 C           3.8352   -1.5818   22.3212 C.2     1  UNL1        0.0152
     30 C           3.8454   -1.0615   23.7281 C.2     1  UNL1        0.0166
     31 C           2.7786   -0.1105   24.1836 C.2     1  UNL1        0.0666
     32 N           2.5312    0.5643   25.5002 N.2     1  UNL1       -0.2478
     33 C           1.3014    1.4120   25.3626 C.2     1  UNL1        0.0946
     34 C           0.7887    1.2611   23.9611 C.2     1  UNL1        0.0042
     35 C           1.7017    0.3201   23.2324 C.3     1  UNL1        0.0831
     36 C           4.3497   -4.1567   19.4535 C.1     1  UNL1        0.1032
     37 N           3.9054   -5.4671   20.0325 N.1     1  UNL1       -0.1907
@<TRIPOS>BOND
     1    26    27    1
     2    27    28    2
     3    28    24    1
     4    24     1    1
     5     1     2   ar
     6     2    36    1
     7    36    37    3
     8     2     3   ar
     9     3     4   ar
    10     4     5   ar
    11     5     6   ar
    12     6     7    1
    13     7     8   ar
    14     8     9   ar
    15     9    10   ar
    16    10    11   ar
    17    11    16    1
    18    16    17    1
    19    17    18    1
    20    18    19    1
    21    19    20    1
    22    20    21    1
    23    20    22    1
    24    22    23    1
    25    11    12   ar
    26    12    13   ar
    27    13    14   ar
    28    14    15   ar
    29    28    29    1
    30    29    30    2
    31    30    31    1
    32    31    32    2
    33    32    33    1
    34    33    34    2
    35    34    35    1
    36    35    27    1
    37     6     1   ar
    38    15     7   ar
    39    35    31    1
    40    14     9   ar
    41    23    17    1
    42    24    25    1
@<TRIPOS>MOLECULE
*****
 37 42 0 0 0
SMALL
GASTEIGER

@<TRIPOS>ATOM
      1 C           0.9924    1.5314   19.7993 C.ar    1  UNL1        0.0640
      2 C          -0.0589    2.5931   19.9324 C.ar    1  UNL1        0.1010
      3 C          -0.7262    2.8263   21.2554 C.ar    1  UNL1        0.1104
      4 N          -0.3422    1.9977   22.4454 N.ar    1  UNL1       -0.2414
      5 C           0.7090    0.9360   22.3124 C.ar    1  UNL1        0.1032
      6 C           1.3763    0.7028   20.9893 C.ar    1  UNL1        0.0677
      7 C           2.4275   -0.3589   20.8563 C.ar    1  UNL1        0.1480
      8 C           3.7964   -0.3259   21.4687 C.ar    1  UNL1        0.0406
      9 C           4.5092   -1.5867   21.0784 C.ar    1  UNL1        0.0373
     10 C           5.8838   -2.1001   21.3900 C.ar    1  UNL1        0.0002
     11 C           6.3300   -3.4257   20.8481 C.ar    1  UNL1       -0.0059
     12 C           5.4016   -4.2379   19.9945 C.ar    1  UNL1        0.0002
     13 C           4.0271   -3.7245   19.6829 C.ar    1  UNL1        0.0372
     14 C           3.5809   -2.3989   20.2249 C.ar    1  UNL1        0.1453
     15 O           2.2943   -1.6401   20.0876 O.2     1  UNL1       -0.4534
     16 C           7.7045   -3.9392   21.1596 C.3     1  UNL1        0.0992
     17 N           7.9057   -4.9066   22.2881 N.3     1  UNL1       -0.2665
     18 C           8.7834   -6.1081   22.0985 C.3     1  UNL1        0.0899
     19 C           8.9846   -7.0756   23.2271 C.3     1  UNL1        0.0897
     20 N           8.3080   -6.8415   24.5453 N.3     1  UNL1       -0.2691
     21 C           8.5092   -7.8089   25.6738 C.3     1  UNL1        0.0897
     22 C           7.4304   -5.6400   24.7348 C.3     1  UNL1        0.0897
     23 C           7.2292   -4.6726   23.6063 C.3     1  UNL1        0.0899
     24 N           1.6597    1.2982   18.4764 N.pl3   1  UNL1       -0.3123
     25 H           1.1640    0.8643   17.7447 H       1  UNL1        0.1522
     26 C           3.6207   -0.5821   17.2040 C.3     1  UNL1        0.0284
     27 C           4.0627    0.7860   17.6320 C.2     1  UNL1       -0.0212
     28 C           3.0822    1.7261   18.2682 C.2     1  UNL1        0.0410
     29 C           3.5242    3.0941   18.6961 C.2     1  UNL1        0.0152
     30 C           4.9468    3.5220   18.4879 C.2     1  UNL1        0.0166
     31 C           5.9273    2.5819   17.8517 C.2     1  UNL1        0.0666
     32 N           7.3833    2.7234   17.5203 N.2     1  UNL1       -0.2478
     33 C           7.8412    1.4428   16.8876 C.2     1  UNL1        0.0946
     34 C           6.6682    0.5098   16.8279 C.2     1  UNL1        0.0042
     35 C           5.4852    1.2138   17.4238 C.3     1  UNL1        0.0831
     36 C          -0.4428    3.4217   18.7424 C.1     1  UNL1        0.1032
     37 N          -0.8267    4.2502   17.5524 N.1     1  UNL1       -0.1907
@<TRIPOS>BOND
     1    26    27    1
     2    27    28    2
     3    28    24    1
     4    24     1    1
     5     1     2   ar
     6     2    36    1
     7    36    37    3
     8     2     3   ar
     9     3     4   ar
    10     4     5   ar
    11     5     6   ar
    12     6     7    1
    13     7     8   ar
    14     8     9   ar
    15     9    10   ar
    16    10    11   ar
    17    11    16    1
    18    16    17    1
    19    17    18    1
    20    18    19    1
    21    19    20    1
    22    20    21    1
    23    20    22    1
    24    22    23    1
    25    11    12   ar
    26    12    13   ar
    27    13    14   ar
    28    14    15   ar
    29    28    29    1
    30    29    30    2
    31    30    31    1
    32    31    32    2
    33    32    33    1
    34    33    34    2
    35    34    35    1
    36    35    27    1
    37     6     1   ar
    38    15     7   ar
    39    35    31    1
    40    14     9   ar
    41    23    17    1
    42    24    25    1
@<TRIPOS>MOLECULE
*****
 37 42 0 0 0
SMALL
GASTEIGER

@<TRIPOS>ATOM
      1 C           3.2894    1.4879   33.5583 C.ar    1  UNL1        0.0640
      2 C           4.0393    1.7527   34.8302 C.ar    1  UNL1        0.1010
      3 C           4.1514    3.1525   35.3574 C.ar    1  UNL1        0.1104
      4 N           3.5136    4.2877   34.6126 N.ar    1  UNL1       -0.2414
      5 C           2.7638    4.0230   33.3408 C.ar    1  UNL1        0.1032
      6 C           2.6517    2.6231   32.8136 C.ar    1  UNL1        0.0677
      7 C           1.9018    2.3585   31.5418 C.ar    1  UNL1        0.1480
      8 C           1.7602    3.3067   30.3881 C.ar    1  UNL1        0.0406
      9 C           0.9327    2.6334   29.3336 C.ar    1  UNL1        0.0373
     10 C           0.4682    3.0863   27.9811 C.ar    1  UNL1        0.0002
     11 C          -0.3661    2.1750   27.1306 C.ar    1  UNL1       -0.0059
     12 C          -0.7360    0.8107   27.6327 C.ar    1  UNL1        0.0002
     13 C          -0.2715    0.3578   28.9851 C.ar    1  UNL1        0.0372
     14 C           0.5629    1.2691   29.8356 C.ar    1  UNL1        0.1453
     15 O           1.1618    1.0992   31.2003 O.2     1  UNL1       -0.4534
     16 C          -0.8306    2.6279   25.7782 C.3     1  UNL1        0.0992
     17 N          -2.1802    3.2640   25.6230 N.3     1  UNL1       -0.2665
     18 C          -2.6965    3.6037   24.2563 C.3     1  UNL1        0.0899
     19 C          -4.0461    4.2398   24.1011 C.3     1  UNL1        0.0897
     20 N          -4.8794    4.5362   25.3127 N.3     1  UNL1       -0.2691
     21 C          -6.2289    5.1723   25.1575 C.3     1  UNL1        0.0897
     22 C          -4.3630    4.1964   26.6794 C.3     1  UNL1        0.0897
     23 C          -3.0135    3.5603   26.8346 C.3     1  UNL1        0.0899
     24 N           3.1773    0.0881   33.0312 N.pl3   1  UNL1       -0.3123
     25 H           2.3613   -0.4368   33.1979 H       1  UNL1        0.1522
     26 C           4.1669   -2.6643   33.6979 C.3     1  UNL1        0.0284
     27 C           4.8033   -1.8881   32.5832 C.2     1  UNL1       -0.0212
     28 C           4.3086   -0.5118   32.2498 C.2     1  UNL1        0.0410
     29 C           4.9449    0.2644   31.1352 C.2     1  UNL1        0.0152
     30 C           6.0762   -0.3356   30.3539 C.2     1  UNL1        0.0166
     31 C           6.5709   -1.7119   30.6873 C.2     1  UNL1        0.0666
     32 N           7.6604   -2.5571   30.0969 N.2     1  UNL1       -0.2478
     33 C           7.6973   -3.8557   30.8467 C.2     1  UNL1        0.0946
     34 C           6.6307   -3.8131   31.9005 C.2     1  UNL1        0.0042
     35 C           5.9345   -2.4881   31.8020 C.3     1  UNL1        0.0831
     36 C           4.6771    0.6175   35.5749 C.1     1  UNL1        0.1032
     37 N           5.3149   -0.5177   36.3196 N.1     1  UNL1       -0.1907
@<TRIPOS>BOND
     1    26    27    1
     2    27    28    2
     3    28    24    1
     4    24     1    1
     5     1     2   ar
     6     2    36    1
     7    36    37    3
     8     2     3   ar
     9     3     4   ar
    10     4     5   ar
    11     5     6   ar
    12     6     7    1
    13     7     8   ar
    14     8     9   ar
    15     9    10   ar
    16    10    11   ar
    17    11    16    1
    18    16    17    1
    19    17    18    1
    20    18    19    1
    21    19    20    1
    22    20    21    1
    23    20    22    1
    24    22    23    1
    25    11    12   ar
    26    12    13   ar
    27    13    14   ar
    28    14    15   ar
    29    28    29    1
    30    29    30    2
    31    30    31    1
    32    31    32    2
    33    32    33    1
    34    33    34    2
    35    34    35    1
    36    35    27    1
    37     6     1   ar
    38    15     7   ar
    39    35    31    1
    40    14     9   ar
    41    23    17    1
    42    24    25    1
@<TRIPOS>MOLECULE
*****
 37 42 0 0 0
SMALL
GASTEIGER

@<TRIPOS>ATOM
      1 C           4.3652   -1.6750   20.2539 C.ar    1  UNL1        0.0640
      2 C           4.4229   -2.4355   18.9623 C.ar    1  UNL1        0.1010
      3 C           4.5984   -3.9252   18.9762 C.ar    1  UNL1        0.1104
      4 N           4.7162   -4.6543   20.2818 N.ar    1  UNL1       -0.2414
      5 C           4.6584   -3.8939   21.5734 C.ar    1  UNL1        0.1032
      6 C           4.4829   -2.4041   21.5595 C.ar    1  UNL1        0.0677
      7 C           4.4252   -1.6437   22.8511 C.ar    1  UNL1        0.1480
      8 C           3.2046   -1.0043   23.4440 C.ar    1  UNL1        0.0406
      9 C           3.6030   -0.3546   24.7360 C.ar    1  UNL1        0.0373
     10 C           2.8196    0.4229   25.7518 C.ar    1  UNL1        0.0002
     11 C           3.5029    0.9626   26.9732 C.ar    1  UNL1       -0.0059
     12 C           4.9697    0.7247   27.1788 C.ar    1  UNL1        0.0002
     13 C           5.7530   -0.0528   26.1630 C.ar    1  UNL1        0.0372
     14 C           5.0697   -0.5924   24.9416 C.ar    1  UNL1        0.1453
     15 O           5.5778   -1.3891   23.7767 O.2     1  UNL1       -0.4534
     16 C           2.7197    1.7401   27.9891 C.3     1  UNL1        0.0992
     17 N           1.3496    2.2485   27.6508 N.3     1  UNL1       -0.2665
     18 C           1.1843    3.6066   27.0357 C.3     1  UNL1        0.0899
     19 C          -0.1857    4.1151   26.6975 C.3     1  UNL1        0.0897
     20 N          -1.3906    3.2654   26.9744 N.3     1  UNL1       -0.2691
     21 C          -2.7607    3.7739   26.6362 C.3     1  UNL1        0.0897
     22 C          -1.2253    1.9075   27.5895 C.3     1  UNL1        0.0897
     23 C           0.1448    1.3990   27.9277 C.3     1  UNL1        0.0899
     24 N           4.1897   -0.1854   20.2401 N.pl3   1  UNL1       -0.3123
     25 H           4.9683    0.4008   20.1007 H       1  UNL1        0.1522
     26 C           3.9063    2.5147   21.5165 C.3     1  UNL1        0.0284
     27 C           2.6861    1.7612   21.0767 C.2     1  UNL1       -0.0212
     28 C           2.8277    0.4112   20.4385 C.2     1  UNL1        0.0410
     29 C           1.6076   -0.3422   19.9987 C.2     1  UNL1        0.0152
     30 C           0.2456    0.2544   20.1972 C.2     1  UNL1        0.0166
     31 C           0.1040    1.6044   20.8354 C.2     1  UNL1        0.0666
     32 N          -1.0987    2.4404   21.1589 N.2     1  UNL1       -0.2478
     33 C          -0.6217    3.7106   21.7986 C.2     1  UNL1        0.0946
     34 C           0.8757    3.6595   21.8705 C.2     1  UNL1        0.0042
     35 C           1.3242    2.3578   21.2752 C.3     1  UNL1        0.0831
     36 C           4.3052   -1.7064   17.6568 C.1     1  UNL1        0.1032
     37 N           4.1875   -0.9772   16.3512 N.1     1  UNL1       -0.1907
@<TRIPOS>BOND
     1    26    27    1
     2    27    28    2
     3    28    24    1
     4    24     1    1
     5     1     2   ar
     6     2    36    1
     7    36    37    3
     8     2     3   ar
     9     3     4   ar
    10     4     5   ar
    11     5     6   ar
    12     6     7    1
    13     7     8   ar
    14     8     9   ar
    15     9    10   ar
    16    10    11   ar
    17    11    16    1
    18    16    17    1
    19    17    18    1
    20    18    19    1
    21    19    20    1
    22    20    21    1
    23    20    22    1
    24    22    23    1
    25    11    12   ar
    26    12    13   ar
    27    13    14   ar
    28    14    15   ar
    29    28    29    1
    30    29    30    2
    31    30    31    1
    32    31    32    2
    33    32    33    1
    34    33    34    2
    35    34    35    1
    36    35    27    1
    37     6     1   ar
    38    15     7   ar
    39    35    31    1
    40    14     9   ar
    41    23    17    1
    42    24    25    1
@<TRIPOS>MOLECULE
*****
 37 42 0 0 0
SMALL
GASTEIGER

@<TRIPOS>ATOM
      1 C           3.4400    2.7628   34.6466 C.ar    1  UNL1        0.0640
      2 C           2.6059    3.7962   35.3441 C.ar    1  UNL1        0.1010
      3 C           2.2181    3.6027   36.7801 C.ar    1  UNL1        0.1104
      4 N           2.6644    2.3758   37.5187 N.ar    1  UNL1       -0.2414
      5 C           3.4985    1.3425   36.8214 C.ar    1  UNL1        0.1032
      6 C           3.8864    1.5360   35.3853 C.ar    1  UNL1        0.0677
      7 C           4.7205    0.5026   34.6879 C.ar    1  UNL1        0.1480
      8 C           4.2167   -0.7709   34.0759 C.ar    1  UNL1        0.0406
      9 C           5.3898   -1.4992   33.4899 C.ar    1  UNL1        0.0373
     10 C           5.4978   -2.8058   32.7610 C.ar    1  UNL1        0.0002
     11 C           6.8346   -3.2891   32.2819 C.ar    1  UNL1       -0.0059
     12 C           8.0633   -2.4657   32.5317 C.ar    1  UNL1        0.0002
     13 C           7.9553   -1.1592   33.2606 C.ar    1  UNL1        0.0372
     14 C           6.6185   -0.6759   33.7396 C.ar    1  UNL1        0.1453
     15 O           6.2049    0.5613   34.4801 O.2     1  UNL1       -0.4534
     16 C           6.9427   -4.5956   31.5531 C.3     1  UNL1        0.0992
     17 N           6.9222   -4.6217   30.0535 N.3     1  UNL1       -0.2665
     18 C           6.5190   -3.3968   29.2875 C.3     1  UNL1        0.0899
     19 C           6.4985   -3.4229   27.7878 C.3     1  UNL1        0.0897
     20 N           6.8814   -4.6740   27.0542 N.3     1  UNL1       -0.2691
     21 C           6.8609   -4.7001   25.5545 C.3     1  UNL1        0.0897
     22 C           7.2846   -5.8989   27.8202 C.3     1  UNL1        0.0897
     23 C           7.3050   -5.8728   29.3198 C.3     1  UNL1        0.0899
     24 N           3.8278    2.9563   33.2106 N.pl3   1  UNL1       -0.3123
     25 H           4.5545    3.5778   32.9764 H       1  UNL1        0.1522
     26 C           5.3871    1.4274   31.1537 C.3     1  UNL1        0.0284
     27 C           3.8880    1.4383   31.1030 C.2     1  UNL1       -0.0212
     28 C           3.1083    2.2028   32.1314 C.2     1  UNL1        0.0410
     29 C           1.6093    2.2137   32.0807 C.2     1  UNL1        0.0152
     30 C           0.8898    1.4601   31.0015 C.2     1  UNL1        0.0166
     31 C           1.6695    0.6957   29.9731 C.2     1  UNL1        0.0666
     32 N           1.2393   -0.1344   28.8001 N.2     1  UNL1       -0.2478
     33 C           2.4726   -0.6584   28.1260 C.2     1  UNL1        0.0946
     34 C           3.6649   -0.1521   28.8822 C.2     1  UNL1        0.0042
     35 C           3.1686    0.6848   30.0238 C.3     1  UNL1        0.0831
     36 C           2.1595    5.0230   34.6055 C.1     1  UNL1        0.1032
     37 N           1.7132    6.2499   33.8669 N.1     1  UNL1       -0.1907
@<TRIPOS>BOND
     1    26    27    1
     2    27    28    2
     3    28    24    1
     4    24     1    1
     5     1     2   ar
     6     2    36    1
     7    36    37    3
     8     2     3   ar
     9     3     4   ar
    10     4     5   ar
    11     5     6   ar
    12     6     7    1
    13     7     8   ar
    14     8     9   ar
    15     9    10   ar
    16    10    11   ar
    17    11    16    1
    18    16    17    1
    19    17    18    1
    20    18    19    1
    21    19    20    1
    22    20    21    1
    23    20    22    1
    24    22    23    1
    25    11    12   ar
    26    12    13   ar
    27    13    14   ar
    28    14    15   ar
    29    28    29    1
    30    29    30    2
    31    30    31    1
    32    31    32    2
    33    32    33    1
    34    33    34    2
    35    34    35    1
    36    35    27    1
    37     6     1   ar
    38    15     7   ar
    39    35    31    1
    40    14     9   ar
    41    23    17    1
    42    24    25    1
@<TRIPOS>MOLECULE
*****
 37 42 0 0 0
SMALL
GASTEIGER

@<TRIPOS>ATOM
      1 C           4.3719   -1.6412   20.2583 C.ar    1  UNL1        0.0640
      2 C           4.3836   -2.4153   18.9734 C.ar    1  UNL1        0.1010
      3 C           4.5530   -3.9055   18.9971 C.ar    1  UNL1        0.1104
      4 N           4.7107   -4.6217   20.3056 N.ar    1  UNL1       -0.2414
      5 C           4.6990   -3.8477   21.5904 C.ar    1  UNL1        0.1032
      6 C           4.5296   -2.3574   21.5668 C.ar    1  UNL1        0.0677
      7 C           4.5180   -1.5835   22.8516 C.ar    1  UNL1        0.1480
      8 C           3.3060   -1.2554   23.6723 C.ar    1  UNL1        0.0406
      9 C           3.7553   -0.4709   24.8692 C.ar    1  UNL1        0.0373
     10 C           3.0004    0.1210   26.0225 C.ar    1  UNL1        0.0002
     11 C           3.7351    0.8697   27.0947 C.ar    1  UNL1       -0.0059
     12 C           5.2247    1.0265   27.0137 C.ar    1  UNL1        0.0002
     13 C           5.9796    0.4346   25.8605 C.ar    1  UNL1        0.0372
     14 C           5.2449   -0.3140   24.7883 C.ar    1  UNL1        0.1453
     15 O           5.7163   -1.0017   23.5413 O.2     1  UNL1       -0.4534
     16 C           2.9803    1.4616   28.2479 C.3     1  UNL1        0.0992
     17 N           3.2955    1.0321   29.6501 N.3     1  UNL1       -0.2665
     18 C           3.9633    1.9868   30.5948 C.3     1  UNL1        0.0899
     19 C           4.2785    1.5573   31.9970 C.3     1  UNL1        0.0897
     20 N           3.9259    0.1729   32.4545 N.3     1  UNL1       -0.2691
     21 C           4.2411   -0.2567   33.8567 C.3     1  UNL1        0.0897
     22 C           3.2582   -0.7818   31.5098 C.3     1  UNL1        0.0897
     23 C           2.9430   -0.3523   30.1076 C.3     1  UNL1        0.0899
     24 N           4.2025   -0.1510   20.2347 N.pl3   1  UNL1       -0.3123
     25 H           4.9746    0.4293   20.0439 H       1  UNL1        0.1522
     26 C           3.9441    2.1437   22.1497 C.3     1  UNL1        0.0284
     27 C           2.7274    1.6025   21.4592 C.2     1  UNL1       -0.0212
     28 C           2.8566    0.4551   20.5017 C.2     1  UNL1        0.0410
     29 C           1.6400   -0.0861   19.8112 C.2     1  UNL1        0.0152
     30 C           0.2941    0.5200   20.0782 C.2     1  UNL1        0.0166
     31 C           0.1649    1.6674   21.0357 C.2     1  UNL1        0.0666
     32 N          -1.0210    2.4630   21.4947 N.2     1  UNL1       -0.2478
     33 C          -0.5372    3.4959   22.4689 C.2     1  UNL1        0.0946
     34 C           0.9477    3.3387   22.6120 C.2     1  UNL1        0.0042
     35 C           1.3816    2.2086   21.7262 C.3     1  UNL1        0.0831
     36 C           4.2258   -1.6990   17.6650 C.1     1  UNL1        0.1032
     37 N           4.0681   -0.9828   16.3565 N.1     1  UNL1       -0.1907
@<TRIPOS>BOND
     1    26    27    1
     2    27    28    2
     3    28    24    1
     4    24     1    1
     5     1     2   ar
     6     2    36    1
     7    36    37    3
     8     2     3   ar
     9     3     4   ar
    10     4     5   ar
    11     5     6   ar
    12     6     7    1
    13     7     8   ar
    14     8     9   ar
    15     9    10   ar
    16    10    11   ar
    17    11    16    1
    18    16    17    1
    19    17    18    1
    20    18    19    1
    21    19    20    1
    22    20    21    1
    23    20    22    1
    24    22    23    1
    25    11    12   ar
    26    12    13   ar
    27    13    14   ar
    28    14    15   ar
    29    28    29    1
    30    29    30    2
    31    30    31    1
    32    31    32    2
    33    32    33    1
    34    33    34    2
    35    34    35    1
    36    35    27    1
    37     6     1   ar
    38    15     7   ar
    39    35    31    1
    40    14     9   ar
    41    23    17    1
    42    24    25    1
@<TRIPOS>MOLECULE
*****
 37 42 0 0 0
SMALL
GASTEIGER

@<TRIPOS>ATOM
      1 C           4.8935   -1.4213   20.6889 C.ar    1  UNL1        0.0640
      2 C           5.5628   -2.2350   19.6212 C.ar    1  UNL1        0.1010
      3 C           5.6866   -3.7217   19.7780 C.ar    1  UNL1        0.1104
      4 N           5.1410   -4.3947   21.0025 N.ar    1  UNL1       -0.2414
      5 C           4.4717   -3.5811   22.0702 C.ar    1  UNL1        0.1032
      6 C           4.3479   -2.0943   21.9134 C.ar    1  UNL1        0.0677
      7 C           3.6786   -1.2807   22.9811 C.ar    1  UNL1        0.1480
      8 C           4.0648   -1.2388   24.4299 C.ar    1  UNL1        0.0406
      9 C           3.1304   -0.2984   25.1317 C.ar    1  UNL1        0.0373
     10 C           3.0326    0.1366   26.5640 C.ar    1  UNL1        0.0002
     11 C           1.9710    1.1109   26.9811 C.ar    1  UNL1       -0.0059
     12 C           1.0073    1.6501   25.9659 C.ar    1  UNL1        0.0002
     13 C           1.1051    1.2152   24.5337 C.ar    1  UNL1        0.0372
     14 C           2.1666    0.2409   24.1166 C.ar    1  UNL1        0.1453
     15 O           2.5054   -0.3662   22.7874 O.2     1  UNL1       -0.4534
     16 C           1.8732    1.5459   28.4132 C.3     1  UNL1        0.0992
     17 N           2.7836    0.9457   29.4432 N.3     1  UNL1       -0.2665
     18 C           4.1353    1.5470   29.6911 C.3     1  UNL1        0.0899
     19 C           5.0458    0.9468   30.7210 C.3     1  UNL1        0.0897
     20 N           4.6046   -0.2548   31.5031 N.3     1  UNL1       -0.2691
     21 C           5.5150   -0.8550   32.5331 C.3     1  UNL1        0.0897
     22 C           3.2530   -0.8561   31.2552 C.3     1  UNL1        0.0897
     23 C           2.3425   -0.2559   30.2253 C.3     1  UNL1        0.0899
     24 N           4.7697    0.0653   20.5322 N.pl3   1  UNL1       -0.3123
     25 H           5.4829    0.6565   20.8655 H       1  UNL1        0.1522
     26 C           4.5514    3.0343   20.1616 C.3     1  UNL1        0.0284
     27 C           3.4501    2.1357   19.6823 C.2     1  UNL1       -0.0212
     28 C           3.5593    0.6512   19.8675 C.2     1  UNL1        0.0410
     29 C           2.4581   -0.2474   19.3882 C.2     1  UNL1        0.0152
     30 C           1.2477    0.3384   18.7236 C.2     1  UNL1        0.0166
     31 C           1.1385    1.8229   18.5383 C.2     1  UNL1        0.0666
     32 N           0.0736    2.6820   17.9235 N.2     1  UNL1       -0.2478
     33 C           0.5168    4.1116   18.0229 C.2     1  UNL1        0.0946
     34 C           1.8555    4.1360   18.6991 C.2     1  UNL1        0.0042
     35 C           2.2398    2.7215   19.0177 C.3     1  UNL1        0.0831
     36 C           6.1084   -1.5620   18.3968 C.1     1  UNL1        0.1032
     37 N           6.6540   -0.8890   17.1723 N.1     1  UNL1       -0.1907
@<TRIPOS>BOND
     1    26    27    1
     2    27    28    2
     3    28    24    1
     4    24     1    1
     5     1     2   ar
     6     2    36    1
     7    36    37    3
     8     2     3   ar
     9     3     4   ar
    10     4     5   ar
    11     5     6   ar
    12     6     7    1
    13     7     8   ar
    14     8     9   ar
    15     9    10   ar
    16    10    11   ar
    17    11    16    1
    18    16    17    1
    19    17    18    1
    20    18    19    1
    21    19    20    1
    22    20    21    1
    23    20    22    1
    24    22    23    1
    25    11    12   ar
    26    12    13   ar
    27    13    14   ar
    28    14    15   ar
    29    28    29    1
    30    29    30    2
    31    30    31    1
    32    31    32    2
    33    32    33    1
    34    33    34    2
    35    34    35    1
    36    35    27    1
    37     6     1   ar
    38    15     7   ar
    39    35    31    1
    40    14     9   ar
    41    23    17    1
    42    24    25    1
@<TRIPOS>MOLECULE
*****
 37 42 0 0 0
SMALL
GASTEIGER

@<TRIPOS>ATOM
      1 C           3.3210    1.5030   33.5955 C.ar    1  UNL1        0.0640
      2 C           4.1202    1.7342   34.8437 C.ar    1  UNL1        0.1010
      3 C           4.2629    3.1212   35.3968 C.ar    1  UNL1        0.1104
      4 N           3.6063    4.2770   34.7016 N.ar    1  UNL1       -0.2414
      5 C           2.8072    4.0458   33.4535 C.ar    1  UNL1        0.1032
      6 C           2.6645    2.6587   32.9005 C.ar    1  UNL1        0.0677
      7 C           1.8653    2.4275   31.6523 C.ar    1  UNL1        0.1480
      8 C           1.7853    3.3509   30.4729 C.ar    1  UNL1        0.0406
      9 C           0.8763    2.7264   29.4562 C.ar    1  UNL1        0.0373
     10 C           0.4250    3.1809   28.0997 C.ar    1  UNL1        0.0002
     11 C          -0.5080    2.3260   27.2943 C.ar    1  UNL1       -0.0059
     12 C          -0.9896    1.0166   27.8454 C.ar    1  UNL1        0.0002
     13 C          -0.5384    0.5622   29.2018 C.ar    1  UNL1        0.0372
     14 C           0.3946    1.4170   30.0072 C.ar    1  UNL1        0.1453
     15 O           1.0058    1.2323   31.3645 O.2     1  UNL1       -0.4534
     16 C          -0.9593    2.7803   25.9379 C.3     1  UNL1        0.0992
     17 N          -0.2131    2.3408   24.7131 N.3     1  UNL1       -0.2665
     18 C          -0.5396    2.9441   23.3792 C.3     1  UNL1        0.0899
     19 C           0.2065    2.5045   22.1544 C.3     1  UNL1        0.0897
     20 N           1.2791    1.4616   22.2636 N.3     1  UNL1       -0.2691
     21 C           2.0253    1.0221   21.0388 C.3     1  UNL1        0.0897
     22 C           1.6056    0.8583   23.5975 C.3     1  UNL1        0.0897
     23 C           0.8594    1.2979   24.8223 C.3     1  UNL1        0.0899
     24 N           3.1783    0.1160   33.0425 N.pl3   1  UNL1       -0.3123
     25 H           2.3741   -0.4145   33.2452 H       1  UNL1        0.1522
     26 C           4.2172   -2.6445   33.5906 C.3     1  UNL1        0.0284
     27 C           4.7805   -1.8430   32.4546 C.2     1  UNL1       -0.0212
     28 C           4.2610   -0.4628   32.1805 C.2     1  UNL1        0.0410
     29 C           4.8242    0.3387   31.0446 C.2     1  UNL1        0.0152
     30 C           5.9069   -0.2400   30.1826 C.2     1  UNL1        0.0166
     31 C           6.4264   -1.6203   30.4567 C.2     1  UNL1        0.0666
     32 N           7.4801   -2.4482   29.7829 N.2     1  UNL1       -0.2478
     33 C           7.5681   -3.7614   30.5024 C.2     1  UNL1        0.0946
     34 C           6.5688   -3.7451   31.6209 C.2     1  UNL1        0.0042
     35 C           5.8631   -2.4217   31.5927 C.3     1  UNL1        0.0831
     36 C           4.7767    0.5785   35.5388 C.1     1  UNL1        0.1032
     37 N           5.4332   -0.5773   36.2338 N.1     1  UNL1       -0.1907
@<TRIPOS>BOND
     1    26    27    1
     2    27    28    2
     3    28    24    1
     4    24     1    1
     5     1     2   ar
     6     2    36    1
     7    36    37    3
     8     2     3   ar
     9     3     4   ar
    10     4     5   ar
    11     5     6   ar
    12     6     7    1
    13     7     8   ar
    14     8     9   ar
    15     9    10   ar
    16    10    11   ar
    17    11    16    1
    18    16    17    1
    19    17    18    1
    20    18    19    1
    21    19    20    1
    22    20    21    1
    23    20    22    1
    24    22    23    1
    25    11    12   ar
    26    12    13   ar
    27    13    14   ar
    28    14    15   ar
    29    28    29    1
    30    29    30    2
    31    30    31    1
    32    31    32    2
    33    32    33    1
    34    33    34    2
    35    34    35    1
    36    35    27    1
    37     6     1   ar
    38    15     7   ar
    39    35    31    1
    40    14     9   ar
    41    23    17    1
    42    24    25    1
