@<TRIPOS>MOLECULE
*****
 25 29 0 0 0
SMALL
GASTEIGER

@<TRIPOS>ATOM
      1 C          -7.0805  -16.1282   23.9743 C.ar    1  UNL1        0.2118
      2 C          -7.7779  -17.1355   23.1089 C.ar    1  UNL1        0.1822
      3 O          -6.9770  -18.1250   22.3154 O.2     1  UNL1       -0.4501
      4 C          -5.4789  -18.1071   22.3873 C.ar    1  UNL1        0.1515
      5 C          -4.7815  -17.0997   23.2527 C.ar    1  UNL1        0.0768
      6 C          -3.2834  -17.0818   23.3246 C.ar    1  UNL1        0.0095
      7 C          -2.4825  -18.0713   22.5311 C.ar    1  UNL1        0.0378
      8 C          -3.1799  -19.0787   21.6658 C.ar    1  UNL1        0.1484
      9 O          -2.6600  -20.1696   20.7771 O.2     1  UNL1       -0.4503
     10 C          -3.8370  -20.8617   20.1560 C.ar    1  UNL1        0.1797
     11 C          -5.0842  -20.1986   20.6608 C.ar    1  UNL1        0.0467
     12 C          -4.6780  -19.0966   21.5939 C.ar    1  UNL1        0.0723
     13 C          -5.5824  -16.1102   24.0462 C.ar    1  UNL1        0.2352
     14 O          -4.8851  -15.1029   24.9116 O.2     1  UNL1       -0.2831
     15 C          -9.2761  -17.1535   23.0369 C.ar    1  UNL1        0.0409
     16 C          -9.9848  -16.3817   21.9636 C.ar    1  UNL1        0.0065
     17 C         -11.4828  -16.3997   21.8917 C.ar    1  UNL1        0.0403
     18 C         -12.2724  -17.1896   22.8932 C.ar    1  UNL1        0.1764
     19 C         -11.5637  -17.9614   23.9665 C.ar    1  UNL1        0.1765
     20 C         -10.0655  -17.9433   24.0384 C.ar    1  UNL1        0.0433
     21 O         -12.6008  -18.6434   24.8086 O.3     1  UNL1       -0.4346
     22 C         -13.9505  -18.2932   24.2556 C.3     1  UNL1        0.4294
     23 O         -13.7475  -17.3946   23.0719 O.3     1  UNL1       -0.4346
     24 C          -8.2297  -15.4301   26.1974 C.3     1  UNL1        0.2528
     25 O          -7.8814  -15.1387   24.7678 O.3     1  UNL1       -0.4653
@<TRIPOS>BOND
     1    24    25    1
     2    25     1    1
     3     1     2   ar
     4     2    15    1
     5    15    16   ar
     6    16    17   ar
     7    17    18   ar
     8    18    19   ar
     9    19    20   ar
    10    19    21    1
    11    21    22    1
    12    22    23    1
    13     2     3   ar
    14     3     4   ar
    15     4     5   ar
    16     5     6   ar
    17     6     7   ar
    18     7     8   ar
    19     8     9   ar
    20     9    10   ar
    21    10    11   ar
    22    11    12   ar
    23     5    13   ar
    24    13    14    2
    25    13     1   ar
    26    20    15   ar
    27    12     4   ar
    28    23    18    1
    29    12     8   ar
@<TRIPOS>MOLECULE
*****
 25 29 0 0 0
SMALL
GASTEIGER

@<TRIPOS>ATOM
      1 C          -8.1970  -19.8938   20.4784 C.ar    1  UNL1        0.2118
      2 C          -8.2140  -18.8552   21.5605 C.ar    1  UNL1        0.1822
      3 O          -6.9261  -18.3833   22.1675 O.2     1  UNL1       -0.4501
      4 C          -5.6210  -18.9501   21.6924 C.ar    1  UNL1        0.1515
      5 C          -5.6040  -19.9887   20.6103 C.ar    1  UNL1        0.0768
      6 C          -4.2990  -20.5554   20.1353 C.ar    1  UNL1        0.0095
      7 C          -3.0110  -20.0836   20.7423 C.ar    1  UNL1        0.0378
      8 C          -3.0280  -19.0449   21.8244 C.ar    1  UNL1        0.1484
      9 O          -1.9269  -18.3907   22.6050 O.2     1  UNL1       -0.4503
     10 C          -2.5514  -17.4196   23.5625 C.ar    1  UNL1        0.1797
     11 C          -4.0385  -17.4736   23.3737 C.ar    1  UNL1        0.0467
     12 C          -4.3331  -18.4782   22.2994 C.ar    1  UNL1        0.0723
     13 C          -6.8920  -20.4606   20.0033 C.ar    1  UNL1        0.2352
     14 O          -6.8749  -21.4992   18.9212 O.2     1  UNL1       -0.2831
     15 C          -9.5190  -18.2884   22.0356 C.ar    1  UNL1        0.0409
     16 C          -9.9715  -16.9416   21.5544 C.ar    1  UNL1        0.0065
     17 C         -11.2764  -16.3749   22.0296 C.ar    1  UNL1        0.0403
     18 C         -12.1291  -17.1549   22.9860 C.ar    1  UNL1        0.1764
     19 C         -11.6766  -18.5017   23.4671 C.ar    1  UNL1        0.1765
     20 C         -10.3716  -19.0684   22.9920 C.ar    1  UNL1        0.0433
     21 O         -12.7215  -19.0349   24.4019 O.3     1  UNL1       -0.4346
     22 C         -13.8197  -18.0177   24.4984 C.3     1  UNL1        0.4294
     23 O         -13.4535  -16.8558   23.6233 O.3     1  UNL1       -0.4346
     24 C         -10.2069  -19.5028   18.8793 C.3     1  UNL1        0.2528
     25 O          -9.4850  -20.3657   19.8714 O.3     1  UNL1       -0.4653
@<TRIPOS>BOND
     1    24    25    1
     2    25     1    1
     3     1     2   ar
     4     2    15    1
     5    15    16   ar
     6    16    17   ar
     7    17    18   ar
     8    18    19   ar
     9    19    20   ar
    10    19    21    1
    11    21    22    1
    12    22    23    1
    13     2     3   ar
    14     3     4   ar
    15     4     5   ar
    16     5     6   ar
    17     6     7   ar
    18     7     8   ar
    19     8     9   ar
    20     9    10   ar
    21    10    11   ar
    22    11    12   ar
    23     5    13   ar
    24    13    14    2
    25    13     1   ar
    26    20    15   ar
    27    12     4   ar
    28    23    18    1
    29    12     8   ar
@<TRIPOS>MOLECULE
*****
 25 29 0 0 0
SMALL
GASTEIGER

@<TRIPOS>ATOM
      1 C          -5.6707  -16.9177   23.5812 C.ar    1  UNL1        0.2118
      2 C          -5.5991  -17.7300   22.3222 C.ar    1  UNL1        0.1822
      3 O          -6.8606  -18.1520   21.6292 O.2     1  UNL1       -0.4501
      4 C          -8.1938  -17.7617   22.1951 C.ar    1  UNL1        0.1515
      5 C          -8.2655  -16.9494   23.4540 C.ar    1  UNL1        0.0768
      6 C          -9.5986  -16.5591   24.0199 C.ar    1  UNL1        0.0095
      7 C         -10.8603  -16.9811   23.3269 C.ar    1  UNL1        0.0378
      8 C         -10.7886  -17.7935   22.0679 C.ar    1  UNL1        0.1484
      9 O         -11.8540  -18.3506   21.1710 O.2     1  UNL1       -0.4503
     10 C         -11.1793  -19.0852   20.0507 C.ar    1  UNL1        0.1797
     11 C          -9.6968  -18.9821   20.2553 C.ar    1  UNL1        0.0467
     12 C          -9.4554  -18.1837   21.5020 C.ar    1  UNL1        0.0723
     13 C          -7.0038  -16.5274   24.1471 C.ar    1  UNL1        0.2352
     14 O          -7.0754  -15.7151   25.4060 O.2     1  UNL1       -0.2831
     15 C          -4.2659  -18.1203   21.7562 C.ar    1  UNL1        0.0409
     16 C          -3.9436  -19.5669   21.5250 C.ar    1  UNL1        0.0065
     17 C          -2.6105  -19.9571   20.9591 C.ar    1  UNL1        0.0403
     18 C          -1.5995  -18.9008   20.6242 C.ar    1  UNL1        0.1764
     19 C          -1.9218  -17.4542   20.8554 C.ar    1  UNL1        0.1765
     20 C          -3.2550  -17.0639   21.4214 C.ar    1  UNL1        0.0433
     21 O          -0.7343  -16.6414   20.4322 O.3     1  UNL1       -0.4346
     22 C           0.3219  -17.5857   19.9395 C.3     1  UNL1        0.4294
     23 O          -0.2129  -18.9821   20.0582 O.3     1  UNL1       -0.4346
     24 C          -3.7476  -17.4180   25.2549 C.3     1  UNL1        0.2528
     25 O          -4.4090  -16.4957   24.2742 O.3     1  UNL1       -0.4653
@<TRIPOS>BOND
     1    24    25    1
     2    25     1    1
     3     1     2   ar
     4     2    15    1
     5    15    16   ar
     6    16    17   ar
     7    17    18   ar
     8    18    19   ar
     9    19    20   ar
    10    19    21    1
    11    21    22    1
    12    22    23    1
    13     2     3   ar
    14     3     4   ar
    15     4     5   ar
    16     5     6   ar
    17     6     7   ar
    18     7     8   ar
    19     8     9   ar
    20     9    10   ar
    21    10    11   ar
    22    11    12   ar
    23     5    13   ar
    24    13    14    2
    25    13     1   ar
    26    20    15   ar
    27    12     4   ar
    28    23    18    1
    29    12     8   ar
@<TRIPOS>MOLECULE
*****
 25 29 0 0 0
SMALL
GASTEIGER

@<TRIPOS>ATOM
      1 C          -6.6618  -17.9693   21.3865 C.ar    1  UNL1        0.2118
      2 C          -5.4185  -17.6887   22.1772 C.ar    1  UNL1        0.1822
      3 O          -5.5150  -17.0072   23.5100 O.2     1  UNL1       -0.4501
      4 C          -6.8550  -16.6063   24.0520 C.ar    1  UNL1        0.1515
      5 C          -8.0984  -16.8869   23.2613 C.ar    1  UNL1        0.0768
      6 C          -9.4382  -16.4860   23.8033 C.ar    1  UNL1        0.0095
      7 C          -9.5349  -15.8044   25.1361 C.ar    1  UNL1        0.0378
      8 C          -8.2915  -15.5239   25.9268 C.ar    1  UNL1        0.1484
      9 O          -8.0759  -14.8717   27.2603 O.2     1  UNL1       -0.4503
     10 C          -6.6026  -14.8696   27.5424 C.ar    1  UNL1        0.1797
     11 C          -5.9077  -15.5204   26.3833 C.ar    1  UNL1        0.0467
     12 C          -6.9515  -15.9248   25.3848 C.ar    1  UNL1        0.0723
     13 C          -8.0017  -17.5684   21.9285 C.ar    1  UNL1        0.2352
     14 O          -9.2451  -17.8489   21.1378 O.2     1  UNL1       -0.2831
     15 C          -4.0784  -18.0896   21.6352 C.ar    1  UNL1        0.0409
     16 C          -3.7525  -19.5404   21.4383 C.ar    1  UNL1        0.0065
     17 C          -2.4126  -19.9413   20.8964 C.ar    1  UNL1        0.0403
     18 C          -1.3984  -18.8912   20.5513 C.ar    1  UNL1        0.1764
     19 C          -1.7243  -17.4404   20.7482 C.ar    1  UNL1        0.1765
     20 C          -3.0644  -17.0396   21.2902 C.ar    1  UNL1        0.0433
     21 O          -0.5325  -16.6356   20.3221 O.3     1  UNL1       -0.4346
     22 C           0.5301  -17.5890   19.8617 C.3     1  UNL1        0.4294
     23 O          -0.0051  -18.9831   20.0034 O.3     1  UNL1       -0.4346
     24 C          -6.9871  -20.0832   19.9115 C.3     1  UNL1        0.2528
     25 O          -6.5652  -18.6508   20.0537 O.3     1  UNL1       -0.4653
@<TRIPOS>BOND
     1    24    25    1
     2    25     1    1
     3     1     2   ar
     4     2    15    1
     5    15    16   ar
     6    16    17   ar
     7    17    18   ar
     8    18    19   ar
     9    19    20   ar
    10    19    21    1
    11    21    22    1
    12    22    23    1
    13     2     3   ar
    14     3     4   ar
    15     4     5   ar
    16     5     6   ar
    17     6     7   ar
    18     7     8   ar
    19     8     9   ar
    20     9    10   ar
    21    10    11   ar
    22    11    12   ar
    23     5    13   ar
    24    13    14    2
    25    13     1   ar
    26    20    15   ar
    27    12     4   ar
    28    23    18    1
    29    12     8   ar
@<TRIPOS>MOLECULE
*****
 25 29 0 0 0
SMALL
GASTEIGER

@<TRIPOS>ATOM
      1 C           4.9877   -1.0190   19.1032 C.ar    1  UNL1        0.2118
      2 C           4.2611   -1.0919   20.4134 C.ar    1  UNL1        0.1822
      3 O           4.8176   -1.9185   21.5346 O.2     1  UNL1       -0.4501
      4 C           6.1007   -2.6721   21.3455 C.ar    1  UNL1        0.1515
      5 C           6.8273   -2.5992   20.0353 C.ar    1  UNL1        0.0768
      6 C           8.1103   -3.3528   19.8462 C.ar    1  UNL1        0.0095
      7 C           8.6669   -4.1794   20.9675 C.ar    1  UNL1        0.0378
      8 C           7.9403   -4.2523   22.2777 C.ar    1  UNL1        0.1484
      9 O           8.2435   -4.9791   23.5543 O.2     1  UNL1       -0.4503
     10 C           7.1477   -4.6746   24.5324 C.ar    1  UNL1        0.1797
     11 C           6.1674   -3.7597   23.8603 C.ar    1  UNL1        0.0467
     12 C           6.6572   -3.4987   22.4667 C.ar    1  UNL1        0.0723
     13 C           6.2707   -1.7726   18.9141 C.ar    1  UNL1        0.2352
     14 O           6.9973   -1.6997   17.6039 O.2     1  UNL1       -0.2831
     15 C           2.9780   -0.3383   20.6025 C.ar    1  UNL1        0.0409
     16 C           1.6802   -0.9427   20.1549 C.ar    1  UNL1        0.0065
     17 C           0.3972   -0.1891   20.3440 C.ar    1  UNL1        0.0403
     18 C           0.4119    1.1690   20.9809 C.ar    1  UNL1        0.1764
     19 C           1.7097    1.7733   21.4286 C.ar    1  UNL1        0.1765
     20 C           2.9927    1.0197   21.2394 C.ar    1  UNL1        0.0433
     21 O           1.4143    3.1196   22.0204 O.3     1  UNL1       -0.4346
     22 C          -0.0660    3.3472   21.9386 C.3     1  UNL1        0.4294
     23 O          -0.6855    2.1417   21.2961 O.3     1  UNL1       -0.4346
     24 C           3.7009   -0.8558   16.8520 C.3     1  UNL1        0.2528
     25 O           4.4311   -0.1924   17.9820 O.3     1  UNL1       -0.4653
@<TRIPOS>BOND
     1    24    25    1
     2    25     1    1
     3     1     2   ar
     4     2    15    1
     5    15    16   ar
     6    16    17   ar
     7    17    18   ar
     8    18    19   ar
     9    19    20   ar
    10    19    21    1
    11    21    22    1
    12    22    23    1
    13     2     3   ar
    14     3     4   ar
    15     4     5   ar
    16     5     6   ar
    17     6     7   ar
    18     7     8   ar
    19     8     9   ar
    20     9    10   ar
    21    10    11   ar
    22    11    12   ar
    23     5    13   ar
    24    13    14    2
    25    13     1   ar
    26    20    15   ar
    27    12     4   ar
    28    23    18    1
    29    12     8   ar
