@<TRIPOS>MOLECULE
*****
 27 30 0 0 0
SMALL
GASTEIGER

@<TRIPOS>ATOM
      1 C          -9.9921  -16.2666   23.0042 C.ar    1  UNL1        0.1386
      2 C          -9.0135  -16.4216   24.1303 C.ar    1  UNL1        0.0369
      3 C          -7.6749  -17.0505   23.8796 C.ar    1  UNL1        0.0047
      4 C          -7.3151  -17.5244   22.5027 C.ar    1  UNL1        0.0192
      5 C          -8.2938  -17.3695   21.3766 C.ar    1  UNL1        0.0047
      6 C          -9.6323  -16.7406   21.6273 C.ar    1  UNL1        0.0369
      7 C          -5.9766  -18.1534   22.2519 C.ar    1  UNL1        0.0968
      8 N          -4.7467  -17.5795   22.8908 N.ar    1  UNL1       -0.1671
      9 N          -3.4083  -18.2083   22.6401 N.ar    1  UNL1       -0.2149
     10 C          -2.1784  -17.6344   23.2790 C.3     1  UNL1        0.1571
     11 C          -3.2995  -19.4111   21.7504 C.ar    1  UNL1        0.2721
     12 O          -1.9610  -20.0399   21.4996 O.2     1  UNL1       -0.2659
     13 C          -4.5293  -19.9849   21.1115 C.ar    1  UNL1        0.0329
     14 C          -5.8679  -19.3561   21.3622 C.ar    1  UNL1       -0.0022
     15 C          -6.8971  -20.1373   20.6004 C.3     1  UNL1        0.0281
     16 C          -6.1946  -21.2489   19.8788 C.3     1  UNL1        0.0095
     17 C          -4.7313  -21.1548   20.1946 C.3     1  UNL1        0.0313
     18 O         -11.3306  -15.6377   23.2549 O.3     1  UNL1       -0.4754
     19 C         -12.4658  -15.8868   22.3067 C.3     1  UNL1        0.2068
     20 C         -12.9306  -17.2887   22.0449 C.3     1  UNL1        0.0646
     21 C         -12.9824  -18.2835   23.1664 C.3     1  UNL1        0.0759
     22 C         -11.0422  -19.9948   21.1773 C.3     1  UNL1        0.0173
     23 C         -10.8507  -19.8126   22.6538 C.3     1  UNL1        0.0576
     24 C          -9.7338  -20.3852   23.4753 C.3     1  UNL1        0.0174
     25 C          -9.9354  -19.9523   24.8973 C.3     1  UNL1        0.0187
     26 C         -11.1768  -19.1123   24.9547 C.3     1  UNL1        0.0721
     27 N         -11.7425  -19.0260   23.5681 N.3     1  UNL1       -0.2738
@<TRIPOS>BOND
     1    23    22    1
     2    23    24    1
     3    24    25    1
     4    25    26    1
     5    26    27    1
     6    27    21    1
     7    21    20    1
     8    20    19    1
     9    19    18    1
    10    18     1    1
    11     1     2   ar
    12     2     3   ar
    13     3     4   ar
    14     4     7    1
    15     7     8   ar
    16     8     9   ar
    17     9    10    1
    18     9    11   ar
    19    11    12    2
    20    11    13   ar
    21    13    14   ar
    22    14    15    1
    23    15    16    1
    24    16    17    1
    25     4     5   ar
    26     5     6   ar
    27    27    23    1
    28     6     1   ar
    29    14     7   ar
    30    17    13    1
@<TRIPOS>MOLECULE
*****
 27 30 0 0 0
SMALL
GASTEIGER

@<TRIPOS>ATOM
      1 C          -9.9562  -18.2744   24.1808 C.ar    1  UNL1        0.1386
      2 C          -9.1325  -17.0301   24.0285 C.ar    1  UNL1        0.0369
      3 C          -7.7758  -17.1019   23.3927 C.ar    1  UNL1        0.0047
      4 C          -7.2429  -18.4180   22.9092 C.ar    1  UNL1        0.0192
      5 C          -8.0666  -19.6623   23.0615 C.ar    1  UNL1        0.0047
      6 C          -9.4233  -19.5905   23.6973 C.ar    1  UNL1        0.0369
      7 C          -5.8862  -18.4899   22.2734 C.ar    1  UNL1        0.0968
      8 N          -4.8443  -17.4649   22.6113 N.ar    1  UNL1       -0.1671
      9 N          -3.4877  -17.5367   21.9755 N.ar    1  UNL1       -0.2149
     10 C          -2.4458  -16.5118   22.3134 C.3     1  UNL1        0.1571
     11 C          -3.1728  -18.6335   21.0019 C.ar    1  UNL1        0.2721
     12 O          -1.8161  -18.7053   20.3661 O.2     1  UNL1       -0.2659
     13 C          -4.2146  -19.6584   20.6640 C.ar    1  UNL1        0.0329
     14 C          -5.5713  -19.5866   21.2998 C.ar    1  UNL1       -0.0022
     15 C          -6.3897  -20.7294   20.7761 C.3     1  UNL1        0.0281
     16 C          -5.5388  -21.5075   19.8167 C.3     1  UNL1        0.0095
     17 C          -4.1945  -20.8456   19.7474 C.3     1  UNL1        0.0313
     18 O         -11.3129  -18.2026   24.8166 O.3     1  UNL1       -0.4754
     19 C         -12.5345  -18.5501   24.0186 C.3     1  UNL1        0.2068
     20 C         -13.1219  -17.5467   23.0709 C.3     1  UNL1        0.0646
     21 C         -13.0380  -17.7745   21.5907 C.3     1  UNL1        0.0759
     22 C         -10.5167  -15.8549   20.8110 C.3     1  UNL1        0.0173
     23 C         -10.5879  -17.3402   20.6144 C.3     1  UNL1        0.0576
     24 C          -9.5125  -18.2041   20.0248 C.3     1  UNL1        0.0174
     25 C         -10.0070  -19.6203   20.0188 C.3     1  UNL1        0.0187
     26 C         -11.3878  -19.6317   20.6047 C.3     1  UNL1        0.0721
     27 N         -11.7468  -18.2226   20.9728 N.3     1  UNL1       -0.2738
@<TRIPOS>BOND
     1    23    22    1
     2    23    24    1
     3    24    25    1
     4    25    26    1
     5    26    27    1
     6    27    21    1
     7    21    20    1
     8    20    19    1
     9    19    18    1
    10    18     1    1
    11     1     2   ar
    12     2     3   ar
    13     3     4   ar
    14     4     7    1
    15     7     8   ar
    16     8     9   ar
    17     9    10    1
    18     9    11   ar
    19    11    12    2
    20    11    13   ar
    21    13    14   ar
    22    14    15    1
    23    15    16    1
    24    16    17    1
    25     4     5   ar
    26     5     6   ar
    27    27    23    1
    28     6     1   ar
    29    14     7   ar
    30    17    13    1
@<TRIPOS>MOLECULE
*****
 27 30 0 0 0
SMALL
GASTEIGER

@<TRIPOS>ATOM
      1 C         -10.8107  -18.7150   24.3177 C.ar    1  UNL1        0.1386
      2 C         -10.0891  -17.4861   23.8497 C.ar    1  UNL1        0.0369
      3 C          -8.7397  -17.6081   23.2061 C.ar    1  UNL1        0.0047
      4 C          -8.1120  -18.9590   23.0306 C.ar    1  UNL1        0.0192
      5 C          -8.8336  -20.1879   23.4985 C.ar    1  UNL1        0.0047
      6 C         -10.1830  -20.0659   24.1421 C.ar    1  UNL1        0.0369
      7 C          -6.7625  -19.0811   22.3870 C.ar    1  UNL1        0.0968
      8 N          -6.5135  -20.1492   21.3636 N.ar    1  UNL1       -0.1671
      9 N          -5.1642  -20.2713   20.7200 N.ar    1  UNL1       -0.2149
     10 C          -4.9152  -21.3394   19.6965 C.3     1  UNL1        0.1571
     11 C          -4.0638  -19.3254   21.0997 C.ar    1  UNL1        0.2721
     12 O          -2.7144  -19.4476   20.4561 O.2     1  UNL1       -0.2659
     13 C          -4.3127  -18.2574   22.1231 C.ar    1  UNL1        0.0329
     14 C          -5.6620  -18.1352   22.7667 C.ar    1  UNL1       -0.0022
     15 C          -5.6115  -16.9916   23.7361 C.3     1  UNL1        0.0281
     16 C          -4.2308  -16.4070   23.6916 C.3     1  UNL1        0.0095
     17 C          -3.4281  -17.1893   22.6947 C.3     1  UNL1        0.0313
     18 O         -12.1601  -18.5930   24.9613 O.3     1  UNL1       -0.4754
     19 C         -13.3506  -18.1987   24.1385 C.3     1  UNL1        0.2068
     20 C         -13.1815  -17.2741   22.9695 C.3     1  UNL1        0.0646
     21 C         -13.2438  -17.8137   21.5713 C.3     1  UNL1        0.0759
     22 C         -11.2506  -15.9582   19.7730 C.3     1  UNL1        0.0173
     23 C         -11.0736  -17.4196   20.0613 C.3     1  UNL1        0.0576
     24 C          -9.9494  -18.2847   19.5736 C.3     1  UNL1        0.0174
     25 C         -10.1709  -19.6722   20.0988 C.3     1  UNL1        0.0187
     26 C         -11.4319  -19.6646   20.9111 C.3     1  UNL1        0.0721
     27 N         -11.9898  -18.2724   20.8879 N.3     1  UNL1       -0.2738
@<TRIPOS>BOND
     1    23    22    1
     2    23    24    1
     3    24    25    1
     4    25    26    1
     5    26    27    1
     6    27    21    1
     7    21    20    1
     8    20    19    1
     9    19    18    1
    10    18     1    1
    11     1     2   ar
    12     2     3   ar
    13     3     4   ar
    14     4     7    1
    15     7     8   ar
    16     8     9   ar
    17     9    10    1
    18     9    11   ar
    19    11    12    2
    20    11    13   ar
    21    13    14   ar
    22    14    15    1
    23    15    16    1
    24    16    17    1
    25     4     5   ar
    26     5     6   ar
    27    27    23    1
    28     6     1   ar
    29    14     7   ar
    30    17    13    1
@<TRIPOS>MOLECULE
*****
 27 30 0 0 0
SMALL
GASTEIGER

@<TRIPOS>ATOM
      1 C          -4.9791  -16.7884   23.4631 C.ar    1  UNL1        0.1386
      2 C          -5.9005  -15.6627   23.8288 C.ar    1  UNL1        0.0369
      3 C          -7.3427  -15.7107   23.4193 C.ar    1  UNL1        0.0047
      4 C          -7.8635  -16.8844   22.6441 C.ar    1  UNL1        0.0192
      5 C          -6.9421  -18.0102   22.2783 C.ar    1  UNL1        0.0047
      6 C          -5.4999  -17.9622   22.6878 C.ar    1  UNL1        0.0369
      7 C          -9.3057  -16.9325   22.2345 C.ar    1  UNL1        0.0968
      8 N          -9.7432  -16.2883   20.9524 N.ar    1  UNL1       -0.1671
      9 N         -11.1853  -16.3363   20.5428 N.ar    1  UNL1       -0.2149
     10 C         -11.6227  -15.6921   19.2607 C.3     1  UNL1        0.1571
     11 C         -12.1901  -17.0285   21.4152 C.ar    1  UNL1        0.2721
     12 O         -13.6323  -17.0765   21.0056 O.2     1  UNL1       -0.2659
     13 C         -11.7527  -17.6727   22.6973 C.ar    1  UNL1        0.0329
     14 C         -10.3106  -17.6247   23.1070 C.ar    1  UNL1       -0.0022
     15 C         -10.1764  -18.3436   24.4166 C.3     1  UNL1        0.0281
     16 C         -11.5358  -18.8360   24.8163 C.3     1  UNL1        0.0095
     17 C         -12.5100  -18.4213   23.7538 C.3     1  UNL1        0.0313
     18 O          -3.5369  -16.7405   23.8726 O.3     1  UNL1       -0.4754
     19 C          -2.4694  -17.1708   22.9108 C.3     1  UNL1        0.2068
     20 C          -2.0185  -18.6012   22.8815 C.3     1  UNL1        0.0646
     21 C          -2.1788  -19.4125   21.6301 C.3     1  UNL1        0.0759
     22 C           0.1654  -17.9042   19.9332 C.3     1  UNL1        0.0173
     23 C          -1.2731  -18.0324   19.5277 C.3     1  UNL1        0.0576
     24 C          -1.8867  -17.4897   18.2711 C.3     1  UNL1        0.0174
     25 C          -3.3434  -17.8477   18.2745 C.3     1  UNL1        0.0187
     26 C          -3.6301  -18.6115   19.5332 C.3     1  UNL1        0.0721
     27 N          -2.3506  -18.7257   20.3077 N.3     1  UNL1       -0.2738
@<TRIPOS>BOND
     1    23    22    1
     2    23    24    1
     3    24    25    1
     4    25    26    1
     5    26    27    1
     6    27    21    1
     7    21    20    1
     8    20    19    1
     9    19    18    1
    10    18     1    1
    11     1     2   ar
    12     2     3   ar
    13     3     4   ar
    14     4     7    1
    15     7     8   ar
    16     8     9   ar
    17     9    10    1
    18     9    11   ar
    19    11    12    2
    20    11    13   ar
    21    13    14   ar
    22    14    15    1
    23    15    16    1
    24    16    17    1
    25     4     5   ar
    26     5     6   ar
    27    27    23    1
    28     6     1   ar
    29    14     7   ar
    30    17    13    1
@<TRIPOS>MOLECULE
*****
 27 30 0 0 0
SMALL
GASTEIGER

@<TRIPOS>ATOM
      1 C          -5.2128  -20.2417   20.4927 C.ar    1  UNL1        0.1386
      2 C          -5.8049  -19.0860   19.7418 C.ar    1  UNL1        0.0369
      3 C          -7.1437  -18.5395   20.1405 C.ar    1  UNL1        0.0047
      4 C          -7.8904  -19.1488   21.2899 C.ar    1  UNL1        0.0192
      5 C          -7.2983  -20.3045   22.0407 C.ar    1  UNL1        0.0047
      6 C          -5.9594  -20.8510   21.6421 C.ar    1  UNL1        0.0369
      7 C          -9.2293  -18.6024   21.6886 C.ar    1  UNL1        0.0968
      8 N          -9.9444  -17.6389   20.7884 N.ar    1  UNL1       -0.1671
      9 N         -11.2831  -17.0925   21.1870 N.ar    1  UNL1       -0.2149
     10 C         -11.9983  -16.1289   20.2868 C.3     1  UNL1        0.1571
     11 C         -11.9070  -17.5095   22.4858 C.ar    1  UNL1        0.2721
     12 O         -13.2458  -16.9630   22.8844 O.2     1  UNL1       -0.2659
     13 C         -11.1919  -18.4730   23.3860 C.ar    1  UNL1        0.0329
     14 C          -9.8531  -19.0194   22.9874 C.ar    1  UNL1       -0.0022
     15 C          -9.3892  -19.9464   24.0717 C.3     1  UNL1        0.0281
     16 C         -10.4414  -19.9728   25.1404 C.3     1  UNL1        0.0095
     17 C         -11.5555  -19.0622   24.7166 C.3     1  UNL1        0.0313
     18 O          -3.8739  -20.7882   20.0941 O.3     1  UNL1       -0.4754
     19 C          -2.8373  -19.8778   19.5056 C.3     1  UNL1        0.2068
     20 C          -1.8317  -19.2110   20.3967 C.3     1  UNL1        0.0646
     21 C          -2.0642  -19.1521   21.8774 C.3     1  UNL1        0.0759
     22 C          -1.6548  -15.9366   21.4994 C.3     1  UNL1        0.0173
     23 C          -2.7477  -16.6001   22.2838 C.3     1  UNL1        0.0576
     24 C          -3.8445  -15.9021   23.0322 C.3     1  UNL1        0.0174
     25 C          -4.7104  -16.9487   23.6685 C.3     1  UNL1        0.0187
     26 C          -4.1489  -18.2936   23.3133 C.3     1  UNL1        0.0721
     27 N          -2.9359  -18.0781   22.4576 N.3     1  UNL1       -0.2738
@<TRIPOS>BOND
     1    23    22    1
     2    23    24    1
     3    24    25    1
     4    25    26    1
     5    26    27    1
     6    27    21    1
     7    21    20    1
     8    20    19    1
     9    19    18    1
    10    18     1    1
    11     1     2   ar
    12     2     3   ar
    13     3     4   ar
    14     4     7    1
    15     7     8   ar
    16     8     9   ar
    17     9    10    1
    18     9    11   ar
    19    11    12    2
    20    11    13   ar
    21    13    14   ar
    22    14    15    1
    23    15    16    1
    24    16    17    1
    25     4     5   ar
    26     5     6   ar
    27    27    23    1
    28     6     1   ar
    29    14     7   ar
    30    17    13    1
@<TRIPOS>MOLECULE
*****
 27 30 0 0 0
SMALL
GASTEIGER

@<TRIPOS>ATOM
      1 C         -13.8907   -6.0088   18.9663 C.ar    1  UNL1        0.1386
      2 C         -13.3162   -5.1876   20.0823 C.ar    1  UNL1        0.0369
      3 C         -13.4794   -3.6965   20.0772 C.ar    1  UNL1        0.0047
      4 C         -14.2172   -3.0267   18.9561 C.ar    1  UNL1        0.0192
      5 C         -14.7917   -3.8479   17.8401 C.ar    1  UNL1        0.0047
      6 C         -14.6285   -5.3390   17.8452 C.ar    1  UNL1        0.0369
      7 C         -14.3804   -1.5356   18.9509 C.ar    1  UNL1        0.0968
      8 N         -15.5432   -0.9060   19.6591 N.ar    1  UNL1       -0.1671
      9 N         -15.7066    0.5850   19.6540 N.ar    1  UNL1       -0.2149
     10 C         -16.8694    1.2147   20.3622 C.3     1  UNL1        0.1571
     11 C         -14.7071    1.4466   18.9406 C.ar    1  UNL1        0.2721
     12 O         -14.8705    2.9376   18.9354 O.2     1  UNL1       -0.2659
     13 C         -13.5444    0.8170   18.2323 C.ar    1  UNL1        0.0329
     14 C         -13.3810   -0.6741   18.2375 C.ar    1  UNL1       -0.0022
     15 C         -12.1433   -1.0075   17.4585 C.3     1  UNL1        0.0281
     16 C         -11.5417    0.2775   16.9719 C.3     1  UNL1        0.0095
     17 C         -12.4076    1.4051   17.4501 C.3     1  UNL1        0.0313
     18 O         -13.7275   -7.4999   18.9714 O.3     1  UNL1       -0.4754
     19 C         -13.7665   -8.2631   17.6808 C.3     1  UNL1        0.2068
     20 C         -12.7893   -7.9412   16.5892 C.3     1  UNL1        0.0646
     21 C         -11.3208   -7.8856   16.8896 C.3     1  UNL1        0.0759
     22 C         -11.5437   -4.7576   15.9865 C.3     1  UNL1        0.0173
     23 C         -10.8528   -5.2739   17.2137 C.3     1  UNL1        0.0576
     24 C         -10.1429   -4.4430   18.2413 C.3     1  UNL1        0.0174
     25 C          -9.6018   -5.3674   19.2914 C.3     1  UNL1        0.0187
     26 C          -9.9771   -6.7695   18.9129 C.3     1  UNL1        0.0721
     27 N         -10.7503   -6.7117   17.6288 N.3     1  UNL1       -0.2738
@<TRIPOS>BOND
     1    23    22    1
     2    23    24    1
     3    24    25    1
     4    25    26    1
     5    26    27    1
     6    27    21    1
     7    21    20    1
     8    20    19    1
     9    19    18    1
    10    18     1    1
    11     1     2   ar
    12     2     3   ar
    13     3     4   ar
    14     4     7    1
    15     7     8   ar
    16     8     9   ar
    17     9    10    1
    18     9    11   ar
    19    11    12    2
    20    11    13   ar
    21    13    14   ar
    22    14    15    1
    23    15    16    1
    24    16    17    1
    25     4     5   ar
    26     5     6   ar
    27    27    23    1
    28     6     1   ar
    29    14     7   ar
    30    17    13    1
@<TRIPOS>MOLECULE
*****
 27 30 0 0 0
SMALL
GASTEIGER

@<TRIPOS>ATOM
      1 C         -13.7405   -5.5464   18.7154 C.ar    1  UNL1        0.1386
      2 C         -13.1798   -4.6897   19.8116 C.ar    1  UNL1        0.0369
      3 C         -13.3107   -3.1972   19.7385 C.ar    1  UNL1        0.0047
      4 C         -14.0023   -2.5615   18.5691 C.ar    1  UNL1        0.0192
      5 C         -14.5630   -3.4182   17.4729 C.ar    1  UNL1        0.0047
      6 C         -14.4321   -4.9107   17.5460 C.ar    1  UNL1        0.0369
      7 C         -14.1332   -1.0690   18.4959 C.ar    1  UNL1        0.0968
      8 N         -13.1655   -0.2706   17.6735 N.ar    1  UNL1       -0.1671
      9 N         -13.2964    1.2218   17.6002 N.ar    1  UNL1       -0.2149
     10 C         -12.3287    2.0201   16.7778 C.3     1  UNL1        0.1571
     11 C         -14.3949    1.9160   18.3494 C.ar    1  UNL1        0.2721
     12 O         -14.5258    3.4085   18.2761 O.2     1  UNL1       -0.2659
     13 C         -15.3626    1.1177   19.1718 C.ar    1  UNL1        0.0329
     14 C         -15.2317   -0.3747   19.2451 C.ar    1  UNL1       -0.0022
     15 C         -16.3258   -0.8931   20.1306 C.3     1  UNL1        0.0281
     16 C         -17.1329    0.2790   20.6047 C.3     1  UNL1        0.0095
     17 C         -16.5376    1.5218   20.0121 C.3     1  UNL1        0.0313
     18 O         -13.6096   -7.0389   18.7885 O.3     1  UNL1       -0.4754
     19 C         -13.4956   -7.8444   17.5284 C.3     1  UNL1        0.2068
     20 C         -12.1502   -8.0814   16.9088 C.3     1  UNL1        0.0646
     21 C         -11.4402   -6.9620   16.2068 C.3     1  UNL1        0.0759
     22 C          -9.6700   -7.2996   18.9274 C.3     1  UNL1        0.0173
     23 C         -10.0107   -6.0042   18.2523 C.3     1  UNL1        0.0576
     24 C          -9.5976   -4.6365   18.7093 C.3     1  UNL1        0.0174
     25 C         -10.1560   -3.6360   17.7410 C.3     1  UNL1        0.0187
     26 C         -10.9142   -4.3854   16.6858 C.3     1  UNL1        0.0721
     27 N         -10.8244   -5.8490   17.0018 N.3     1  UNL1       -0.2738
@<TRIPOS>BOND
     1    23    22    1
     2    23    24    1
     3    24    25    1
     4    25    26    1
     5    26    27    1
     6    27    21    1
     7    21    20    1
     8    20    19    1
     9    19    18    1
    10    18     1    1
    11     1     2   ar
    12     2     3   ar
    13     3     4   ar
    14     4     7    1
    15     7     8   ar
    16     8     9   ar
    17     9    10    1
    18     9    11   ar
    19    11    12    2
    20    11    13   ar
    21    13    14   ar
    22    14    15    1
    23    15    16    1
    24    16    17    1
    25     4     5   ar
    26     5     6   ar
    27    27    23    1
    28     6     1   ar
    29    14     7   ar
    30    17    13    1
@<TRIPOS>MOLECULE
*****
 27 30 0 0 0
SMALL
GASTEIGER

@<TRIPOS>ATOM
      1 C          -4.7384  -19.9057   19.9410 C.ar    1  UNL1        0.1386
      2 C          -5.3583  -18.5401   19.9134 C.ar    1  UNL1        0.0369
      3 C          -6.6657  -18.2957   20.6070 C.ar    1  UNL1        0.0047
      4 C          -7.3531  -19.4171   21.3281 C.ar    1  UNL1        0.0192
      5 C          -6.7332  -20.7827   21.3556 C.ar    1  UNL1        0.0047
      6 C          -5.4258  -21.0270   20.6621 C.ar    1  UNL1        0.0369
      7 C          -8.6606  -19.1728   22.0217 C.ar    1  UNL1        0.0968
      8 N          -8.7789  -19.3982   23.5000 N.ar    1  UNL1       -0.1671
      9 N         -10.0862  -19.1540   24.1936 N.ar    1  UNL1       -0.2149
     10 C         -10.2046  -19.3793   25.6719 C.3     1  UNL1        0.1571
     11 C         -11.2753  -18.6844   23.4090 C.ar    1  UNL1        0.2721
     12 O         -12.5827  -18.4402   24.1026 O.2     1  UNL1       -0.2659
     13 C         -11.1570  -18.4591   21.9307 C.ar    1  UNL1        0.0329
     14 C          -9.8496  -18.7033   21.2371 C.ar    1  UNL1       -0.0022
     15 C         -10.0336  -18.3972   19.7802 C.3     1  UNL1        0.0281
     16 C         -11.4546  -17.9639   19.5735 C.3     1  UNL1        0.0095
     17 C         -12.1490  -18.0021   20.9025 C.3     1  UNL1        0.0313
     18 O          -3.4310  -20.1500   19.2475 O.3     1  UNL1       -0.4754
     19 C          -2.4155  -19.0503   19.1522 C.3     1  UNL1        0.2068
     20 C          -1.4154  -18.8553   20.2531 C.3     1  UNL1        0.0646
     21 C          -1.8075  -19.1157   21.6773 C.3     1  UNL1        0.0759
     22 C          -1.7550  -15.8533   21.6207 C.3     1  UNL1        0.0173
     23 C          -2.7577  -16.7066   22.3393 C.3     1  UNL1        0.0576
     24 C          -3.9125  -16.2101   23.1580 C.3     1  UNL1        0.0174
     25 C          -4.6502  -17.4029   23.6900 C.3     1  UNL1        0.0187
     26 C          -3.9515  -18.6365   23.2001 C.3     1  UNL1        0.0721
     27 N          -2.7819  -18.2062   22.3653 N.3     1  UNL1       -0.2738
@<TRIPOS>BOND
     1    23    22    1
     2    23    24    1
     3    24    25    1
     4    25    26    1
     5    26    27    1
     6    27    21    1
     7    21    20    1
     8    20    19    1
     9    19    18    1
    10    18     1    1
    11     1     2   ar
    12     2     3   ar
    13     3     4   ar
    14     4     7    1
    15     7     8   ar
    16     8     9   ar
    17     9    10    1
    18     9    11   ar
    19    11    12    2
    20    11    13   ar
    21    13    14   ar
    22    14    15    1
    23    15    16    1
    24    16    17    1
    25     4     5   ar
    26     5     6   ar
    27    27    23    1
    28     6     1   ar
    29    14     7   ar
    30    17    13    1
@<TRIPOS>MOLECULE
*****
 27 30 0 0 0
SMALL
GASTEIGER

@<TRIPOS>ATOM
      1 C           6.7190   -2.3195   18.5236 C.ar    1  UNL1        0.1386
      2 C           7.9783   -2.0786   19.3022 C.ar    1  UNL1        0.0369
      3 C           8.1822   -2.7536   20.6261 C.ar    1  UNL1        0.0047
      4 C           7.1269   -3.6694   21.1714 C.ar    1  UNL1        0.0192
      5 C           5.8676   -3.9103   20.3928 C.ar    1  UNL1        0.0047
      6 C           5.6636   -3.2353   19.0689 C.ar    1  UNL1        0.0369
      7 C           7.3307   -4.3445   22.4953 C.ar    1  UNL1        0.0968
      8 N           8.0360   -5.6667   22.5623 N.ar    1  UNL1       -0.1671
      9 N           8.2399   -6.3418   23.8861 N.ar    1  UNL1       -0.2149
     10 C           8.9452   -7.6640   23.9531 C.3     1  UNL1        0.1571
     11 C           7.7385   -5.6947   25.1431 C.ar    1  UNL1        0.2721
     12 O           7.9424   -6.3698   26.4670 O.2     1  UNL1       -0.2659
     13 C           7.0333   -4.3726   25.0762 C.ar    1  UNL1        0.0329
     14 C           6.8294   -3.6975   23.7523 C.ar    1  UNL1       -0.0022
     15 C           6.1038   -2.4075   23.9966 C.3     1  UNL1        0.0281
     16 C           5.8593   -2.2855   25.4715 C.3     1  UNL1        0.0095
     17 C           6.4337   -3.4999   26.1387 C.3     1  UNL1        0.0313
     18 O           6.5150   -1.6445   17.1997 O.3     1  UNL1       -0.4754
     19 C           6.5532   -0.1479   17.1070 C.3     1  UNL1        0.2068
     20 C           5.2812    0.6419   17.1980 C.3     1  UNL1        0.0646
     21 C           4.8063    1.1482   18.5277 C.3     1  UNL1        0.0759
     22 C           5.9291    0.2232   21.4489 C.3     1  UNL1        0.0173
     23 C           4.6347   -0.2074   20.8251 C.3     1  UNL1        0.0576
     24 C           3.6291   -1.1388   21.4345 C.3     1  UNL1        0.0174
     25 C           2.4915   -1.2892   20.4684 C.3     1  UNL1        0.0187
     26 C           2.7940   -0.4508   19.2619 C.3     1  UNL1        0.0721
     27 N           4.1186    0.2178   19.4824 N.3     1  UNL1       -0.2738
@<TRIPOS>BOND
     1    23    22    1
     2    23    24    1
     3    24    25    1
     4    25    26    1
     5    26    27    1
     6    27    21    1
     7    21    20    1
     8    20    19    1
     9    19    18    1
    10    18     1    1
    11     1     2   ar
    12     2     3   ar
    13     3     4   ar
    14     4     7    1
    15     7     8   ar
    16     8     9   ar
    17     9    10    1
    18     9    11   ar
    19    11    12    2
    20    11    13   ar
    21    13    14   ar
    22    14    15    1
    23    15    16    1
    24    16    17    1
    25     4     5   ar
    26     5     6   ar
    27    27    23    1
    28     6     1   ar
    29    14     7   ar
    30    17    13    1
