@<TRIPOS>MOLECULE
*****
 35 39 0 0 0
SMALL
GASTEIGER

@<TRIPOS>ATOM
      1 N           8.5971   -3.9488   20.8332 N.pl3   1  UNL1       -0.3058
      2 H           9.5134   -3.9235   20.4738 H       1  UNL1        0.1495
      3 C           8.3266   -4.6114   22.1514 C.ar    1  UNL1        0.1981
      4 N           8.4191   -6.0815   22.4347 N.ar    1  UNL1       -0.2138
      5 C           8.0657   -6.2989   23.8762 C.ar    1  UNL1        0.0999
      6 C           7.9869   -7.5406   24.7140 C.ar    1  UNL1        0.0207
      7 C           7.5972   -7.4465   26.1594 C.ar    1  UNL1        0.0016
      8 C           7.2862   -6.1108   26.7670 C.ar    1  UNL1        0.0016
      9 C           7.3650   -4.8691   25.9292 C.ar    1  UNL1        0.0188
     10 C           7.7548   -4.9632   24.4838 C.ar    1  UNL1        0.0801
     11 N           7.9160   -3.9203   23.4178 N.ar    1  UNL1       -0.2956
     12 C           7.7039   -2.4451   23.5883 C.3     1  UNL1        0.1354
     13 C           6.3380   -1.8564   23.3942 C.ar    1  UNL1        0.0006
     14 C           5.2046   -2.2832   24.2794 C.ar    1  UNL1       -0.0001
     15 C           3.8387   -1.6945   24.0854 C.ar    1  UNL1        0.0294
     16 C           3.6061   -0.6790   23.0062 C.ar    1  UNL1        0.1401
     17 F           2.2402   -0.0903   22.8122 F       1  UNL1       -0.2042
     18 C           4.7394   -0.2523   22.1211 C.ar    1  UNL1        0.0294
     19 C           6.1053   -0.8410   22.3151 C.ar    1  UNL1       -0.0001
     20 N           5.2209   -2.0768   18.5209 N.3     1  UNL1       -0.2723
     21 C           4.9478   -3.2180   19.4552 C.3     1  UNL1        0.0738
     22 C           6.0733   -3.8421   20.2260 C.3     1  UNL1        0.0369
     23 C           7.4717   -3.3248   20.0624 C.3     1  UNL1        0.0745
     24 C           7.7448   -2.1835   19.1281 C.3     1  UNL1        0.0369
     25 C           6.6194   -1.5595   18.3574 C.3     1  UNL1        0.0738
     26 C           4.0955   -1.4527   17.7501 C.3     1  UNL1        0.0768
     27 C           3.8291    0.0185   17.8706 C.3     1  UNL1        0.0437
     28 C           0.2327    1.4744   20.1501 C.ar    1  UNL1        0.1387
     29 C           0.6257    0.0282   20.2132 C.ar    1  UNL1        0.0366
     30 C           1.8245   -0.4571   19.4534 C.ar    1  UNL1       -0.0011
     31 C           2.6303    0.5038   18.6304 C.ar    1  UNL1       -0.0206
     32 C           2.2373    1.9500   18.5672 C.ar    1  UNL1       -0.0011
     33 C           1.0385    2.4353   19.3271 C.ar    1  UNL1        0.0366
     34 C          -1.8026    3.0758   20.3578 C.3     1  UNL1        0.2525
     35 O          -0.9661    1.9597   20.9099 O.3     1  UNL1       -0.4714
@<TRIPOS>BOND
     1    34    35    1
     2    35    28    1
     3    28    29   ar
     4    29    30   ar
     5    30    31   ar
     6    31    27    1
     7    27    26    1
     8    26    20    1
     9    20    21    1
    10    21    22    1
    11    22    23    1
    12    23     1    1
    13     1     3    1
    14     3     4   ar
    15     4     5   ar
    16     5     6   ar
    17     6     7   ar
    18     7     8   ar
    19     8     9   ar
    20     9    10   ar
    21    10    11   ar
    22    11    12    1
    23    12    13    1
    24    13    14   ar
    25    14    15   ar
    26    15    16   ar
    27    16    17    1
    28    16    18   ar
    29    18    19   ar
    30    23    24    1
    31    24    25    1
    32    31    32   ar
    33    32    33   ar
    34    33    28   ar
    35    25    20    1
    36    11     3   ar
    37    19    13   ar
    38    10     5   ar
    39     1     2    1
@<TRIPOS>MOLECULE
*****
 35 39 0 0 0
SMALL
GASTEIGER

@<TRIPOS>ATOM
      1 N          -5.8912  -20.5615   20.1371 N.pl3   1  UNL1       -0.3058
      2 H          -5.8329  -21.5443   20.1360 H       1  UNL1        0.1495
      3 C          -4.6389  -19.7359   20.1477 C.ar    1  UNL1        0.1981
      4 N          -3.8104  -19.3753   18.9504 N.ar    1  UNL1       -0.2138
      5 C          -2.6546  -18.5425   19.4202 C.ar    1  UNL1        0.0999
      6 C          -1.5130  -17.9046   18.6855 C.ar    1  UNL1        0.0207
      7 C          -0.4856  -17.1127   19.4386 C.ar    1  UNL1        0.0016
      8 C          -0.5998  -16.9585   20.9262 C.ar    1  UNL1        0.0016
      9 C          -1.7414  -17.5964   21.6609 C.ar    1  UNL1        0.0188
     10 C          -2.7688  -18.3884   20.9079 C.ar    1  UNL1        0.0801
     11 N          -3.9952  -19.1260   21.3575 N.ar    1  UNL1       -0.2956
     12 C          -4.4907  -19.2345   22.7691 C.3     1  UNL1        0.1354
     13 C          -4.7320  -17.9939   23.5768 C.ar    1  UNL1        0.0006
     14 C          -5.7994  -17.0248   23.1623 C.ar    1  UNL1       -0.0001
     15 C          -6.0407  -15.7841   23.9700 C.ar    1  UNL1        0.0294
     16 C          -5.2146  -15.5124   25.1922 C.ar    1  UNL1        0.1401
     17 F          -5.4559  -14.2717   25.9999 F       1  UNL1       -0.2042
     18 C          -4.1473  -16.4814   25.6067 C.ar    1  UNL1        0.0294
     19 C          -3.9060  -17.7221   24.7990 C.ar    1  UNL1       -0.0001
     20 N          -9.9146  -18.5462   20.1103 N.3     1  UNL1       -0.2723
     21 C          -8.8469  -18.0767   21.0535 C.3     1  UNL1        0.0738
     22 C          -7.5057  -18.7485   21.0624 C.3     1  UNL1        0.0369
     23 C          -7.2323  -19.8897   20.1282 C.3     1  UNL1        0.0745
     24 C          -8.3001  -20.3592   19.1850 C.3     1  UNL1        0.0369
     25 C          -9.6412  -19.6874   19.1761 C.3     1  UNL1        0.0738
     26 C         -11.2558  -17.8744   20.1014 C.3     1  UNL1        0.0768
     27 C         -11.9794  -17.6272   21.3918 C.3     1  UNL1        0.0437
     28 C          -9.7319  -17.7387   25.2887 C.ar    1  UNL1        0.1387
     29 C          -9.6343  -16.5336   24.4008 C.ar    1  UNL1        0.0366
     30 C         -10.3835  -16.4965   23.1019 C.ar    1  UNL1       -0.0011
     31 C         -11.2303  -17.6644   22.6907 C.ar    1  UNL1       -0.0206
     32 C         -11.3279  -18.8694   23.5786 C.ar    1  UNL1       -0.0011
     33 C         -10.5787  -18.9065   24.8776 C.ar    1  UNL1        0.0366
     34 C          -8.3390  -16.5291   27.1182 C.3     1  UNL1        0.2525
     35 O          -8.9828  -17.7758   26.5877 O.3     1  UNL1       -0.4714
@<TRIPOS>BOND
     1    34    35    1
     2    35    28    1
     3    28    29   ar
     4    29    30   ar
     5    30    31   ar
     6    31    27    1
     7    27    26    1
     8    26    20    1
     9    20    21    1
    10    21    22    1
    11    22    23    1
    12    23     1    1
    13     1     3    1
    14     3     4   ar
    15     4     5   ar
    16     5     6   ar
    17     6     7   ar
    18     7     8   ar
    19     8     9   ar
    20     9    10   ar
    21    10    11   ar
    22    11    12    1
    23    12    13    1
    24    13    14   ar
    25    14    15   ar
    26    15    16   ar
    27    16    17    1
    28    16    18   ar
    29    18    19   ar
    30    23    24    1
    31    24    25    1
    32    31    32   ar
    33    32    33   ar
    34    33    28   ar
    35    25    20    1
    36    11     3   ar
    37    19    13   ar
    38    10     5   ar
    39     1     2    1
@<TRIPOS>MOLECULE
*****
 35 39 0 0 0
SMALL
GASTEIGER

@<TRIPOS>ATOM
      1 N           6.3571    0.3496   17.7970 N.pl3   1  UNL1       -0.3058
      2 H           6.8701    0.4576   16.9638 H       1  UNL1        0.1495
      3 C           5.0510    1.0662   17.9719 C.ar    1  UNL1        0.1981
      4 N           4.8552    2.5534   17.9779 N.ar    1  UNL1       -0.2138
      5 C           3.3946    2.8278   18.1812 C.ar    1  UNL1        0.0999
      6 C           2.6170    4.1072   18.2728 C.ar    1  UNL1        0.0207
      7 C           1.1325    4.0691   18.4840 C.ar    1  UNL1        0.0016
      8 C           0.4256    2.7515   18.6036 C.ar    1  UNL1        0.0016
      9 C           1.2032    1.4721   18.5120 C.ar    1  UNL1        0.0188
     10 C           2.6877    1.5103   18.3008 C.ar    1  UNL1        0.0801
     11 N           3.7114    0.4216   18.1714 N.ar    1  UNL1       -0.2956
     12 C           3.4426   -1.0529   18.2311 C.3     1  UNL1        0.1354
     13 C           3.7544   -1.8222   19.4804 C.ar    1  UNL1        0.0006
     14 C           3.6063   -1.1667   20.8215 C.ar    1  UNL1       -0.0001
     15 C           3.9181   -1.9359   22.0710 C.ar    1  UNL1        0.0294
     16 C           4.3781   -3.3607   21.9793 C.ar    1  UNL1        0.1401
     17 F           4.6899   -4.1300   23.2287 F       1  UNL1       -0.2042
     18 C           4.5262   -4.0162   20.6383 C.ar    1  UNL1        0.0294
     19 C           4.2144   -3.2470   19.3889 C.ar    1  UNL1       -0.0001
     20 N           7.9304   -2.2940   21.0813 N.3     1  UNL1       -0.2723
     21 C           7.4127   -0.9238   21.4046 C.3     1  UNL1        0.0738
     22 C           6.8883   -0.0426   20.3098 C.3     1  UNL1        0.0369
     23 C           6.8815   -0.5316   18.8918 C.3     1  UNL1        0.0745
     24 C           7.3992   -1.9019   18.5685 C.3     1  UNL1        0.0369
     25 C           7.9237   -2.7830   19.6632 C.3     1  UNL1        0.0738
     26 C           8.4549   -3.1753   22.1760 C.3     1  UNL1        0.0768
     27 C           8.2132   -4.6549   22.1284 C.3     1  UNL1        0.0437
     28 C           7.8062   -6.9922   25.9522 C.ar    1  UNL1        0.1387
     29 C           7.2779   -5.5908   25.8700 C.ar    1  UNL1        0.0366
     30 C           7.4135   -4.8117   24.5954 C.ar    1  UNL1       -0.0011
     31 C           8.0775   -5.4340   23.4030 C.ar    1  UNL1       -0.0206
     32 C           8.6059   -6.8354   23.4852 C.ar    1  UNL1       -0.0011
     33 C           8.4703   -7.6146   24.7598 C.ar    1  UNL1        0.0366
     34 C           8.4362   -9.0482   27.4103 C.3     1  UNL1        0.2525
     35 O           7.6706   -7.7714   27.2267 O.3     1  UNL1       -0.4714
@<TRIPOS>BOND
     1    34    35    1
     2    35    28    1
     3    28    29   ar
     4    29    30   ar
     5    30    31   ar
     6    31    27    1
     7    27    26    1
     8    26    20    1
     9    20    21    1
    10    21    22    1
    11    22    23    1
    12    23     1    1
    13     1     3    1
    14     3     4   ar
    15     4     5   ar
    16     5     6   ar
    17     6     7   ar
    18     7     8   ar
    19     8     9   ar
    20     9    10   ar
    21    10    11   ar
    22    11    12    1
    23    12    13    1
    24    13    14   ar
    25    14    15   ar
    26    15    16   ar
    27    16    17    1
    28    16    18   ar
    29    18    19   ar
    30    23    24    1
    31    24    25    1
    32    31    32   ar
    33    32    33   ar
    34    33    28   ar
    35    25    20    1
    36    11     3   ar
    37    19    13   ar
    38    10     5   ar
    39     1     2    1
@<TRIPOS>MOLECULE
*****
 35 39 0 0 0
SMALL
GASTEIGER

@<TRIPOS>ATOM
      1 N          -0.4892    3.0467   19.3751 N.pl3   1  UNL1       -0.3058
      2 H          -0.5324    3.6916   18.6325 H       1  UNL1        0.1495
      3 C          -1.4105    3.1928   20.5499 C.ar    1  UNL1        0.1981
      4 N          -2.9010    3.0262   20.5275 N.ar    1  UNL1       -0.2138
      5 C          -3.4147    3.2616   21.9170 C.ar    1  UNL1        0.0999
      6 C          -4.7991    3.2321   22.4937 C.ar    1  UNL1        0.0207
      7 C          -5.0103    3.5147   23.9516 C.ar    1  UNL1        0.0016
      8 C          -3.8372    3.8268   24.8328 C.ar    1  UNL1        0.0016
      9 C          -2.4529    3.8563   24.2560 C.ar    1  UNL1        0.0188
     10 C          -2.2416    3.5737   22.7982 C.ar    1  UNL1        0.0801
     11 N          -1.0030    3.5312   21.9532 N.ar    1  UNL1       -0.2956
     12 C           0.3974    3.7829   22.4283 C.3     1  UNL1        0.1354
     13 C           1.2623    2.6344   22.8556 C.ar    1  UNL1        0.0006
     14 C           2.6089    2.4346   22.2258 C.ar    1  UNL1       -0.0001
     15 C           3.4739    1.2860   22.6531 C.ar    1  UNL1        0.0294
     16 C           2.9922    0.3372   23.7104 C.ar    1  UNL1        0.1401
     17 F           3.8572   -0.8113   24.1378 F       1  UNL1       -0.2042
     18 C           1.6456    0.5371   24.3403 C.ar    1  UNL1        0.0294
     19 C           0.7807    1.6856   23.9129 C.ar    1  UNL1       -0.0001
     20 N           2.4718   -0.3393   19.2453 N.3     1  UNL1       -0.2723
     21 C           1.1949   -0.4889   20.0179 C.3     1  UNL1        0.0738
     22 C           0.2078    0.6398   20.0612 C.3     1  UNL1        0.0369
     23 C           0.4978    1.9181   19.3319 C.3     1  UNL1        0.0745
     24 C           1.7748    2.0677   18.5592 C.3     1  UNL1        0.0369
     25 C           2.7618    0.9390   18.5160 C.3     1  UNL1        0.0738
     26 C           3.4589   -1.4680   19.2020 C.3     1  UNL1        0.0768
     27 C           3.4537   -2.5107   20.2803 C.3     1  UNL1        0.0437
     28 C           6.6962   -2.5372   23.4004 C.ar    1  UNL1        0.1387
     29 C           5.6555   -3.6174   23.3910 C.ar    1  UNL1        0.0366
     30 C           4.5747   -3.6086   22.3510 C.ar    1  UNL1       -0.0011
     31 C           4.5345   -2.5195   21.3203 C.ar    1  UNL1       -0.0206
     32 C           5.5751   -1.4392   21.3297 C.ar    1  UNL1       -0.0011
     33 C           6.6560   -1.4481   22.3698 C.ar    1  UNL1        0.0366
     34 C           7.5016   -3.1082   25.8036 C.3     1  UNL1        0.2525
     35 O           7.7770   -2.5460   24.4404 O.3     1  UNL1       -0.4714
@<TRIPOS>BOND
     1    34    35    1
     2    35    28    1
     3    28    29   ar
     4    29    30   ar
     5    30    31   ar
     6    31    27    1
     7    27    26    1
     8    26    20    1
     9    20    21    1
    10    21    22    1
    11    22    23    1
    12    23     1    1
    13     1     3    1
    14     3     4   ar
    15     4     5   ar
    16     5     6   ar
    17     6     7   ar
    18     7     8   ar
    19     8     9   ar
    20     9    10   ar
    21    10    11   ar
    22    11    12    1
    23    12    13    1
    24    13    14   ar
    25    14    15   ar
    26    15    16   ar
    27    16    17    1
    28    16    18   ar
    29    18    19   ar
    30    23    24    1
    31    24    25    1
    32    31    32   ar
    33    32    33   ar
    34    33    28   ar
    35    25    20    1
    36    11     3   ar
    37    19    13   ar
    38    10     5   ar
    39     1     2    1
@<TRIPOS>MOLECULE
*****
 35 39 0 0 0
SMALL
GASTEIGER

@<TRIPOS>ATOM
      1 N          -0.1034    2.0801   20.0199 N.pl3   1  UNL1       -0.3058
      2 H          -0.8765    1.8129   19.4720 H       1  UNL1        0.1495
      3 C           1.2724    2.0883   19.4221 C.ar    1  UNL1        0.1981
      4 N           2.0287    3.3011   18.9670 N.ar    1  UNL1       -0.2138
      5 C           3.3571    2.8476   18.4382 C.ar    1  UNL1        0.0999
      6 C           4.5161    3.6013   17.8564 C.ar    1  UNL1        0.0207
      7 C           5.7398    2.8619   17.4029 C.ar    1  UNL1        0.0016
      8 C           5.8045    1.3688   17.5312 C.ar    1  UNL1        0.0016
      9 C           4.6455    0.6151   18.1130 C.ar    1  UNL1        0.0188
     10 C           3.4218    1.3545   18.5665 C.ar    1  UNL1        0.0801
     11 N           2.1334    0.8853   19.1746 N.ar    1  UNL1       -0.2956
     12 C           1.7698   -0.5373   19.4813 C.3     1  UNL1        0.1354
     13 C           2.6862   -1.3825   20.3153 C.ar    1  UNL1        0.0006
     14 C           2.9301   -1.0307   21.7530 C.ar    1  UNL1       -0.0001
     15 C           3.8465   -1.8759   22.5870 C.ar    1  UNL1        0.0294
     16 C           4.5192   -3.0731   21.9834 C.ar    1  UNL1        0.1401
     17 F           5.4357   -3.9183   22.8174 F       1  UNL1       -0.2042
     18 C           4.2754   -3.4249   20.5458 C.ar    1  UNL1        0.0294
     19 C           3.3590   -2.5797   19.7117 C.ar    1  UNL1       -0.0001
     20 N          -0.6967    3.2764   24.3172 N.3     1  UNL1       -0.2723
     21 C          -1.4467    3.9877   23.2302 C.3     1  UNL1        0.0738
     22 C          -1.2490    3.5890   21.7978 C.3     1  UNL1        0.0369
     23 C          -0.3012    2.4789   21.4523 C.3     1  UNL1        0.0745
     24 C           0.4489    1.7675   22.5393 C.3     1  UNL1        0.0369
     25 C           0.2511    2.1663   23.9717 C.3     1  UNL1        0.0738
     26 C          -0.8945    3.6752   25.7497 C.3     1  UNL1        0.0768
     27 C          -1.5240    2.7154   26.7153 C.3     1  UNL1        0.0437
     28 C           1.0671    0.2119   29.4113 C.ar    1  UNL1        0.1387
     29 C          -0.3350   -0.2231   29.1030 C.ar    1  UNL1        0.0366
     30 C          -1.1987    0.6114   28.2043 C.ar    1  UNL1       -0.0011
     31 C          -0.6603    1.8809   27.6139 C.ar    1  UNL1       -0.0206
     32 C           0.7417    2.3159   27.9222 C.ar    1  UNL1       -0.0011
     33 C           1.6054    1.4814   28.8209 C.ar    1  UNL1        0.0366
     34 C           3.4246   -0.5502   30.1934 C.3     1  UNL1        0.2525
     35 O           1.9308   -0.6226   30.3099 O.3     1  UNL1       -0.4714
@<TRIPOS>BOND
     1    34    35    1
     2    35    28    1
     3    28    29   ar
     4    29    30   ar
     5    30    31   ar
     6    31    27    1
     7    27    26    1
     8    26    20    1
     9    20    21    1
    10    21    22    1
    11    22    23    1
    12    23     1    1
    13     1     3    1
    14     3     4   ar
    15     4     5   ar
    16     5     6   ar
    17     6     7   ar
    18     7     8   ar
    19     8     9   ar
    20     9    10   ar
    21    10    11   ar
    22    11    12    1
    23    12    13    1
    24    13    14   ar
    25    14    15   ar
    26    15    16   ar
    27    16    17    1
    28    16    18   ar
    29    18    19   ar
    30    23    24    1
    31    24    25    1
    32    31    32   ar
    33    32    33   ar
    34    33    28   ar
    35    25    20    1
    36    11     3   ar
    37    19    13   ar
    38    10     5   ar
    39     1     2    1
@<TRIPOS>MOLECULE
*****
 35 39 0 0 0
SMALL
GASTEIGER

@<TRIPOS>ATOM
      1 N           8.4542   -0.6789   23.3924 N.pl3   1  UNL1       -0.3058
      2 H           9.2868   -0.1678   23.5139 H       1  UNL1        0.1495
      3 C           8.0130   -1.6546   24.4428 C.ar    1  UNL1        0.1981
      4 N           7.8063   -1.3509   25.8971 N.ar    1  UNL1       -0.2138
      5 C           7.3666   -2.6139   26.5765 C.ar    1  UNL1        0.0999
      6 C           7.0170   -2.9167   28.0034 C.ar    1  UNL1        0.0207
      7 C           6.6024   -4.3038   28.3958 C.ar    1  UNL1        0.0016
      8 C           6.5373   -5.3881   27.3614 C.ar    1  UNL1        0.0016
      9 C           6.8868   -5.0853   25.9345 C.ar    1  UNL1        0.0188
     10 C           7.3015   -3.6982   25.5420 C.ar    1  UNL1        0.0801
     11 N           7.7010   -3.1053   24.2234 N.ar    1  UNL1       -0.2956
     12 C           7.7754   -3.8350   22.9149 C.3     1  UNL1        0.1354
     13 C           6.5992   -3.8278   21.9841 C.ar    1  UNL1        0.0006
     14 C           5.2051   -3.8595   22.5369 C.ar    1  UNL1       -0.0001
     15 C           4.0288   -3.8522   21.6061 C.ar    1  UNL1        0.0294
     16 C           4.2467   -3.8132   20.1225 C.ar    1  UNL1        0.1401
     17 F           3.0705   -3.8060   19.1917 F       1  UNL1       -0.2042
     18 C           5.6408   -3.7815   19.5698 C.ar    1  UNL1        0.0294
     19 C           6.8170   -3.7888   20.5005 C.ar    1  UNL1       -0.0001
     20 N           5.9721   -0.0880   19.6856 N.3     1  UNL1       -0.2723
     21 C           5.3084   -0.1619   21.0287 C.3     1  UNL1        0.0738
     22 C           6.1358   -0.3589   22.2644 C.3     1  UNL1        0.0369
     23 C           7.6268   -0.4820   22.1568 C.3     1  UNL1        0.0745
     24 C           8.2906   -0.4081   20.8136 C.3     1  UNL1        0.0369
     25 C           7.4632   -0.2111   19.5781 C.3     1  UNL1        0.0738
     26 C           5.1448    0.1089   18.4499 C.3     1  UNL1        0.0768
     27 C           3.8140   -0.5711   18.3222 C.3     1  UNL1        0.0437
     28 C           0.1417    1.3166   20.1113 C.ar    1  UNL1        0.1387
     29 C           0.5489   -0.0677   20.5213 C.ar    1  UNL1        0.0366
     30 C           1.7730   -0.6969   19.9249 C.ar    1  UNL1       -0.0011
     31 C           2.5899    0.0581   18.9185 C.ar    1  UNL1       -0.0206
     32 C           2.1826    1.4423   18.5086 C.ar    1  UNL1       -0.0011
     33 C           0.9585    2.0716   19.1050 C.ar    1  UNL1        0.0366
     34 C          -1.5981    3.2454   20.1643 C.3     1  UNL1        0.2525
     35 O          -1.0824    1.9458   20.7077 O.3     1  UNL1       -0.4714
@<TRIPOS>BOND
     1    34    35    1
     2    35    28    1
     3    28    29   ar
     4    29    30   ar
     5    30    31   ar
     6    31    27    1
     7    27    26    1
     8    26    20    1
     9    20    21    1
    10    21    22    1
    11    22    23    1
    12    23     1    1
    13     1     3    1
    14     3     4   ar
    15     4     5   ar
    16     5     6   ar
    17     6     7   ar
    18     7     8   ar
    19     8     9   ar
    20     9    10   ar
    21    10    11   ar
    22    11    12    1
    23    12    13    1
    24    13    14   ar
    25    14    15   ar
    26    15    16   ar
    27    16    17    1
    28    16    18   ar
    29    18    19   ar
    30    23    24    1
    31    24    25    1
    32    31    32   ar
    33    32    33   ar
    34    33    28   ar
    35    25    20    1
    36    11     3   ar
    37    19    13   ar
    38    10     5   ar
    39     1     2    1
@<TRIPOS>MOLECULE
*****
 35 39 0 0 0
SMALL
GASTEIGER

@<TRIPOS>ATOM
      1 N           3.2579    1.6020   18.3871 N.pl3   1  UNL1       -0.3058
      2 H           3.9320    2.0213   17.8048 H       1  UNL1        0.1495
      3 C           3.5135    0.2456   18.9743 C.ar    1  UNL1        0.1981
      4 N           3.4207   -1.0623   18.2458 N.ar    1  UNL1       -0.2138
      5 C           3.7566   -2.1573   19.2143 C.ar    1  UNL1        0.0999
      6 C           3.8277   -3.6476   19.0592 C.ar    1  UNL1        0.0207
      7 C           4.1993   -4.5066   20.2313 C.ar    1  UNL1        0.0016
      8 C           4.4998   -3.8755   21.5585 C.ar    1  UNL1        0.0016
      9 C           4.4287   -2.3853   21.7136 C.ar    1  UNL1        0.0188
     10 C           4.0571   -1.5262   20.5415 C.ar    1  UNL1        0.0801
     11 N           3.9068   -0.0411   20.3931 N.ar    1  UNL1       -0.2956
     12 C           4.1136    0.9783   21.4739 C.3     1  UNL1        0.1354
     13 C           2.9767    1.3555   22.3766 C.ar    1  UNL1        0.0006
     14 C           2.4279    0.3547   23.3500 C.ar    1  UNL1       -0.0001
     15 C           1.2910    0.7319   24.2527 C.ar    1  UNL1        0.0294
     16 C           0.7027    2.1100   24.1821 C.ar    1  UNL1        0.1401
     17 F          -0.4343    2.4872   25.0849 F       1  UNL1       -0.2042
     18 C           1.2514    3.1107   23.2088 C.ar    1  UNL1        0.0294
     19 C           2.3884    2.7335   22.3060 C.ar    1  UNL1       -0.0001
     20 N          -0.5900    3.7546   19.2870 N.3     1  UNL1       -0.2723
     21 C           0.5686    4.5039   18.6988 C.3     1  UNL1        0.0738
     22 C           1.8513    3.7864   18.3988 C.3     1  UNL1        0.0369
     23 C           1.9753    2.3195   18.6870 C.3     1  UNL1        0.0745
     24 C           0.8165    1.5702   19.2752 C.3     1  UNL1        0.0369
     25 C          -0.4661    2.2878   19.5752 C.3     1  UNL1        0.0738
     26 C          -1.8727    4.4721   19.5869 C.3     1  UNL1        0.0768
     27 C          -3.1145    3.6903   19.8978 C.3     1  UNL1        0.0437
     28 C          -4.6986    3.5635   24.1078 C.ar    1  UNL1        0.1387
     29 C          -3.2188    3.5578   23.8628 C.ar    1  UNL1        0.0366
     30 C          -2.6907    3.6001   22.4595 C.ar    1  UNL1       -0.0011
     31 C          -3.6425    3.6480   21.3011 C.ar    1  UNL1       -0.0206
     32 C          -5.1224    3.6537   21.5461 C.ar    1  UNL1       -0.0011
     33 C          -5.6504    3.6114   22.9495 C.ar    1  UNL1        0.0366
     34 C          -4.5563    4.3204   26.5891 C.3     1  UNL1        0.2525
     35 O          -5.2266    3.5213   25.5111 O.3     1  UNL1       -0.4714
@<TRIPOS>BOND
     1    34    35    1
     2    35    28    1
     3    28    29   ar
     4    29    30   ar
     5    30    31   ar
     6    31    27    1
     7    27    26    1
     8    26    20    1
     9    20    21    1
    10    21    22    1
    11    22    23    1
    12    23     1    1
    13     1     3    1
    14     3     4   ar
    15     4     5   ar
    16     5     6   ar
    17     6     7   ar
    18     7     8   ar
    19     8     9   ar
    20     9    10   ar
    21    10    11   ar
    22    11    12    1
    23    12    13    1
    24    13    14   ar
    25    14    15   ar
    26    15    16   ar
    27    16    17    1
    28    16    18   ar
    29    18    19   ar
    30    23    24    1
    31    24    25    1
    32    31    32   ar
    33    32    33   ar
    34    33    28   ar
    35    25    20    1
    36    11     3   ar
    37    19    13   ar
    38    10     5   ar
    39     1     2    1
@<TRIPOS>MOLECULE
*****
 35 39 0 0 0
SMALL
GASTEIGER

@<TRIPOS>ATOM
      1 N           6.5087   -2.6590   25.7345 N.pl3   1  UNL1       -0.3058
      2 H           6.4465   -1.9103   26.3707 H       1  UNL1        0.1495
      3 C           6.9955   -3.9996   26.1992 C.ar    1  UNL1        0.1981
      4 N           6.8239   -5.3005   25.4725 N.ar    1  UNL1       -0.2138
      5 C           7.4617   -6.3795   26.2964 C.ar    1  UNL1        0.0999
      6 C           7.6004   -7.8574   26.0808 C.ar    1  UNL1        0.0207
      7 C           8.3049   -8.7013   27.1013 C.ar    1  UNL1        0.0016
      8 C           8.8708   -8.0672   28.3374 C.ar    1  UNL1        0.0016
      9 C           8.7321   -6.5893   28.5529 C.ar    1  UNL1        0.0188
     10 C           8.0276   -5.7455   27.5324 C.ar    1  UNL1        0.0801
     11 N           7.7394   -4.2746   27.4724 N.ar    1  UNL1       -0.2956
     12 C           8.1272   -3.2574   28.5043 C.3     1  UNL1        0.1354
     13 C           7.3015   -3.0964   29.7461 C.ar    1  UNL1        0.0006
     14 C           6.3345   -1.9553   29.8611 C.ar    1  UNL1       -0.0001
     15 C           5.5087   -1.7942   31.1029 C.ar    1  UNL1        0.0294
     16 C           5.6498   -2.7742   32.2298 C.ar    1  UNL1        0.1401
     17 F           4.8240   -2.6131   33.4716 F       1  UNL1       -0.2042
     18 C           6.6167   -3.9152   32.1148 C.ar    1  UNL1        0.0294
     19 C           7.4425   -4.0763   30.8730 C.ar    1  UNL1       -0.0001
     20 N           5.3321   -2.0600   21.4325 N.3     1  UNL1       -0.2723
     21 C           4.2748   -2.2397   22.4812 C.3     1  UNL1        0.0738
     22 C           4.6670   -2.4394   23.9152 C.3     1  UNL1        0.0369
     23 C           6.1165   -2.4594   24.3005 C.3     1  UNL1        0.0745
     24 C           7.1739   -2.2797   23.2518 C.3     1  UNL1        0.0369
     25 C           6.7817   -2.0800   21.8179 C.3     1  UNL1        0.0738
     26 C           4.9400   -1.8604   19.9985 C.3     1  UNL1        0.0768
     27 C           3.5151   -2.0622   19.5755 C.3     1  UNL1        0.0437
     28 C           0.7403    1.4665   19.2607 C.ar    1  UNL1        0.1387
     29 C           1.9864    1.4155   18.4272 C.ar    1  UNL1        0.0366
     30 C           2.9113    0.2393   18.5321 C.ar    1  UNL1       -0.0011
     31 C           2.5902   -0.8860   19.4706 C.ar    1  UNL1       -0.0206
     32 C           1.3442   -0.8350   20.3041 C.ar    1  UNL1       -0.0011
     33 C           0.4192    0.3413   20.1992 C.ar    1  UNL1        0.0366
     34 C          -1.1000    2.9809   20.2950 C.3     1  UNL1        0.2525
     35 O          -0.1846    2.6426   19.1558 O.3     1  UNL1       -0.4714
@<TRIPOS>BOND
     1    34    35    1
     2    35    28    1
     3    28    29   ar
     4    29    30   ar
     5    30    31   ar
     6    31    27    1
     7    27    26    1
     8    26    20    1
     9    20    21    1
    10    21    22    1
    11    22    23    1
    12    23     1    1
    13     1     3    1
    14     3     4   ar
    15     4     5   ar
    16     5     6   ar
    17     6     7   ar
    18     7     8   ar
    19     8     9   ar
    20     9    10   ar
    21    10    11   ar
    22    11    12    1
    23    12    13    1
    24    13    14   ar
    25    14    15   ar
    26    15    16   ar
    27    16    17    1
    28    16    18   ar
    29    18    19   ar
    30    23    24    1
    31    24    25    1
    32    31    32   ar
    33    32    33   ar
    34    33    28   ar
    35    25    20    1
    36    11     3   ar
    37    19    13   ar
    38    10     5   ar
    39     1     2    1
@<TRIPOS>MOLECULE
*****
 35 39 0 0 0
SMALL
GASTEIGER

@<TRIPOS>ATOM
      1 N          -4.3783  -14.7537   23.1100 N.pl3   1  UNL1       -0.3058
      2 H          -4.2142  -13.7884   23.0073 H       1  UNL1        0.1495
      3 C          -3.4943  -15.7433   22.4106 C.ar    1  UNL1        0.1981
      4 N          -2.2026  -15.4334   21.7137 N.ar    1  UNL1       -0.2138
      5 C          -1.6567  -16.7151   21.1577 C.ar    1  UNL1        0.0999
      6 C          -0.4140  -17.0211   20.3754 C.ar    1  UNL1        0.0207
      7 C          -0.1256  -18.4291   19.9464 C.ar    1  UNL1        0.0016
      8 C          -1.0798  -19.5313   20.2996 C.ar    1  UNL1        0.0016
      9 C          -2.3225  -19.2253   21.0819 C.ar    1  UNL1        0.0188
     10 C          -2.6110  -17.8172   21.5109 C.ar    1  UNL1        0.0801
     11 N          -3.7466  -17.2166   22.2853 N.ar    1  UNL1       -0.2956
     12 C          -4.9273  -17.9590   22.8373 C.3     1  UNL1        0.1354
     13 C          -5.8832  -18.6457   21.9075 C.ar    1  UNL1        0.0006
     14 C          -5.5351  -19.9852   21.3290 C.ar    1  UNL1       -0.0001
     15 C          -6.4909  -20.6720   20.3991 C.ar    1  UNL1        0.0294
     16 C          -7.7949  -20.0193   20.0477 C.ar    1  UNL1        0.1401
     17 F          -8.7508  -20.7061   19.1178 F       1  UNL1       -0.2042
     18 C          -8.1431  -18.6798   20.6261 C.ar    1  UNL1        0.0294
     19 C          -7.1872  -17.9930   21.5560 C.ar    1  UNL1       -0.0001
     20 N          -7.7805  -16.1970   25.6775 N.3     1  UNL1       -0.2723
     21 C          -8.0469  -15.7088   24.2845 C.3     1  UNL1        0.0738
     22 C          -6.9128  -15.2276   23.4286 C.3     1  UNL1        0.0369
     23 C          -5.5124  -15.2348   23.9658 C.3     1  UNL1        0.0745
     24 C          -5.2459  -15.7231   25.3589 C.3     1  UNL1        0.0369
     25 C          -6.3800  -16.2042   26.2147 C.3     1  UNL1        0.0738
     26 C          -8.9145  -16.6781   26.5334 C.3     1  UNL1        0.0768
     27 C          -9.4796  -18.0521   26.3267 C.3     1  UNL1        0.0437
     28 C         -10.9502  -19.2916   22.2585 C.ar    1  UNL1        0.1387
     29 C         -11.2037  -17.8992   22.7555 C.ar    1  UNL1        0.0366
     30 C         -10.7135  -17.4860   24.1115 C.ar    1  UNL1       -0.0011
     31 C          -9.9698  -18.4653   24.9707 C.ar    1  UNL1       -0.0206
     32 C          -9.7163  -19.8577   24.4737 C.ar    1  UNL1       -0.0011
     33 C         -10.2066  -20.2708   23.1175 C.ar    1  UNL1        0.0366
     34 C         -11.4199  -18.7248   19.7668 C.3     1  UNL1        0.2525
     35 O         -11.4404  -19.7047   20.9024 O.3     1  UNL1       -0.4714
@<TRIPOS>BOND
     1    34    35    1
     2    35    28    1
     3    28    29   ar
     4    29    30   ar
     5    30    31   ar
     6    31    27    1
     7    27    26    1
     8    26    20    1
     9    20    21    1
    10    21    22    1
    11    22    23    1
    12    23     1    1
    13     1     3    1
    14     3     4   ar
    15     4     5   ar
    16     5     6   ar
    17     6     7   ar
    18     7     8   ar
    19     8     9   ar
    20     9    10   ar
    21    10    11   ar
    22    11    12    1
    23    12    13    1
    24    13    14   ar
    25    14    15   ar
    26    15    16   ar
    27    16    17    1
    28    16    18   ar
    29    18    19   ar
    30    23    24    1
    31    24    25    1
    32    31    32   ar
    33    32    33   ar
    34    33    28   ar
    35    25    20    1
    36    11     3   ar
    37    19    13   ar
    38    10     5   ar
    39     1     2    1
