@<TRIPOS>MOLECULE
*****
 39 42 0 0 0
SMALL
GASTEIGER

@<TRIPOS>ATOM
      1 C         -12.4189  -17.4387   22.6122 C.3     1  UNL1        0.0769
      2 N         -11.6591  -16.2443   23.1085 N.am    1  UNL1       -0.2902
      3 C         -10.2886  -16.4171   23.6930 C.2     1  UNL1        0.3044
      4 O          -9.6778  -17.7842   23.7813 O.2     1  UNL1       -0.2525
      5 N          -9.5289  -15.2227   24.1893 N.am    1  UNL1       -0.2683
      6 H         -12.0601  -15.3470   23.0505 H       1  UNL1        0.1509
      7 H          -9.9298  -14.3254   24.1313 H       1  UNL1        0.1564
      8 C          -8.1584  -15.3954   24.7739 C.ar    1  UNL1        0.0517
      9 C          -7.9776  -15.4367   26.2624 C.ar    1  UNL1        0.0147
     10 C          -6.6070  -15.6094   26.8470 C.ar    1  UNL1        0.0014
     11 C          -5.4172  -15.7409   25.9431 C.ar    1  UNL1        0.0032
     12 C          -5.5980  -15.6996   24.4546 C.ar    1  UNL1        0.0386
     13 C          -6.9685  -15.5269   23.8699 C.ar    1  UNL1        0.0178
     14 C          -4.4081  -15.8311   23.5507 C.ar    1  UNL1        0.1839
     15 N          -3.9566  -14.8234   22.5354 N.ar    1  UNL1       -0.1081
     16 N          -2.7303  -15.3629   21.8606 N.ar    1  UNL1       -0.0227
     17 N          -2.4240  -16.7039   22.4588 N.ar    1  UNL1       -0.0429
     18 N          -3.4610  -16.9933   23.5033 N.ar    1  UNL1       -0.2113
     19 C          -3.5373  -18.2280   24.3516 C.3     1  UNL1        0.1573
     20 C         -13.2686  -18.5275   24.8127 C.3     1  UNL1        0.0018
     21 C         -13.5386  -18.0087   23.4314 C.3     1  UNL1        0.0197
     22 C         -12.0588  -18.0631   21.2967 C.3     1  UNL1        0.0661
     23 C         -10.8369  -17.6036   20.5579 C.3     1  UNL1        0.1738
     24 O         -10.6871  -16.1594   20.1812 O.3     1  UNL1       -0.3697
     25 H          -9.8473  -16.0330   19.7124 H       1  UNL1        0.2119
     26 N          -9.7648  -18.5883   20.1957 N.3     1  UNL1       -0.2511
     27 C          -9.9262  -19.4621   18.9874 C.3     1  UNL1        0.0742
     28 C          -8.8542  -20.4467   18.6253 C.3     1  UNL1        0.0175
     29 C          -7.6207  -20.5575   19.4716 C.3     1  UNL1        0.0031
     30 C          -7.4593  -19.6836   20.6800 C.3     1  UNL1        0.0205
     31 C          -8.5313  -18.6990   21.0421 C.3     1  UNL1        0.0745
     32 C          -6.2258  -19.7944   21.5263 C.3     1  UNL1        0.0277
     33 C          -4.8823  -19.4787   20.9388 C.ar    1  UNL1       -0.0220
     34 C          -4.7791  -18.5777   19.7439 C.ar    1  UNL1       -0.0020
     35 C          -3.4356  -18.2620   19.1564 C.ar    1  UNL1        0.0293
     36 C          -2.1952  -18.8472   19.7637 C.ar    1  UNL1        0.1401
     37 F          -0.8516  -18.5315   19.1761 F       1  UNL1       -0.2042
     38 C          -2.2982  -19.7482   20.9585 C.ar    1  UNL1        0.0293
     39 C          -3.6418  -20.0639   21.5461 C.ar    1  UNL1       -0.0020
@<TRIPOS>BOND
     1    20    21    1
     2     1    21    1
     3     1    22    1
     4    22    23    1
     5    23    24    1
     6    23    26    1
     7    26    27    1
     8    27    28    1
     9    28    29    1
    10    29    30    1
    11    30    32    1
    12    32    33    1
    13    33    34   ar
    14    34    35   ar
    15    35    36   ar
    16    36    37    1
    17    36    38   ar
    18    38    39   ar
    19    30    31    1
    20     1     2    1
    21     2     3   am
    22     3     4    2
    23     3     5   am
    24     5     8    1
    25     8     9   ar
    26     9    10   ar
    27    10    11   ar
    28    11    12   ar
    29    12    14    1
    30    14    15   ar
    31    15    16   ar
    32    16    17   ar
    33    17    18   ar
    34    18    19    1
    35    12    13   ar
    36    31    26    1
    37    13     8   ar
    38    39    33   ar
    39    18    14   ar
    40    24    25    1
    41     2     6    1
    42     5     7    1
@<TRIPOS>MOLECULE
*****
 39 42 0 0 0
SMALL
GASTEIGER

@<TRIPOS>ATOM
      1 C           0.8694    2.9438   20.9958 C.3     1  UNL1        0.0769
      2 N           1.9922    2.9505   21.9904 N.am    1  UNL1       -0.2902
      3 C           1.9891    1.9770   23.1315 C.2     1  UNL1        0.3044
      4 O           0.8633    0.9967   23.2779 O.2     1  UNL1       -0.2525
      5 N           3.1120    1.9837   24.1261 N.am    1  UNL1       -0.2683
      6 H           2.7311    3.5939   21.8942 H       1  UNL1        0.1509
      7 H           3.8509    2.6271   24.0299 H       1  UNL1        0.1564
      8 C           3.1089    1.0101   25.2672 C.ar    1  UNL1        0.0517
      9 C           3.8127   -0.3076   25.1307 C.ar    1  UNL1        0.0147
     10 C           3.8096   -1.2811   26.2718 C.ar    1  UNL1        0.0014
     11 C           3.1029   -0.9371   27.5494 C.ar    1  UNL1        0.0032
     12 C           2.3992    0.3805   27.6859 C.ar    1  UNL1        0.0386
     13 C           2.4022    1.3542   26.5447 C.ar    1  UNL1        0.0178
     14 C           1.6924    0.7246   28.9634 C.ar    1  UNL1        0.1839
     15 N           2.3462    1.0190   30.2810 N.ar    1  UNL1       -0.1081
     16 N           1.2656    1.3110   31.2796 N.ar    1  UNL1       -0.0227
     17 N          -0.0559    1.1970   30.5792 N.ar    1  UNL1       -0.0429
     18 N           0.2079    0.8346   29.1478 N.ar    1  UNL1       -0.2113
     19 C          -0.8306    0.6199   28.0869 C.3     1  UNL1        0.1573
     20 C          -1.7164    3.1948   20.9720 C.3     1  UNL1        0.0018
     21 C          -0.3579    3.7694   21.2446 C.3     1  UNL1        0.0197
     22 C           0.9739    2.1114   19.7523 C.3     1  UNL1        0.0661
     23 C           0.9380    0.6148   19.8463 C.3     1  UNL1        0.1738
     24 O          -0.2021   -0.0656   20.5442 O.3     1  UNL1       -0.3697
     25 H          -0.0719   -1.0264   20.5152 H       1  UNL1        0.2119
     26 N           2.0422   -0.2014   19.2425 N.3     1  UNL1       -0.2511
     27 C           2.7519    0.2883   18.0151 C.3     1  UNL1        0.0742
     28 C           3.8560   -0.5279   17.4114 C.3     1  UNL1        0.0175
     29 C           4.2506   -1.8338   18.0350 C.3     1  UNL1        0.0031
     30 C           3.5409   -2.3236   19.2623 C.3     1  UNL1        0.0205
     31 C           2.4367   -1.5074   19.8661 C.3     1  UNL1        0.0745
     32 C           3.9354   -3.6295   19.8859 C.3     1  UNL1        0.0277
     33 C           4.9488   -3.6569   20.9914 C.ar    1  UNL1       -0.0220
     34 C           6.4005   -3.8605   20.6733 C.ar    1  UNL1       -0.0020
     35 C           7.4139   -3.8879   21.7788 C.ar    1  UNL1        0.0293
     36 C           6.9757   -3.7118   23.2025 C.ar    1  UNL1        0.1401
     37 F           7.9892   -3.7392   24.3081 F       1  UNL1       -0.2042
     38 C           5.5241   -3.5082   23.5207 C.ar    1  UNL1        0.0293
     39 C           4.5106   -3.4808   22.4152 C.ar    1  UNL1       -0.0020
@<TRIPOS>BOND
     1    20    21    1
     2     1    21    1
     3     1    22    1
     4    22    23    1
     5    23    24    1
     6    23    26    1
     7    26    27    1
     8    27    28    1
     9    28    29    1
    10    29    30    1
    11    30    32    1
    12    32    33    1
    13    33    34   ar
    14    34    35   ar
    15    35    36   ar
    16    36    37    1
    17    36    38   ar
    18    38    39   ar
    19    30    31    1
    20     1     2    1
    21     2     3   am
    22     3     4    2
    23     3     5   am
    24     5     8    1
    25     8     9   ar
    26     9    10   ar
    27    10    11   ar
    28    11    12   ar
    29    12    14    1
    30    14    15   ar
    31    15    16   ar
    32    16    17   ar
    33    17    18   ar
    34    18    19    1
    35    12    13   ar
    36    31    26    1
    37    13     8   ar
    38    39    33   ar
    39    18    14   ar
    40    24    25    1
    41     2     6    1
    42     5     7    1
@<TRIPOS>MOLECULE
*****
 39 42 0 0 0
SMALL
GASTEIGER

@<TRIPOS>ATOM
      1 C           7.9207   -5.1926   26.1949 C.3     1  UNL1        0.0769
      2 N           8.0633   -4.0062   27.1017 N.am    1  UNL1       -0.2902
      3 C           7.1295   -3.8331   28.2627 C.2     1  UNL1        0.3044
      4 O           6.0531   -4.8463   28.5170 O.2     1  UNL1       -0.2525
      5 N           7.2722   -2.6468   29.1695 N.am    1  UNL1       -0.2683
      6 H           8.7698   -3.3412   26.9348 H       1  UNL1        0.1509
      7 H           7.9787   -1.9817   29.0026 H       1  UNL1        0.1564
      8 C           6.3384   -2.4736   30.3305 C.ar    1  UNL1        0.0517
      9 C           6.5708   -3.2376   31.6004 C.ar    1  UNL1        0.0147
     10 C           5.6370   -3.0644   32.7614 C.ar    1  UNL1        0.0014
     11 C           4.4708   -2.1274   32.6527 C.ar    1  UNL1        0.0032
     12 C           4.2384   -1.3634   31.3829 C.ar    1  UNL1        0.0386
     13 C           5.1722   -1.5365   30.2218 C.ar    1  UNL1        0.0178
     14 C           3.0722   -0.4263   31.2742 C.ar    1  UNL1        0.1839
     15 N           1.9677   -0.5069   30.2624 N.ar    1  UNL1       -0.1081
     16 N           1.0186    0.6255   30.5211 N.ar    1  UNL1       -0.0227
     17 N           1.5365    1.4060   31.6927 N.ar    1  UNL1       -0.0429
     18 N           2.8056    0.7559   32.1581 N.ar    1  UNL1       -0.2113
     19 C           3.6585    1.2086   33.3060 C.3     1  UNL1        0.1573
     20 C           7.9622   -7.7676   25.8530 C.3     1  UNL1        0.0018
     21 C           7.9267   -6.5791   26.7673 C.3     1  UNL1        0.0197
     22 C           7.7720   -4.9924   24.7157 C.3     1  UNL1        0.0661
     23 C           6.7213   -4.0618   24.1867 C.3     1  UNL1        0.1738
     24 O           5.7380   -3.4290   25.1263 O.3     1  UNL1       -0.3697
     25 H           5.1324   -2.8602   24.6256 H       1  UNL1        0.2119
     26 N           6.6537   -3.7640   22.7181 N.3     1  UNL1       -0.2511
     27 C           7.9147   -3.5178   21.9440 C.3     1  UNL1        0.0742
     28 C           7.8471   -3.2200   20.4754 C.3     1  UNL1        0.0175
     29 C           6.5186   -3.1685   19.7810 C.3     1  UNL1        0.0031
     30 C           5.2576   -3.4147   20.5550 C.3     1  UNL1        0.0205
     31 C           5.3252   -3.7125   22.0236 C.3     1  UNL1        0.0745
     32 C           3.9291   -3.3632   19.8606 C.3     1  UNL1        0.0277
     33 C           3.3601   -2.0448   19.4269 C.ar    1  UNL1       -0.0220
     34 C           3.8157   -1.4172   18.1429 C.ar    1  UNL1       -0.0020
     35 C           3.2467   -0.0988   17.7092 C.ar    1  UNL1        0.0293
     36 C           2.2222    0.5921   18.5595 C.ar    1  UNL1        0.1401
     37 F           1.6533    1.9105   18.1258 F       1  UNL1       -0.2042
     38 C           1.7667   -0.0354   19.8435 C.ar    1  UNL1        0.0293
     39 C           2.3356   -1.3539   20.2772 C.ar    1  UNL1       -0.0020
@<TRIPOS>BOND
     1    20    21    1
     2     1    21    1
     3     1    22    1
     4    22    23    1
     5    23    24    1
     6    23    26    1
     7    26    27    1
     8    27    28    1
     9    28    29    1
    10    29    30    1
    11    30    32    1
    12    32    33    1
    13    33    34   ar
    14    34    35   ar
    15    35    36   ar
    16    36    37    1
    17    36    38   ar
    18    38    39   ar
    19    30    31    1
    20     1     2    1
    21     2     3   am
    22     3     4    2
    23     3     5   am
    24     5     8    1
    25     8     9   ar
    26     9    10   ar
    27    10    11   ar
    28    11    12   ar
    29    12    14    1
    30    14    15   ar
    31    15    16   ar
    32    16    17   ar
    33    17    18   ar
    34    18    19    1
    35    12    13   ar
    36    31    26    1
    37    13     8   ar
    38    39    33   ar
    39    18    14   ar
    40    24    25    1
    41     2     6    1
    42     5     7    1
@<TRIPOS>MOLECULE
*****
 39 42 0 0 0
SMALL
GASTEIGER

@<TRIPOS>ATOM
      1 C           7.1982   -4.5711   25.6578 C.3     1  UNL1        0.0769
      2 N           6.0555   -3.8918   24.9630 N.am    1  UNL1       -0.2902
      3 C           5.9252   -3.9806   23.4713 C.2     1  UNL1        0.3044
      4 O           6.9375   -4.7489   22.6745 O.2     1  UNL1       -0.2525
      5 N           4.7825   -3.3013   22.7765 N.am    1  UNL1       -0.2683
      6 H           5.3911   -3.3875   25.4860 H       1  UNL1        0.1509
      7 H           4.1180   -2.7971   23.2995 H       1  UNL1        0.1564
      8 C           4.6521   -3.3902   21.2849 C.ar    1  UNL1        0.0517
      9 C           4.0338   -4.6041   20.6570 C.ar    1  UNL1        0.0147
     10 C           3.9035   -4.6930   19.1654 C.ar    1  UNL1        0.0014
     11 C           4.3913   -3.5680   18.3015 C.ar    1  UNL1        0.0032
     12 C           5.0096   -2.3541   18.9293 C.ar    1  UNL1        0.0386
     13 C           5.1400   -2.2651   20.4210 C.ar    1  UNL1        0.0178
     14 C           5.4974   -1.2290   18.0654 C.ar    1  UNL1        0.1839
     15 N           6.8874   -1.0722   17.5237 N.ar    1  UNL1       -0.1081
     16 N           6.9300    0.1905   16.7150 N.ar    1  UNL1       -0.0227
     17 N           5.5664    0.8140   16.7570 N.ar    1  UNL1       -0.0429
     18 N           4.6810   -0.0633   17.5915 N.ar    1  UNL1       -0.2113
     19 C           3.2334    0.1820   17.8983 C.3     1  UNL1        0.1573
     20 C           8.9303   -2.7525   26.3226 C.3     1  UNL1        0.0018
     21 C           8.5811   -3.9979   25.5631 C.3     1  UNL1        0.0197
     22 C           6.9579   -5.8237   26.4473 C.3     1  UNL1        0.0661
     23 C           7.8711   -6.1817   27.5822 C.3     1  UNL1        0.1738
     24 O           9.0548   -7.0708   27.3405 O.3     1  UNL1       -0.3697
     25 H           9.5362   -7.2015   28.1724 H       1  UNL1        0.2119
     26 N           7.6006   -5.6506   28.9587 N.3     1  UNL1       -0.2511
     27 C           7.9431   -6.4776   30.1623 C.3     1  UNL1        0.0742
     28 C           7.6726   -5.9465   31.5388 C.3     1  UNL1        0.0175
     29 C           7.0596   -4.5884   31.7116 C.3     1  UNL1        0.0031
     30 C           6.7171   -3.7614   30.5080 C.3     1  UNL1        0.0205
     31 C           6.9876   -4.2925   29.1315 C.3     1  UNL1        0.0745
     32 C           6.1042   -2.4033   30.6808 C.3     1  UNL1        0.0277
     33 C           5.8047   -1.8852   32.0562 C.ar    1  UNL1       -0.0220
     34 C           4.5032   -2.2263   32.7194 C.ar    1  UNL1       -0.0020
     35 C           4.2037   -1.7081   34.0948 C.ar    1  UNL1        0.0293
     36 C           5.2058   -0.8488   34.8071 C.ar    1  UNL1        0.1401
     37 F           4.9063   -0.3306   36.1826 F       1  UNL1       -0.2042
     38 C           6.5073   -0.5076   34.1441 C.ar    1  UNL1        0.0293
     39 C           6.8068   -1.0258   32.7686 C.ar    1  UNL1       -0.0020
@<TRIPOS>BOND
     1    20    21    1
     2     1    21    1
     3     1    22    1
     4    22    23    1
     5    23    24    1
     6    23    26    1
     7    26    27    1
     8    27    28    1
     9    28    29    1
    10    29    30    1
    11    30    32    1
    12    32    33    1
    13    33    34   ar
    14    34    35   ar
    15    35    36   ar
    16    36    37    1
    17    36    38   ar
    18    38    39   ar
    19    30    31    1
    20     1     2    1
    21     2     3   am
    22     3     4    2
    23     3     5   am
    24     5     8    1
    25     8     9   ar
    26     9    10   ar
    27    10    11   ar
    28    11    12   ar
    29    12    14    1
    30    14    15   ar
    31    15    16   ar
    32    16    17   ar
    33    17    18   ar
    34    18    19    1
    35    12    13   ar
    36    31    26    1
    37    13     8   ar
    38    39    33   ar
    39    18    14   ar
    40    24    25    1
    41     2     6    1
    42     5     7    1
@<TRIPOS>MOLECULE
*****
 39 42 0 0 0
SMALL
GASTEIGER

@<TRIPOS>ATOM
      1 C           6.5176   -2.9553   28.3889 C.3     1  UNL1        0.0769
      2 N           5.2487   -2.6722   27.6408 N.am    1  UNL1       -0.2902
      3 C           5.2971   -1.9438   26.3305 C.2     1  UNL1        0.3044
      4 O           6.6145   -1.4984   25.7683 O.2     1  UNL1       -0.2525
      5 N           4.0282   -1.6607   25.5824 N.am    1  UNL1       -0.2683
      6 H           4.3840   -2.9646   28.0098 H       1  UNL1        0.1509
      7 H           3.1635   -1.9530   25.9514 H       1  UNL1        0.1564
      8 C           4.0766   -0.9322   24.2721 C.ar    1  UNL1        0.0517
      9 C           5.3991   -0.6048   23.6444 C.ar    1  UNL1        0.0147
     10 C           5.4475    0.1237   22.3341 C.ar    1  UNL1        0.0014
     11 C           4.1735    0.5248   21.6514 C.ar    1  UNL1        0.0032
     12 C           2.8511    0.1974   22.2791 C.ar    1  UNL1        0.0386
     13 C           2.8026   -0.5311   23.5894 C.ar    1  UNL1        0.0178
     14 C           1.5771    0.5985   21.5964 C.ar    1  UNL1        0.1839
     15 N           0.9270   -0.1190   20.4506 N.ar    1  UNL1       -0.1081
     16 N          -0.3224    0.6267   20.0857 N.ar    1  UNL1       -0.0227
     17 N          -0.4445    1.8049   21.0059 N.ar    1  UNL1       -0.0429
     18 N           0.7294    1.7875   21.9395 N.ar    1  UNL1       -0.2113
     19 C           1.0069    2.7842   23.0257 C.3     1  UNL1        0.1573
     20 C           6.1187   -1.5317   30.5252 C.3     1  UNL1        0.0018
     21 C           7.0187   -1.9796   29.4120 C.3     1  UNL1        0.0197
     22 C           7.2854   -4.2143   28.1139 C.3     1  UNL1        0.0661
     23 C           6.6541   -5.3197   27.3205 C.3     1  UNL1        0.1738
     24 O           5.4307   -6.0132   27.8424 O.3     1  UNL1       -0.3697
     25 H           5.1532   -6.6968   27.2126 H       1  UNL1        0.2119
     26 N           7.2461   -5.7315   26.0052 N.3     1  UNL1       -0.2511
     27 C           7.7295   -7.1377   25.8078 C.3     1  UNL1        0.0742
     28 C           8.3215   -7.5495   24.4925 C.3     1  UNL1        0.0175
     29 C           8.4300   -6.5552   23.3747 C.3     1  UNL1        0.0031
     30 C           7.9466   -5.1490   23.5721 C.3     1  UNL1        0.0205
     31 C           7.3546   -4.7372   24.8874 C.3     1  UNL1        0.0745
     32 C           8.0551   -4.1547   22.4543 C.3     1  UNL1        0.0277
     33 C           6.8227   -3.7092   21.7245 C.ar    1  UNL1       -0.0220
     34 C           6.9448   -3.0149   20.4005 C.ar    1  UNL1       -0.0020
     35 C           5.7124   -2.5693   19.6707 C.ar    1  UNL1        0.0293
     36 C           4.3578   -2.8181   20.2649 C.ar    1  UNL1        0.1401
     37 F           3.1253   -2.3725   19.5351 F       1  UNL1       -0.2042
     38 C           4.2356   -3.5123   21.5889 C.ar    1  UNL1        0.0293
     39 C           5.4680   -3.9579   22.3188 C.ar    1  UNL1       -0.0020
@<TRIPOS>BOND
     1    20    21    1
     2     1    21    1
     3     1    22    1
     4    22    23    1
     5    23    24    1
     6    23    26    1
     7    26    27    1
     8    27    28    1
     9    28    29    1
    10    29    30    1
    11    30    32    1
    12    32    33    1
    13    33    34   ar
    14    34    35   ar
    15    35    36   ar
    16    36    37    1
    17    36    38   ar
    18    38    39   ar
    19    30    31    1
    20     1     2    1
    21     2     3   am
    22     3     4    2
    23     3     5   am
    24     5     8    1
    25     8     9   ar
    26     9    10   ar
    27    10    11   ar
    28    11    12   ar
    29    12    14    1
    30    14    15   ar
    31    15    16   ar
    32    16    17   ar
    33    17    18   ar
    34    18    19    1
    35    12    13   ar
    36    31    26    1
    37    13     8   ar
    38    39    33   ar
    39    18    14   ar
    40    24    25    1
    41     2     6    1
    42     5     7    1
@<TRIPOS>MOLECULE
*****
 39 42 0 0 0
SMALL
GASTEIGER

@<TRIPOS>ATOM
      1 C           5.5613   -3.7585   21.5384 C.3     1  UNL1        0.0769
      2 N           5.5352   -3.7121   23.0375 N.am    1  UNL1       -0.2902
      3 C           5.1717   -2.4388   23.7422 C.2     1  UNL1        0.3044
      4 O           4.8343   -1.2120   22.9478 O.2     1  UNL1       -0.2525
      5 N           5.1456   -2.3924   25.2412 N.am    1  UNL1       -0.2683
      6 H           5.7567   -4.5173   23.5589 H       1  UNL1        0.1509
      7 H           5.3671   -3.1976   25.7626 H       1  UNL1        0.1564
      8 C           4.7821   -1.1191   25.9459 C.ar    1  UNL1        0.0517
      9 C           5.7360    0.0386   25.9427 C.ar    1  UNL1        0.0147
     10 C           5.3725    1.3118   26.6474 C.ar    1  UNL1        0.0014
     11 C           4.0551    1.4275   27.3553 C.ar    1  UNL1        0.0032
     12 C           3.1013    0.2699   27.3585 C.ar    1  UNL1        0.0386
     13 C           3.4647   -1.0034   26.6538 C.ar    1  UNL1        0.0178
     14 C           1.7839    0.3856   28.0664 C.ar    1  UNL1        0.1839
     15 N           0.5155    0.9359   27.4844 N.ar    1  UNL1       -0.1081
     16 N          -0.5487    0.8617   28.5390 N.ar    1  UNL1       -0.0227
     17 N           0.0619    0.2656   29.7726 N.ar    1  UNL1       -0.0429
     18 N           1.5035   -0.0287   29.4805 N.ar    1  UNL1       -0.2113
     19 C           2.4912   -0.6314   30.4351 C.3     1  UNL1        0.1573
     20 C           7.2308   -2.1075   20.4265 C.3     1  UNL1        0.0018
     21 C           6.8439   -3.5071   20.8025 C.3     1  UNL1        0.0197
     22 C           4.3047   -4.0565   20.7753 C.3     1  UNL1        0.0661
     23 C           4.1480   -3.5644   19.3671 C.3     1  UNL1        0.1738
     24 O           4.5936   -4.4210   18.2192 O.3     1  UNL1       -0.3697
     25 H           4.4224   -3.9577   17.3844 H       1  UNL1        0.2119
     26 N           3.5455   -2.2156   19.1066 N.3     1  UNL1       -0.2511
     27 C           4.0809   -1.3560   18.0001 C.3     1  UNL1        0.0742
     28 C           3.4784   -0.0073   17.7396 C.3     1  UNL1        0.0175
     29 C           2.3405    0.4819   18.5858 C.3     1  UNL1        0.0031
     30 C           1.8051   -0.3776   19.6923 C.3     1  UNL1        0.0205
     31 C           2.4076   -1.7264   19.9527 C.3     1  UNL1        0.0745
     32 C           0.6673    0.1116   20.5384 C.3     1  UNL1        0.0277
     33 C           0.9440    0.8970   21.7860 C.ar    1  UNL1       -0.0220
     34 C           2.0428    0.4693   22.7133 C.ar    1  UNL1       -0.0020
     35 C           2.3195    1.2547   23.9609 C.ar    1  UNL1        0.0293
     36 C           1.4974    2.4678   24.2813 C.ar    1  UNL1        0.1401
     37 F           1.7742    3.2532   25.5290 F       1  UNL1       -0.2042
     38 C           0.3986    2.8955   23.3541 C.ar    1  UNL1        0.0293
     39 C           0.1219    2.1101   22.1064 C.ar    1  UNL1       -0.0020
@<TRIPOS>BOND
     1    20    21    1
     2     1    21    1
     3     1    22    1
     4    22    23    1
     5    23    24    1
     6    23    26    1
     7    26    27    1
     8    27    28    1
     9    28    29    1
    10    29    30    1
    11    30    32    1
    12    32    33    1
    13    33    34   ar
    14    34    35   ar
    15    35    36   ar
    16    36    37    1
    17    36    38   ar
    18    38    39   ar
    19    30    31    1
    20     1     2    1
    21     2     3   am
    22     3     4    2
    23     3     5   am
    24     5     8    1
    25     8     9   ar
    26     9    10   ar
    27    10    11   ar
    28    11    12   ar
    29    12    14    1
    30    14    15   ar
    31    15    16   ar
    32    16    17   ar
    33    17    18   ar
    34    18    19    1
    35    12    13   ar
    36    31    26    1
    37    13     8   ar
    38    39    33   ar
    39    18    14   ar
    40    24    25    1
    41     2     6    1
    42     5     7    1
@<TRIPOS>MOLECULE
*****
 39 42 0 0 0
SMALL
GASTEIGER

@<TRIPOS>ATOM
      1 C          -2.0970    3.3434   20.1356 C.3     1  UNL1        0.0769
      2 N          -1.2861    2.2468   20.7600 N.am    1  UNL1       -0.2902
      3 C          -0.4421    2.5321   21.9667 C.2     1  UNL1        0.3044
      4 O          -0.4091    3.9140   22.5491 O.2     1  UNL1       -0.2525
      5 N           0.3688    1.4355   22.5911 N.am    1  UNL1       -0.2683
      6 H          -1.3078    1.3398   20.3777 H       1  UNL1        0.1509
      7 H           0.3471    0.5285   22.2088 H       1  UNL1        0.1564
      8 C           1.2128    1.7207   23.7979 C.ar    1  UNL1        0.0517
      9 C           2.4995    2.4778   23.6513 C.ar    1  UNL1        0.0147
     10 C           3.3434    2.7631   24.8581 C.ar    1  UNL1        0.0014
     11 C           2.9008    2.2913   26.2114 C.ar    1  UNL1        0.0032
     12 C           1.6142    1.5343   26.3580 C.ar    1  UNL1        0.0386
     13 C           0.7701    1.2490   25.1512 C.ar    1  UNL1        0.0178
     14 C           1.1715    1.0626   27.7113 C.ar    1  UNL1        0.1839
     15 N           0.0445    1.6346   28.5193 N.ar    1  UNL1       -0.1081
     16 N          -0.0454    0.8616   29.8017 N.ar    1  UNL1       -0.0227
     17 N           1.0260   -0.1882   29.7862 N.ar    1  UNL1       -0.0429
     18 N           1.7780   -0.0639   28.4943 N.ar    1  UNL1       -0.2113
     19 C           2.9338   -0.9165   28.0614 C.3     1  UNL1        0.1573
     20 C          -3.8063    3.7415   22.0512 C.3     1  UNL1        0.0018
     21 C          -3.5058    3.5862   20.5899 C.3     1  UNL1        0.0197
     22 C          -1.4991    4.1973   19.0569 C.3     1  UNL1        0.0661
     23 C          -0.6328    3.5756   18.0020 C.3     1  UNL1        0.1738
     24 O          -1.1122    3.5071   16.5823 O.3     1  UNL1       -0.3697
     25 H          -0.4369    3.0788   16.0333 H       1  UNL1        0.2119
     26 N           0.7129    3.0222   18.3667 N.3     1  UNL1       -0.2511
     27 C           1.8348    3.9521   18.7226 C.3     1  UNL1        0.0742
     28 C           3.1804    3.3987   19.0873 C.3     1  UNL1        0.0175
     29 C           3.4041    1.9155   19.0961 C.3     1  UNL1        0.0031
     30 C           2.2822    0.9857   18.7401 C.3     1  UNL1        0.0205
     31 C           0.9366    1.5390   18.3755 C.3     1  UNL1        0.0745
     32 C           2.5060   -0.4975   18.7489 C.3     1  UNL1        0.0277
     33 C           3.0506   -1.1666   19.9760 C.ar    1  UNL1       -0.0220
     34 C           3.8885   -2.4040   19.8462 C.ar    1  UNL1       -0.0020
     35 C           4.4332   -3.0731   21.0732 C.ar    1  UNL1        0.0293
     36 C           4.1400   -2.5048   22.4301 C.ar    1  UNL1        0.1401
     37 F           4.6847   -3.1740   23.6571 F       1  UNL1       -0.2042
     38 C           3.3021   -1.2675   22.5599 C.ar    1  UNL1        0.0293
     39 C           2.7574   -0.5983   21.3328 C.ar    1  UNL1       -0.0020
@<TRIPOS>BOND
     1    20    21    1
     2     1    21    1
     3     1    22    1
     4    22    23    1
     5    23    24    1
     6    23    26    1
     7    26    27    1
     8    27    28    1
     9    28    29    1
    10    29    30    1
    11    30    32    1
    12    32    33    1
    13    33    34   ar
    14    34    35   ar
    15    35    36   ar
    16    36    37    1
    17    36    38   ar
    18    38    39   ar
    19    30    31    1
    20     1     2    1
    21     2     3   am
    22     3     4    2
    23     3     5   am
    24     5     8    1
    25     8     9   ar
    26     9    10   ar
    27    10    11   ar
    28    11    12   ar
    29    12    14    1
    30    14    15   ar
    31    15    16   ar
    32    16    17   ar
    33    17    18   ar
    34    18    19    1
    35    12    13   ar
    36    31    26    1
    37    13     8   ar
    38    39    33   ar
    39    18    14   ar
    40    24    25    1
    41     2     6    1
    42     5     7    1
