@<TRIPOS>MOLECULE
*****
 32 33 0 0 0
SMALL
GASTEIGER

@<TRIPOS>ATOM
      1 C         -11.4320  -17.5806   21.7089 C.3     1  UNL1        0.0813
      2 C         -11.3533  -16.4534   20.7223 C.2     1  UNL1        0.2439
      3 O         -10.1654  -15.5376   20.7231 O.2     1  UNL1       -0.2731
      4 N         -12.4626  -16.2421   19.7351 N.am    1  UNL1       -0.1970
      5 O         -12.3840  -15.1149   18.7485 O.3     1  UNL1       -0.2952
      6 H         -13.2423  -16.8431   19.7346 H       1  UNL1        0.1822
      7 H         -11.5584  -14.6240   18.8836 H       1  UNL1        0.2414
      8 C         -11.4772  -17.2884   23.1794 C.3     1  UNL1        0.0433
      9 C         -10.3957  -17.8064   24.0807 C.3     1  UNL1        0.1380
     10 C          -9.0647  -17.1164   24.1283 C.ar    1  UNL1        0.0047
     11 C          -8.0309  -17.4080   23.0813 C.ar    1  UNL1        0.0004
     12 C          -6.6999  -16.7179   23.1289 C.ar    1  UNL1        0.0294
     13 C          -6.4027  -15.7364   24.2235 C.ar    1  UNL1        0.1401
     14 F          -5.0717  -15.0464   24.2711 F       1  UNL1       -0.2042
     15 C          -7.4365  -15.4448   25.2705 C.ar    1  UNL1        0.0294
     16 C          -8.7675  -16.1348   25.2229 C.ar    1  UNL1        0.0004
     17 C          -9.9474  -20.3062   24.6280 C.3     1  UNL1        0.1745
     18 O         -10.6453  -19.0143   24.9342 O.3     1  UNL1       -0.3492
     19 C         -11.4654  -19.0000   21.2249 C.3     1  UNL1        0.0093
     20 C         -10.1943  -19.6826   20.8144 C.3     1  UNL1        0.0019
     21 C          -9.6064  -19.4212   19.4594 C.3     1  UNL1        0.0171
     22 C          -8.1658  -19.7423   19.1923 C.3     1  UNL1        0.0688
     23 N          -7.0837  -18.9333   19.8441 N.3     1  UNL1       -0.2937
     24 H          -7.5471  -18.2015   20.3827 H       1  UNL1        0.1236
     25 C          -6.1044  -19.5960   20.7669 C.3     1  UNL1        0.0956
     26 C          -4.6475  -19.2468   20.6906 C.ar    1  UNL1       -0.0062
     27 C          -4.0410  -18.8417   19.3799 C.ar    1  UNL1       -0.0006
     28 C          -2.5842  -18.4926   19.3037 C.ar    1  UNL1        0.0294
     29 C          -1.7339  -18.5486   20.5382 C.ar    1  UNL1        0.1401
     30 F          -0.2771  -18.1995   20.4619 F       1  UNL1       -0.2042
     31 C          -2.3405  -18.9537   21.8489 C.ar    1  UNL1        0.0294
     32 C          -3.7973  -19.3028   21.9251 C.ar    1  UNL1       -0.0006
@<TRIPOS>BOND
     1    17    18    1
     2    18     9    1
     3     9     8    1
     4     1     8    1
     5     1    19    1
     6    19    20    1
     7    20    21    1
     8    21    22    1
     9    22    23    1
    10    23    25    1
    11    25    26    1
    12    26    27   ar
    13    27    28   ar
    14    28    29   ar
    15    29    30    1
    16    29    31   ar
    17    31    32   ar
    18     1     2    1
    19     2     3    2
    20     2     4   am
    21     4     5    1
    22     9    10    1
    23    10    11   ar
    24    11    12   ar
    25    12    13   ar
    26    13    14    1
    27    13    15   ar
    28    15    16   ar
    29    32    26   ar
    30    16    10   ar
    31    23    24    1
    32     4     6    1
    33     5     7    1
@<TRIPOS>MOLECULE
*****
 32 33 0 0 0
SMALL
GASTEIGER

@<TRIPOS>ATOM
      1 C         -10.6833  -17.7230   21.5712 C.3     1  UNL1        0.0813
      2 C         -11.6506  -16.7227   21.0112 C.2     1  UNL1        0.2439
      3 O         -12.6070  -16.0126   21.9227 O.2     1  UNL1       -0.2731
      4 N         -11.6616  -16.4325   19.5396 N.am    1  UNL1       -0.1970
      5 O         -12.6289  -15.4322   18.9795 O.3     1  UNL1       -0.2952
      6 H         -11.0338  -16.8986   18.9413 H       1  UNL1        0.1822
      7 H         -13.1702  -15.0688   19.6977 H       1  UNL1        0.2414
      8 C          -9.9463  -17.4231   22.8427 C.3     1  UNL1        0.0433
      9 C          -8.7609  -16.5040   22.8236 C.3     1  UNL1        0.1380
     10 C          -8.1311  -16.0653   24.1123 C.ar    1  UNL1        0.0047
     11 C          -6.6692  -15.7328   24.1576 C.ar    1  UNL1        0.0004
     12 C          -6.0394  -15.2941   25.4465 C.ar    1  UNL1        0.0294
     13 C          -6.8716  -15.1879   26.6899 C.ar    1  UNL1        0.1401
     14 F          -6.2418  -14.7492   27.9786 F       1  UNL1       -0.2042
     15 C          -8.3336  -15.5204   26.6445 C.ar    1  UNL1        0.0294
     16 C          -8.9633  -15.9591   25.3558 C.ar    1  UNL1        0.0004
     17 C          -8.5170  -14.6385   21.0318 C.3     1  UNL1        0.1745
     18 O          -8.2054  -16.0237   21.5156 O.3     1  UNL1       -0.3492
     19 C         -10.4531  -19.0233   20.8598 C.3     1  UNL1        0.0093
     20 C          -9.1779  -19.2484   20.1026 C.3     1  UNL1        0.0019
     21 C          -7.9107  -19.5581   20.8429 C.3     1  UNL1        0.0171
     22 C          -6.6089  -19.6353   20.1018 C.3     1  UNL1        0.0688
     23 N          -5.7236  -20.8354   20.2638 N.3     1  UNL1       -0.2937
     24 H          -6.0422  -21.5297   19.5879 H       1  UNL1        0.1236
     25 C          -4.2405  -20.7033   20.0824 C.3     1  UNL1        0.0956
     26 C          -3.5426  -19.4439   20.5033 C.ar    1  UNL1       -0.0062
     27 C          -3.5131  -19.0505   21.9504 C.ar    1  UNL1       -0.0006
     28 C          -2.8153  -17.7912   22.3712 C.ar    1  UNL1        0.0294
     29 C          -2.1469  -16.9253   21.3448 C.ar    1  UNL1        0.1401
     30 F          -1.4491  -15.6659   21.7656 F       1  UNL1       -0.2042
     31 C          -2.1764  -17.3187   19.8976 C.ar    1  UNL1        0.0294
     32 C          -2.8743  -18.5780   19.4769 C.ar    1  UNL1       -0.0006
@<TRIPOS>BOND
     1    17    18    1
     2    18     9    1
     3     9     8    1
     4     1     8    1
     5     1    19    1
     6    19    20    1
     7    20    21    1
     8    21    22    1
     9    22    23    1
    10    23    25    1
    11    25    26    1
    12    26    27   ar
    13    27    28   ar
    14    28    29   ar
    15    29    30    1
    16    29    31   ar
    17    31    32   ar
    18     1     2    1
    19     2     3    2
    20     2     4   am
    21     4     5    1
    22     9    10    1
    23    10    11   ar
    24    11    12   ar
    25    12    13   ar
    26    13    14    1
    27    13    15   ar
    28    15    16   ar
    29    32    26   ar
    30    16    10   ar
    31    23    24    1
    32     4     6    1
    33     5     7    1
@<TRIPOS>MOLECULE
*****
 32 33 0 0 0
SMALL
GASTEIGER

@<TRIPOS>ATOM
      1 C          -7.3333  -18.5895   22.4510 C.3     1  UNL1        0.0813
      2 C          -7.1857  -17.0968   22.4559 C.2     1  UNL1        0.2439
      3 O          -6.1322  -16.4501   23.3056 O.2     1  UNL1       -0.2731
      4 N          -8.0915  -16.2507   21.6112 N.am    1  UNL1       -0.1970
      5 O          -7.9439  -14.7580   21.6162 O.3     1  UNL1       -0.2952
      6 H          -8.7830  -16.6751   21.0536 H       1  UNL1        0.1822
      7 H          -7.2224  -14.5064   22.2137 H       1  UNL1        0.2414
      8 C          -6.1203  -19.4627   22.3240 C.3     1  UNL1        0.0433
      9 C          -5.5334  -19.7390   20.9714 C.3     1  UNL1        0.1380
     10 C          -4.1262  -19.3199   20.6647 C.ar    1  UNL1        0.0047
     11 C          -3.7915  -18.7430   19.3211 C.ar    1  UNL1        0.0004
     12 C          -2.3842  -18.3239   19.0143 C.ar    1  UNL1        0.0294
     13 C          -1.3118  -18.4815   20.0511 C.ar    1  UNL1        0.1401
     14 F           0.0954  -18.0624   19.7444 F       1  UNL1       -0.2042
     15 C          -1.6465  -19.0584   21.3947 C.ar    1  UNL1        0.0294
     16 C          -3.0537  -19.4775   21.7015 C.ar    1  UNL1        0.0004
     17 C          -7.5235  -19.7335   19.3013 C.3     1  UNL1        0.1745
     18 O          -6.3536  -20.4345   19.9258 O.3     1  UNL1       -0.3492
     19 C          -8.6939  -19.2090   22.5730 C.3     1  UNL1        0.0093
     20 C          -8.8865  -20.4365   23.4135 C.3     1  UNL1        0.0019
     21 C          -9.9397  -20.4566   24.4812 C.3     1  UNL1        0.0171
     22 C         -10.3079  -19.1901   25.1955 C.3     1  UNL1        0.0688
     23 N         -11.7195  -18.6850   25.1474 N.3     1  UNL1       -0.2937
     24 H         -11.6847  -17.6915   25.3756 H       1  UNL1        0.1236
     25 C         -12.5187  -18.8115   23.8844 C.3     1  UNL1        0.0956
     26 C         -12.1358  -18.0159   22.6717 C.ar    1  UNL1       -0.0062
     27 C         -12.0593  -16.5199   22.7496 C.ar    1  UNL1       -0.0006
     28 C         -11.6764  -15.7244   21.5370 C.ar    1  UNL1        0.0294
     29 C         -11.3699  -16.4249   20.2465 C.ar    1  UNL1        0.1401
     30 F         -10.9870  -15.6293   19.0338 F       1  UNL1       -0.2042
     31 C         -11.4464  -17.9209   20.1686 C.ar    1  UNL1        0.0294
     32 C         -11.8293  -18.7164   21.3812 C.ar    1  UNL1       -0.0006
@<TRIPOS>BOND
     1    17    18    1
     2    18     9    1
     3     9     8    1
     4     1     8    1
     5     1    19    1
     6    19    20    1
     7    20    21    1
     8    21    22    1
     9    22    23    1
    10    23    25    1
    11    25    26    1
    12    26    27   ar
    13    27    28   ar
    14    28    29   ar
    15    29    30    1
    16    29    31   ar
    17    31    32   ar
    18     1     2    1
    19     2     3    2
    20     2     4   am
    21     4     5    1
    22     9    10    1
    23    10    11   ar
    24    11    12   ar
    25    12    13   ar
    26    13    14    1
    27    13    15   ar
    28    15    16   ar
    29    32    26   ar
    30    16    10   ar
    31    23    24    1
    32     4     6    1
    33     5     7    1
@<TRIPOS>MOLECULE
*****
 32 33 0 0 0
SMALL
GASTEIGER

@<TRIPOS>ATOM
      1 C          -7.8146  -16.5043   23.1816 C.3     1  UNL1        0.0813
      2 C          -7.5078  -15.6854   24.4003 C.2     1  UNL1        0.2439
      3 O          -6.3518  -14.7297   24.3902 O.2     1  UNL1       -0.2731
      4 N          -8.3572  -15.8221   25.6291 N.am    1  UNL1       -0.1970
      5 O          -8.0505  -15.0031   26.8477 O.3     1  UNL1       -0.2952
      6 H          -9.1159  -16.4493   25.6357 H       1  UNL1        0.1822
      7 H          -7.2784  -14.4420   26.6744 H       1  UNL1        0.2414
      8 C          -8.8356  -16.0246   22.1930 C.3     1  UNL1        0.0433
      9 C          -9.9071  -16.9564   21.7095 C.3     1  UNL1        0.1380
     10 C         -10.9735  -17.4273   22.6534 C.ar    1  UNL1        0.0047
     11 C         -10.6430  -18.4314   23.7176 C.ar    1  UNL1        0.0004
     12 C         -11.7095  -18.9023   24.6615 C.ar    1  UNL1        0.0294
     13 C         -13.1063  -18.3692   24.5412 C.ar    1  UNL1        0.1401
     14 F         -14.1727  -18.8401   25.4851 F       1  UNL1       -0.2042
     15 C         -13.4368  -17.3651   23.4770 C.ar    1  UNL1        0.0294
     16 C         -12.3704  -16.8941   22.5331 C.ar    1  UNL1        0.0004
     17 C         -10.5442  -18.7281   19.9193 C.3     1  UNL1        0.1745
     18 O          -9.9121  -17.4171   20.2820 O.3     1  UNL1       -0.3492
     19 C          -7.1003  -17.8031   22.9515 C.3     1  UNL1        0.0093
     20 C          -6.5818  -18.1421   21.5853 C.3     1  UNL1        0.0019
     21 C          -7.0161  -19.4100   20.9117 C.3     1  UNL1        0.0171
     22 C          -6.1999  -20.6589   21.0663 C.3     1  UNL1        0.0688
     23 N          -5.3247  -21.1270   19.9415 N.3     1  UNL1       -0.2937
     24 H          -5.6295  -20.6298   19.1047 H       1  UNL1        0.1236
     25 C          -3.8369  -20.9572   20.0283 C.3     1  UNL1        0.0956
     26 C          -3.2554  -19.6361   20.4367 C.ar    1  UNL1       -0.0062
     27 C          -2.9058  -18.6160   19.3940 C.ar    1  UNL1       -0.0006
     28 C          -2.3243  -17.2951   19.8024 C.ar    1  UNL1        0.0294
     29 C          -2.0923  -16.9942   21.2535 C.ar    1  UNL1        0.1401
     30 F          -1.5108  -15.6731   21.6619 F       1  UNL1       -0.2042
     31 C          -2.4419  -18.0143   22.2962 C.ar    1  UNL1        0.0294
     32 C          -3.0234  -19.3352   21.8877 C.ar    1  UNL1       -0.0006
@<TRIPOS>BOND
     1    17    18    1
     2    18     9    1
     3     9     8    1
     4     1     8    1
     5     1    19    1
     6    19    20    1
     7    20    21    1
     8    21    22    1
     9    22    23    1
    10    23    25    1
    11    25    26    1
    12    26    27   ar
    13    27    28   ar
    14    28    29   ar
    15    29    30    1
    16    29    31   ar
    17    31    32   ar
    18     1     2    1
    19     2     3    2
    20     2     4   am
    21     4     5    1
    22     9    10    1
    23    10    11   ar
    24    11    12   ar
    25    12    13   ar
    26    13    14    1
    27    13    15   ar
    28    15    16   ar
    29    32    26   ar
    30    16    10   ar
    31    23    24    1
    32     4     6    1
    33     5     7    1
@<TRIPOS>MOLECULE
*****
 32 33 0 0 0
SMALL
GASTEIGER

@<TRIPOS>ATOM
      1 C          -6.6644  -16.2494   23.3005 C.3     1  UNL1        0.0813
      2 C          -5.7105  -15.3550   24.0354 C.2     1  UNL1        0.2439
      3 O          -4.4948  -14.8206   23.3379 O.2     1  UNL1       -0.2731
      4 N          -5.9722  -14.9950   25.4678 N.am    1  UNL1       -0.1970
      5 O          -5.0183  -14.1007   26.2027 O.3     1  UNL1       -0.2952
      6 H          -6.7701  -15.3458   25.9256 H       1  UNL1        0.1822
      7 H          -4.2926  -13.8465   25.6114 H       1  UNL1        0.2414
      8 C          -8.0537  -15.7739   22.9943 C.3     1  UNL1        0.0433
      9 C          -9.1752  -16.0726   23.9446 C.3     1  UNL1        0.1380
     10 C         -10.4608  -16.6490   23.4301 C.ar    1  UNL1        0.0047
     11 C         -10.9790  -17.9419   23.9868 C.ar    1  UNL1        0.0004
     12 C         -12.2647  -18.5184   23.4722 C.ar    1  UNL1        0.0294
     13 C         -13.0321  -17.8020   22.4009 C.ar    1  UNL1        0.1401
     14 F         -14.3177  -18.3785   21.8864 F       1  UNL1       -0.2042
     15 C         -12.5139  -16.5091   21.8442 C.ar    1  UNL1        0.0294
     16 C         -11.2283  -15.9326   22.3587 C.ar    1  UNL1        0.0004
     17 C          -8.6973  -16.9162   26.3550 C.3     1  UNL1        0.1745
     18 O          -9.0109  -15.7948   25.4095 O.3     1  UNL1       -0.3492
     19 C          -6.2291  -17.6192   22.8717 C.3     1  UNL1        0.0093
     20 C          -7.0317  -18.3779   21.8566 C.3     1  UNL1        0.0019
     21 C          -7.3203  -19.8349   22.0654 C.3     1  UNL1        0.0171
     22 C          -6.3043  -20.8650   21.6697 C.3     1  UNL1        0.0688
     23 N          -5.7075  -20.8398   20.2937 N.3     1  UNL1       -0.2937
     24 H          -6.1034  -20.0303   19.8158 H       1  UNL1        0.1236
     25 C          -4.2195  -20.7584   20.1230 C.3     1  UNL1        0.0956
     26 C          -3.4907  -19.4984   20.4856 C.ar    1  UNL1       -0.0062
     27 C          -3.1249  -19.2284   21.9150 C.ar    1  UNL1       -0.0006
     28 C          -2.3962  -17.9685   22.2775 C.ar    1  UNL1        0.0294
     29 C          -2.0333  -16.9785   21.2106 C.ar    1  UNL1        0.1401
     30 F          -1.3046  -15.7185   21.5731 F       1  UNL1       -0.2042
     31 C          -2.3992  -17.2484   19.7812 C.ar    1  UNL1        0.0294
     32 C          -3.1279  -18.5084   19.4187 C.ar    1  UNL1       -0.0006
@<TRIPOS>BOND
     1    17    18    1
     2    18     9    1
     3     9     8    1
     4     1     8    1
     5     1    19    1
     6    19    20    1
     7    20    21    1
     8    21    22    1
     9    22    23    1
    10    23    25    1
    11    25    26    1
    12    26    27   ar
    13    27    28   ar
    14    28    29   ar
    15    29    30    1
    16    29    31   ar
    17    31    32   ar
    18     1     2    1
    19     2     3    2
    20     2     4   am
    21     4     5    1
    22     9    10    1
    23    10    11   ar
    24    11    12   ar
    25    12    13   ar
    26    13    14    1
    27    13    15   ar
    28    15    16   ar
    29    32    26   ar
    30    16    10   ar
    31    23    24    1
    32     4     6    1
    33     5     7    1
@<TRIPOS>MOLECULE
*****
 32 33 0 0 0
SMALL
GASTEIGER

@<TRIPOS>ATOM
      1 C          -5.9995  -16.6931   23.4538 C.3     1  UNL1        0.0813
      2 C          -5.3822  -15.4777   24.0797 C.2     1  UNL1        0.2439
      3 O          -4.6805  -14.4668   23.2221 O.2     1  UNL1       -0.2731
      4 N          -5.4665  -15.2733   25.5633 N.am    1  UNL1       -0.1970
      5 O          -4.8492  -14.0580   26.1892 O.3     1  UNL1       -0.2952
      6 H          -5.9270  -15.9369   26.1262 H       1  UNL1        0.1822
      7 H          -4.4394  -13.5121   25.5000 H       1  UNL1        0.2414
      8 C          -7.4689  -16.7178   23.1536 C.3     1  UNL1        0.0433
      9 C          -8.4624  -16.7906   24.2750 C.3     1  UNL1        0.1380
     10 C          -9.8885  -17.1590   23.9910 C.ar    1  UNL1        0.0047
     11 C         -10.6863  -16.3617   23.0021 C.ar    1  UNL1        0.0004
     12 C         -12.1124  -16.7301   22.7181 C.ar    1  UNL1        0.0294
     13 C         -12.7406  -17.8958   23.4228 C.ar    1  UNL1        0.1401
     14 F         -14.1666  -18.2641   23.1387 F       1  UNL1       -0.2042
     15 C         -11.9427  -18.6930   24.4116 C.ar    1  UNL1        0.0294
     16 C         -10.5167  -18.3247   24.6957 C.ar    1  UNL1        0.0004
     17 C          -8.6611  -15.3644   26.4375 C.3     1  UNL1        0.1745
     18 O          -8.0299  -16.4951   25.6806 O.3     1  UNL1       -0.3492
     19 C          -5.1474  -17.8838   23.1281 C.3     1  UNL1        0.0093
     20 C          -3.6625  -17.8216   23.3312 C.3     1  UNL1        0.0019
     21 C          -2.7492  -17.6787   22.1499 C.3     1  UNL1        0.0171
     22 C          -2.9495  -18.5405   20.9386 C.3     1  UNL1        0.0688
     23 N          -3.4711  -19.9387   21.0908 N.3     1  UNL1       -0.2937
     24 H          -3.8095  -20.0240   22.0493 H       1  UNL1        0.1236
     25 C          -4.5715  -20.4300   20.1977 C.3     1  UNL1        0.0956
     26 C          -6.0031  -20.1510   20.5484 C.ar    1  UNL1       -0.0062
     27 C          -6.9274  -19.5689   19.5204 C.ar    1  UNL1       -0.0006
     28 C          -8.3588  -19.2900   19.8712 C.ar    1  UNL1        0.0294
     29 C          -8.8660  -19.5930   21.2499 C.ar    1  UNL1        0.1401
     30 F         -10.2975  -19.3140   21.6006 F       1  UNL1       -0.2042
     31 C          -7.9417  -20.1751   22.2779 C.ar    1  UNL1        0.0294
     32 C          -6.5102  -20.4540   21.9272 C.ar    1  UNL1       -0.0006
@<TRIPOS>BOND
     1    17    18    1
     2    18     9    1
     3     9     8    1
     4     1     8    1
     5     1    19    1
     6    19    20    1
     7    20    21    1
     8    21    22    1
     9    22    23    1
    10    23    25    1
    11    25    26    1
    12    26    27   ar
    13    27    28   ar
    14    28    29   ar
    15    29    30    1
    16    29    31   ar
    17    31    32   ar
    18     1     2    1
    19     2     3    2
    20     2     4   am
    21     4     5    1
    22     9    10    1
    23    10    11   ar
    24    11    12   ar
    25    12    13   ar
    26    13    14    1
    27    13    15   ar
    28    15    16   ar
    29    32    26   ar
    30    16    10   ar
    31    23    24    1
    32     4     6    1
    33     5     7    1
@<TRIPOS>MOLECULE
*****
 32 33 0 0 0
SMALL
GASTEIGER

@<TRIPOS>ATOM
      1 C         -16.1399   -9.1565   18.6854 C.3     1  UNL1        0.0813
      2 C         -17.0069  -10.3757   18.5769 C.2     1  UNL1        0.2439
      3 O         -16.3968  -11.7418   18.6841 O.2     1  UNL1       -0.2731
      4 N         -18.4840  -10.2289   18.3613 N.am    1  UNL1       -0.1970
      5 O         -19.3510  -11.4481   18.2528 O.3     1  UNL1       -0.2952
      6 H         -18.8845   -9.3323   18.2909 H       1  UNL1        0.1822
      7 H         -18.8032  -12.2435   18.3431 H       1  UNL1        0.2414
      8 C         -16.3754   -8.1642   19.7853 C.3     1  UNL1        0.0433
      9 C         -17.2523   -6.9712   19.5442 C.3     1  UNL1        0.1380
     10 C         -16.6723   -5.5893   19.6061 C.ar    1  UNL1        0.0047
     11 C         -15.1884   -5.4032   19.7221 C.ar    1  UNL1        0.0004
     12 C         -14.6084   -4.0212   19.7840 C.ar    1  UNL1        0.0294
     13 C         -15.5123   -2.8254   19.7299 C.ar    1  UNL1        0.1401
     14 F         -14.9323   -1.4435   19.7918 F       1  UNL1       -0.2042
     15 C         -16.9962   -3.0115   19.6139 C.ar    1  UNL1        0.0294
     16 C         -17.5762   -4.3934   19.5520 C.ar    1  UNL1        0.0004
     17 C         -19.6612   -7.5334   20.3386 C.3     1  UNL1        0.1745
     18 O         -18.7091   -7.1603   19.2412 O.3     1  UNL1       -0.3492
     19 C         -15.0375   -8.9295   17.6939 C.3     1  UNL1        0.0093
     20 C         -13.7392   -8.3255   18.1411 C.3     1  UNL1        0.0019
     21 C         -12.9520   -7.4600   17.2024 C.3     1  UNL1        0.0171
     22 C         -11.5495   -7.8397   16.8301 C.3     1  UNL1        0.0688
     23 N         -10.5566   -8.1845   17.9003 N.3     1  UNL1       -0.2937
     24 H          -9.7945   -8.6863   17.4444 H       1  UNL1        0.1236
     25 C          -9.9292   -7.0962   18.7200 C.3     1  UNL1        0.0956
     26 C         -10.0781   -5.6629   18.3035 C.ar    1  UNL1       -0.0062
     27 C         -11.0412   -4.7681   19.0259 C.ar    1  UNL1       -0.0006
     28 C         -11.1901   -3.3349   18.6094 C.ar    1  UNL1        0.0294
     29 C         -10.3760   -2.7963   17.4704 C.ar    1  UNL1        0.1401
     30 F         -10.5250   -1.3630   17.0539 F       1  UNL1       -0.2042
     31 C          -9.4130   -3.6911   16.7480 C.ar    1  UNL1        0.0294
     32 C          -9.2641   -5.1243   17.1645 C.ar    1  UNL1       -0.0006
@<TRIPOS>BOND
     1    17    18    1
     2    18     9    1
     3     9     8    1
     4     1     8    1
     5     1    19    1
     6    19    20    1
     7    20    21    1
     8    21    22    1
     9    22    23    1
    10    23    25    1
    11    25    26    1
    12    26    27   ar
    13    27    28   ar
    14    28    29   ar
    15    29    30    1
    16    29    31   ar
    17    31    32   ar
    18     1     2    1
    19     2     3    2
    20     2     4   am
    21     4     5    1
    22     9    10    1
    23    10    11   ar
    24    11    12   ar
    25    12    13   ar
    26    13    14    1
    27    13    15   ar
    28    15    16   ar
    29    32    26   ar
    30    16    10   ar
    31    23    24    1
    32     4     6    1
    33     5     7    1
@<TRIPOS>MOLECULE
*****
 32 33 0 0 0
SMALL
GASTEIGER

@<TRIPOS>ATOM
      1 C         -15.2628   -7.5709   19.0549 C.3     1  UNL1        0.0813
      2 C         -15.5400   -9.0430   19.1327 C.2     1  UNL1        0.2439
      3 O         -16.3422   -9.5959   20.2732 O.2     1  UNL1       -0.2731
      4 N         -15.0151   -9.9623   18.0700 N.am    1  UNL1       -0.1970
      5 O         -15.2923  -11.4344   18.1478 O.3     1  UNL1       -0.2952
      6 H         -14.4886   -9.5994   17.3214 H       1  UNL1        0.1822
      7 H         -15.8192  -11.6227   18.9402 H       1  UNL1        0.2414
      8 C         -16.3717   -6.5860   19.2793 C.3     1  UNL1        0.0433
      9 C         -16.5973   -5.4742   18.2979 C.3     1  UNL1        0.1380
     10 C         -15.8352   -4.1892   18.4321 C.ar    1  UNL1        0.0047
     11 C         -15.3639   -3.4651   17.2059 C.ar    1  UNL1        0.0004
     12 C         -14.6017   -2.1801   17.3402 C.ar    1  UNL1        0.0294
     13 C         -14.3108   -1.6193   18.7006 C.ar    1  UNL1        0.1401
     14 F         -13.5487   -0.3344   18.8348 F       1  UNL1       -0.2042
     15 C         -14.7821   -2.3434   19.9268 C.ar    1  UNL1        0.0294
     16 C         -15.5442   -3.6283   19.7926 C.ar    1  UNL1        0.0004
     17 C         -18.4158   -6.8937   17.1030 C.3     1  UNL1        0.1745
     18 O         -17.5850   -5.6473   17.1824 O.3     1  UNL1       -0.3492
     19 C         -13.8768   -7.0837   18.7527 C.3     1  UNL1        0.0093
     20 C         -13.4695   -6.8127   17.3346 C.3     1  UNL1        0.0019
     21 C         -12.7500   -7.8668   16.5465 C.3     1  UNL1        0.0171
     22 C         -11.2507   -7.9109   16.5469 C.3     1  UNL1        0.0688
     23 N         -10.5087   -8.1817   17.8222 N.3     1  UNL1       -0.2937
     24 H          -9.8894   -8.9715   17.6405 H       1  UNL1        0.1236
     25 C          -9.6679   -7.1060   18.4435 C.3     1  UNL1        0.0956
     26 C          -9.9995   -5.6628   18.2044 C.ar    1  UNL1       -0.0062
     27 C          -9.3213   -4.9108   17.0978 C.ar    1  UNL1       -0.0006
     28 C          -9.6529   -3.4677   16.8587 C.ar    1  UNL1        0.0294
     29 C         -10.6626   -2.7764   17.7262 C.ar    1  UNL1        0.1401
     30 F         -10.9941   -1.3331   17.4870 F       1  UNL1       -0.2042
     31 C         -11.3408   -3.5283   18.8328 C.ar    1  UNL1        0.0294
     32 C         -11.0092   -4.9715   19.0719 C.ar    1  UNL1       -0.0006
@<TRIPOS>BOND
     1    17    18    1
     2    18     9    1
     3     9     8    1
     4     1     8    1
     5     1    19    1
     6    19    20    1
     7    20    21    1
     8    21    22    1
     9    22    23    1
    10    23    25    1
    11    25    26    1
    12    26    27   ar
    13    27    28   ar
    14    28    29   ar
    15    29    30    1
    16    29    31   ar
    17    31    32   ar
    18     1     2    1
    19     2     3    2
    20     2     4   am
    21     4     5    1
    22     9    10    1
    23    10    11   ar
    24    11    12   ar
    25    12    13   ar
    26    13    14    1
    27    13    15   ar
    28    15    16   ar
    29    32    26   ar
    30    16    10   ar
    31    23    24    1
    32     4     6    1
    33     5     7    1
@<TRIPOS>MOLECULE
*****
 32 33 0 0 0
SMALL
GASTEIGER

@<TRIPOS>ATOM
      1 C         -12.3641   -6.2606   18.6382 C.3     1  UNL1        0.0813
      2 C         -11.6031   -7.3622   17.9619 C.2     1  UNL1        0.2439
      3 O         -12.0959   -7.9260   16.6623 O.2     1  UNL1       -0.2731
      4 N         -10.3492   -7.8999   18.5852 N.am    1  UNL1       -0.1970
      5 O          -9.5881   -9.0014   17.9089 O.3     1  UNL1       -0.2952
      6 H         -10.0257   -7.5298   19.4382 H       1  UNL1        0.1822
      7 H         -10.0390   -9.2481   17.0862 H       1  UNL1        0.2414
      8 C         -11.6253   -5.1560   19.3339 C.3     1  UNL1        0.0433
      9 C         -11.0231   -4.0377   18.5358 C.3     1  UNL1        0.1380
     10 C         -11.8661   -2.8634   18.1354 C.ar    1  UNL1        0.0047
     11 C         -11.7304   -1.5595   18.8643 C.ar    1  UNL1        0.0004
     12 C         -12.5735   -0.3852   18.4639 C.ar    1  UNL1        0.0294
     13 C         -13.5522   -0.5148   17.3346 C.ar    1  UNL1        0.1401
     14 F         -14.3952    0.6594   16.9342 F       1  UNL1       -0.2042
     15 C         -13.6879   -1.8188   16.6057 C.ar    1  UNL1        0.0294
     16 C         -12.8448   -2.9931   17.0061 C.ar    1  UNL1        0.0004
     17 C          -9.2021   -4.3851   16.7155 C.3     1  UNL1        0.1745
     18 O          -9.5778   -4.0938   18.1381 O.3     1  UNL1       -0.3492
     19 C         -13.8639   -6.2637   18.6189 C.3     1  UNL1        0.0093
     20 C         -14.6295   -5.5776   19.7113 C.3     1  UNL1        0.0019
     21 C         -15.3833   -4.3141   19.4194 C.3     1  UNL1        0.0171
     22 C         -16.7391   -4.0935   20.0220 C.3     1  UNL1        0.0688
     23 N         -17.9721   -4.4487   19.2449 N.3     1  UNL1       -0.2937
     24 H         -17.7432   -4.3279   18.2583 H       1  UNL1        0.1236
     25 C         -18.5796   -5.8129   19.3847 C.3     1  UNL1        0.0956
     26 C         -17.7808   -7.0303   19.0242 C.ar    1  UNL1       -0.0062
     27 C         -17.4332   -8.0387   20.0788 C.ar    1  UNL1       -0.0006
     28 C         -16.6344   -9.2559   19.7183 C.ar    1  UNL1        0.0294
     29 C         -16.1831   -9.4649   18.3031 C.ar    1  UNL1        0.1401
     30 F         -15.3843  -10.6822   17.9426 F       1  UNL1       -0.2042
     31 C         -16.5308   -8.4565   17.2485 C.ar    1  UNL1        0.0294
     32 C         -17.3296   -7.2392   17.6090 C.ar    1  UNL1       -0.0006
@<TRIPOS>BOND
     1    17    18    1
     2    18     9    1
     3     9     8    1
     4     1     8    1
     5     1    19    1
     6    19    20    1
     7    20    21    1
     8    21    22    1
     9    22    23    1
    10    23    25    1
    11    25    26    1
    12    26    27   ar
    13    27    28   ar
    14    28    29   ar
    15    29    30    1
    16    29    31   ar
    17    31    32   ar
    18     1     2    1
    19     2     3    2
    20     2     4   am
    21     4     5    1
    22     9    10    1
    23    10    11   ar
    24    11    12   ar
    25    12    13   ar
    26    13    14    1
    27    13    15   ar
    28    15    16   ar
    29    32    26   ar
    30    16    10   ar
    31    23    24    1
    32     4     6    1
    33     5     7    1
