@<TRIPOS>MOLECULE
*****
 18 20 0 0 0
SMALL
GASTEIGER

@<TRIPOS>ATOM
      1 O         -11.6078  -17.3377   19.5481 O.2     1  UNL1       -0.2376
      2 C         -10.8112  -17.8586   20.7075 C.2     1  UNL1        0.3788
      3 N          -9.3507  -18.1567   20.5403 N.am    1  UNL1        0.0364
      4 C          -8.5541  -18.6775   21.6997 C.2     1  UNL1        0.3688
      5 N          -9.2180  -18.9002   23.0262 N.2     1  UNL1       -0.0400
      6 C         -10.6786  -18.6021   23.1934 C.2     1  UNL1        0.1818
      7 C         -11.3424  -18.8248   24.5199 C.3     1  UNL1        0.1000
      8 C         -12.8029  -18.5266   24.6870 C.2     1  UNL1       -0.0174
      9 C         -13.5996  -18.0058   23.5276 C.2     1  UNL1       -0.0038
     10 C         -12.9357  -17.7831   22.2011 C.2     1  UNL1        0.0101
     11 C         -11.4752  -18.0813   22.0340 C.2     1  UNL1        0.1209
     12 C          -7.0935  -18.9757   21.5325 C.ar    1  UNL1        0.0865
     13 C          -6.6318  -19.8588   20.4114 C.ar    1  UNL1        0.0080
     14 C          -5.1713  -20.1569   20.2443 C.ar    1  UNL1        0.0069
     15 C          -4.1724  -19.5719   21.1983 C.ar    1  UNL1        0.0346
     16 BR         -2.7119  -19.8700   21.0311 Br      1  UNL1       -0.0490
     17 C          -4.6341  -18.6887   22.3194 C.ar    1  UNL1        0.0069
     18 C          -6.0946  -18.3906   22.4865 C.ar    1  UNL1        0.0080
@<TRIPOS>BOND
     1     1     2    2
     2     2     3    1
     3     3     4    2
     4     4    12    1
     5    12    13   ar
     6    13    14   ar
     7    14    15   ar
     8    15    16    1
     9    15    17   ar
    10    17    18   ar
    11     4     5    1
    12     5     6    2
    13     6     7    1
    14     7     8    1
    15     8     9    2
    16     9    10    1
    17    10    11    2
    18    11     2    1
    19    18    12   ar
    20    11     6    1
@<TRIPOS>MOLECULE
*****
 18 20 0 0 0
SMALL
GASTEIGER

@<TRIPOS>ATOM
      1 O         -10.1931  -20.7885   24.2335 O.2     1  UNL1       -0.2376
      2 C          -9.6247  -19.7169   23.3512 C.2     1  UNL1        0.3788
      3 N          -8.1889  -19.7820   22.9220 N.am    1  UNL1        0.0364
      4 C          -7.6205  -18.7104   22.0397 C.2     1  UNL1        0.3688
      5 N          -8.4879  -17.5737   21.5864 N.2     1  UNL1       -0.0400
      6 C          -9.9238  -17.5085   22.0155 C.2     1  UNL1        0.1818
      7 C         -10.7912  -16.3718   21.5622 C.3     1  UNL1        0.1000
      8 C         -12.2270  -16.3067   21.9914 C.2     1  UNL1       -0.0174
      9 C         -12.7954  -17.3783   22.8737 C.2     1  UNL1       -0.0038
     10 C         -11.9280  -18.5150   23.3270 C.2     1  UNL1        0.0101
     11 C         -10.4922  -18.5801   22.8979 C.2     1  UNL1        0.1209
     12 C          -6.1846  -18.7755   21.6105 C.ar    1  UNL1        0.0865
     13 C          -5.8408  -19.1174   20.1911 C.ar    1  UNL1        0.0080
     14 C          -4.4050  -19.1825   19.7620 C.ar    1  UNL1        0.0069
     15 C          -3.3130  -18.9058   20.7525 C.ar    1  UNL1        0.0346
     16 BR         -1.8771  -18.9709   20.3233 Br      1  UNL1       -0.0490
     17 C          -3.6568  -18.5639   22.1719 C.ar    1  UNL1        0.0069
     18 C          -5.0926  -18.4988   22.6010 C.ar    1  UNL1        0.0080
@<TRIPOS>BOND
     1     1     2    2
     2     2     3    1
     3     3     4    2
     4     4    12    1
     5    12    13   ar
     6    13    14   ar
     7    14    15   ar
     8    15    16    1
     9    15    17   ar
    10    17    18   ar
    11     4     5    1
    12     5     6    2
    13     6     7    1
    14     7     8    1
    15     8     9    2
    16     9    10    1
    17    10    11    2
    18    11     2    1
    19    18    12   ar
    20    11     6    1
@<TRIPOS>MOLECULE
*****
 18 20 0 0 0
SMALL
GASTEIGER

@<TRIPOS>ATOM
      1 O          -5.1974  -21.3529   19.9908 O.2     1  UNL1       -0.2376
      2 C          -5.5700  -20.2299   20.9127 C.2     1  UNL1        0.3788
      3 N          -7.0136  -19.9503   21.2090 N.am    1  UNL1        0.0364
      4 C          -7.3862  -18.8273   22.1309 C.2     1  UNL1        0.3688
      5 N          -6.3153  -17.9838   22.7566 N.2     1  UNL1       -0.0400
      6 C          -4.8716  -18.2634   22.4604 C.2     1  UNL1        0.1818
      7 C          -3.8006  -17.4199   23.0861 C.3     1  UNL1        0.1000
      8 C          -2.3570  -17.6995   22.7899 C.2     1  UNL1       -0.0174
      9 C          -1.9844  -18.8225   21.8679 C.2     1  UNL1       -0.0038
     10 C          -3.0553  -19.6659   21.2422 C.2     1  UNL1        0.0101
     11 C          -4.4989  -19.3864   21.5384 C.2     1  UNL1        0.1209
     12 C          -8.8299  -18.5478   22.4271 C.ar    1  UNL1        0.0865
     13 C          -9.2765  -17.1476   22.7273 C.ar    1  UNL1        0.0080
     14 C         -10.7202  -16.8682   23.0235 C.ar    1  UNL1        0.0069
     15 C         -11.7172  -17.9888   23.0195 C.ar    1  UNL1        0.0346
     16 BR        -13.1609  -17.7093   23.3158 Br      1  UNL1       -0.0490
     17 C         -11.2706  -19.3889   22.7194 C.ar    1  UNL1        0.0069
     18 C          -9.8270  -19.6684   22.4232 C.ar    1  UNL1        0.0080
@<TRIPOS>BOND
     1     1     2    2
     2     2     3    1
     3     3     4    2
     4     4    12    1
     5    12    13   ar
     6    13    14   ar
     7    14    15   ar
     8    15    16    1
     9    15    17   ar
    10    17    18   ar
    11     4     5    1
    12     5     6    2
    13     6     7    1
    14     7     8    1
    15     8     9    2
    16     9    10    1
    17    10    11    2
    18    11     2    1
    19    18    12   ar
    20    11     6    1
@<TRIPOS>MOLECULE
*****
 18 20 0 0 0
SMALL
GASTEIGER

@<TRIPOS>ATOM
      1 O          -4.5030  -16.5475   23.3542 O.2     1  UNL1       -0.2376
      2 C          -5.4877  -17.5252   22.7847 C.2     1  UNL1        0.3788
      3 N          -6.9403  -17.4223   23.1442 N.am    1  UNL1        0.0364
      4 C          -7.9250  -18.4000   22.5747 C.2     1  UNL1        0.3688
      5 N          -7.4571  -19.4806   21.6456 N.2     1  UNL1       -0.0400
      6 C          -6.0045  -19.5836   21.2860 C.2     1  UNL1        0.1818
      7 C          -5.5366  -20.6642   20.3569 C.3     1  UNL1        0.1000
      8 C          -4.0840  -20.7672   19.9974 C.2     1  UNL1       -0.0174
      9 C          -3.0993  -19.7895   20.5669 C.2     1  UNL1       -0.0038
     10 C          -3.5672  -18.7088   21.4960 C.2     1  UNL1        0.0101
     11 C          -5.0197  -18.6059   21.8555 C.2     1  UNL1        0.1209
     12 C          -9.3777  -18.2970   22.9342 C.ar    1  UNL1        0.0865
     13 C         -10.2647  -17.3332   22.2034 C.ar    1  UNL1        0.0080
     14 C         -11.7173  -17.2303   22.5630 C.ar    1  UNL1        0.0069
     15 C         -12.2829  -18.0912   23.6534 C.ar    1  UNL1        0.0346
     16 BR        -13.7355  -17.9882   24.0130 Br      1  UNL1       -0.0490
     17 C         -11.3958  -19.0550   24.3843 C.ar    1  UNL1        0.0069
     18 C          -9.9432  -19.1579   24.0247 C.ar    1  UNL1        0.0080
@<TRIPOS>BOND
     1     1     2    2
     2     2     3    1
     3     3     4    2
     4     4    12    1
     5    12    13   ar
     6    13    14   ar
     7    14    15   ar
     8    15    16    1
     9    15    17   ar
    10    17    18   ar
    11     4     5    1
    12     5     6    2
    13     6     7    1
    14     7     8    1
    15     8     9    2
    16     9    10    1
    17    10    11    2
    18    11     2    1
    19    18    12   ar
    20    11     6    1
@<TRIPOS>MOLECULE
*****
 18 20 0 0 0
SMALL
GASTEIGER

@<TRIPOS>ATOM
      1 O          -4.4568  -16.5080   23.3717 O.2     1  UNL1       -0.2376
      2 C          -5.4361  -17.4940   22.8070 C.2     1  UNL1        0.3788
      3 N          -6.8902  -17.3938   23.1615 N.am    1  UNL1        0.0364
      4 C          -7.8695  -18.3797   22.5968 C.2     1  UNL1        0.3688
      5 N          -7.3948  -19.4658   21.6776 N.2     1  UNL1       -0.0400
      6 C          -5.9407  -19.5660   21.3230 C.2     1  UNL1        0.1818
      7 C          -5.4659  -20.6521   20.4038 C.3     1  UNL1        0.1000
      8 C          -4.0119  -20.7523   20.0493 C.2     1  UNL1       -0.0174
      9 C          -3.0326  -19.7663   20.6140 C.2     1  UNL1       -0.0038
     10 C          -3.5073  -18.6802   21.5332 C.2     1  UNL1        0.0101
     11 C          -4.9613  -18.5801   21.8877 C.2     1  UNL1        0.1209
     12 C          -9.3236  -18.2795   22.9513 C.ar    1  UNL1        0.0865
     13 C          -9.8989  -19.1664   24.0154 C.ar    1  UNL1        0.0080
     14 C         -11.3530  -19.0662   24.3699 C.ar    1  UNL1        0.0069
     15 C         -12.2316  -18.0790   23.6603 C.ar    1  UNL1        0.0346
     16 BR        -13.6857  -17.9788   24.0149 Br      1  UNL1       -0.0490
     17 C         -11.6563  -17.1921   22.5963 C.ar    1  UNL1        0.0069
     18 C         -10.2022  -17.2923   22.2418 C.ar    1  UNL1        0.0080
@<TRIPOS>BOND
     1     1     2    2
     2     2     3    1
     3     3     4    2
     4     4    12    1
     5    12    13   ar
     6    13    14   ar
     7    14    15   ar
     8    15    16    1
     9    15    17   ar
    10    17    18   ar
    11     4     5    1
    12     5     6    2
    13     6     7    1
    14     7     8    1
    15     8     9    2
    16     9    10    1
    17    10    11    2
    18    11     2    1
    19    18    12   ar
    20    11     6    1
@<TRIPOS>MOLECULE
*****
 18 20 0 0 0
SMALL
GASTEIGER

@<TRIPOS>ATOM
      1 O          -4.9522  -14.9870   24.3232 O.2     1  UNL1       -0.2376
      2 C          -5.6493  -16.1870   23.7538 C.2     1  UNL1        0.3788
      3 N          -7.1404  -16.3092   23.8611 N.am    1  UNL1        0.0364
      4 C          -7.8375  -17.5092   23.2917 C.2     1  UNL1        0.3688
      5 N          -7.0434  -18.5869   22.6150 N.2     1  UNL1       -0.0400
      6 C          -5.5522  -18.4647   22.5077 C.2     1  UNL1        0.1818
      7 C          -4.7582  -19.5424   21.8309 C.3     1  UNL1        0.1000
      8 C          -3.2671  -19.4201   21.7236 C.2     1  UNL1       -0.0174
      9 C          -2.5700  -18.2202   22.2930 C.2     1  UNL1       -0.0038
     10 C          -3.3640  -17.1425   22.9697 C.2     1  UNL1        0.0101
     11 C          -4.8551  -17.2647   23.0771 C.2     1  UNL1        0.1209
     12 C          -9.3287  -17.6314   23.3991 C.ar    1  UNL1        0.0865
     13 C          -9.9334  -18.6679   24.2990 C.ar    1  UNL1        0.0080
     14 C         -11.4245  -18.7900   24.4063 C.ar    1  UNL1        0.0069
     15 C         -12.3109  -17.8757   23.6137 C.ar    1  UNL1        0.0346
     16 BR        -13.8021  -17.9979   23.7211 Br      1  UNL1       -0.0490
     17 C         -11.7062  -16.8392   22.7138 C.ar    1  UNL1        0.0069
     18 C         -10.2151  -16.7170   22.6065 C.ar    1  UNL1        0.0080
@<TRIPOS>BOND
     1     1     2    2
     2     2     3    1
     3     3     4    2
     4     4    12    1
     5    12    13   ar
     6    13    14   ar
     7    14    15   ar
     8    15    16    1
     9    15    17   ar
    10    17    18   ar
    11     4     5    1
    12     5     6    2
    13     6     7    1
    14     7     8    1
    15     8     9    2
    16     9    10    1
    17    10    11    2
    18    11     2    1
    19    18    12   ar
    20    11     6    1
@<TRIPOS>MOLECULE
*****
 18 20 0 0 0
SMALL
GASTEIGER

@<TRIPOS>ATOM
      1 O          -9.2233  -15.5077   24.7950 O.2     1  UNL1       -0.2376
      2 C          -9.0267  -16.4451   23.6406 C.2     1  UNL1        0.3788
      3 N          -7.6543  -16.9541   23.3131 N.am    1  UNL1        0.0364
      4 C          -7.4577  -17.8914   22.1587 C.2     1  UNL1        0.3688
      5 N          -8.6336  -18.3198   21.3317 N.2     1  UNL1       -0.0400
      6 C         -10.0061  -17.8108   21.6592 C.2     1  UNL1        0.1818
      7 C         -11.1819  -18.2391   20.8322 C.3     1  UNL1        0.1000
      8 C         -12.5543  -17.7301   21.1597 C.2     1  UNL1       -0.0174
      9 C         -12.7509  -16.7927   22.3142 C.2     1  UNL1       -0.0038
     10 C         -11.5751  -16.3644   23.1411 C.2     1  UNL1        0.0101
     11 C         -10.2027  -16.8734   22.8136 C.2     1  UNL1        0.1209
     12 C          -6.0852  -18.4005   21.8312 C.ar    1  UNL1        0.0865
     13 C          -4.9459  -18.1443   22.7726 C.ar    1  UNL1        0.0080
     14 C          -3.5735  -18.6533   22.4451 C.ar    1  UNL1        0.0069
     15 C          -3.3403  -19.4185   21.1762 C.ar    1  UNL1        0.0346
     16 BR         -1.9678  -19.9275   20.8487 Br      1  UNL1       -0.0490
     17 C          -4.4796  -19.6747   20.2348 C.ar    1  UNL1        0.0069
     18 C          -5.8521  -19.1657   20.5623 C.ar    1  UNL1        0.0080
@<TRIPOS>BOND
     1     1     2    2
     2     2     3    1
     3     3     4    2
     4     4    12    1
     5    12    13   ar
     6    13    14   ar
     7    14    15   ar
     8    15    16    1
     9    15    17   ar
    10    17    18   ar
    11     4     5    1
    12     5     6    2
    13     6     7    1
    14     7     8    1
    15     8     9    2
    16     9    10    1
    17    10    11    2
    18    11     2    1
    19    18    12   ar
    20    11     6    1
@<TRIPOS>MOLECULE
*****
 18 20 0 0 0
SMALL
GASTEIGER

@<TRIPOS>ATOM
      1 O         -13.1739   -2.7311   19.8364 O.2     1  UNL1       -0.2376
      2 C         -13.3056   -4.1955   19.5393 C.2     1  UNL1        0.3788
      3 N         -14.6392   -4.8699   19.6681 N.am    1  UNL1        0.0364
      4 C         -14.7710   -6.3343   19.3711 C.2     1  UNL1        0.3688
      5 N         -13.5691   -7.1243   18.9453 N.2     1  UNL1       -0.0400
      6 C         -12.2354   -6.4499   18.8165 C.2     1  UNL1        0.1818
      7 C         -11.0335   -7.2399   18.3907 C.3     1  UNL1        0.1000
      8 C          -9.6999   -6.5655   18.2619 C.2     1  UNL1       -0.0174
      9 C          -9.5682   -5.1012   18.5589 C.2     1  UNL1       -0.0038
     10 C         -10.7700   -4.3112   18.9847 C.2     1  UNL1        0.0101
     11 C         -12.1036   -4.9855   19.1135 C.2     1  UNL1        0.1209
     12 C         -16.1047   -7.0086   19.4998 C.ar    1  UNL1        0.0865
     13 C         -16.1795   -8.4979   19.6624 C.ar    1  UNL1        0.0080
     14 C         -17.5132   -9.1722   19.7912 C.ar    1  UNL1        0.0069
     15 C         -18.7720   -8.3572   19.7574 C.ar    1  UNL1        0.0346
     16 BR        -20.1057   -9.0316   19.8862 Br      1  UNL1       -0.0490
     17 C         -18.6972   -6.8680   19.5948 C.ar    1  UNL1        0.0069
     18 C         -17.3635   -6.1937   19.4660 C.ar    1  UNL1        0.0080
@<TRIPOS>BOND
     1     1     2    2
     2     2     3    1
     3     3     4    2
     4     4    12    1
     5    12    13   ar
     6    13    14   ar
     7    14    15   ar
     8    15    16    1
     9    15    17   ar
    10    17    18   ar
    11     4     5    1
    12     5     6    2
    13     6     7    1
    14     7     8    1
    15     8     9    2
    16     9    10    1
    17    10    11    2
    18    11     2    1
    19    18    12   ar
    20    11     6    1
@<TRIPOS>MOLECULE
*****
 18 20 0 0 0
SMALL
GASTEIGER

@<TRIPOS>ATOM
      1 O          -8.3934  -15.4112   24.3905 O.2     1  UNL1       -0.2376
      2 C          -7.9994  -16.6890   23.7107 C.2     1  UNL1        0.3788
      3 N          -6.6240  -16.8369   23.1309 N.am    1  UNL1        0.0364
      4 C          -6.2300  -18.1147   22.4512 C.2     1  UNL1        0.3688
      5 N          -7.2114  -19.2446   22.3513 N.2     1  UNL1       -0.0400
      6 C          -8.5870  -19.0967   22.9311 C.2     1  UNL1        0.1818
      7 C          -9.5684  -20.2266   22.8312 C.3     1  UNL1        0.1000
      8 C         -10.9439  -20.0787   23.4110 C.2     1  UNL1       -0.0174
      9 C         -11.3379  -18.8009   24.0907 C.2     1  UNL1       -0.0038
     10 C         -10.3564  -17.6710   24.1906 C.2     1  UNL1        0.0101
     11 C          -8.9810  -17.8189   23.6108 C.2     1  UNL1        0.1209
     12 C          -4.8544  -18.2626   21.8714 C.ar    1  UNL1        0.0865
     13 C          -4.6648  -18.9665   20.5606 C.ar    1  UNL1        0.0080
     14 C          -3.2893  -19.1144   19.9808 C.ar    1  UNL1        0.0069
     15 C          -2.1035  -18.5583   20.7120 C.ar    1  UNL1        0.0346
     16 BR         -0.7279  -18.7061   20.1321 Br      1  UNL1       -0.0490
     17 C          -2.2931  -17.8543   22.0228 C.ar    1  UNL1        0.0069
     18 C          -3.6686  -17.7065   22.6026 C.ar    1  UNL1        0.0080
@<TRIPOS>BOND
     1     1     2    2
     2     2     3    1
     3     3     4    2
     4     4    12    1
     5    12    13   ar
     6    13    14   ar
     7    14    15   ar
     8    15    16    1
     9    15    17   ar
    10    17    18   ar
    11     4     5    1
    12     5     6    2
    13     6     7    1
    14     7     8    1
    15     8     9    2
    16     9    10    1
    17    10    11    2
    18    11     2    1
    19    18    12   ar
    20    11     6    1
