@<TRIPOS>MOLECULE
*****
 44 49 0 0 0
SMALL
GASTEIGER

@<TRIPOS>ATOM
      1 N           3.5503   -0.7188   19.5254 N.3     1  UNL1       -0.2688
      2 C           2.1804   -1.2186   19.8776 C.3     1  UNL1        0.0741
      3 C           1.2577   -0.3643   20.6954 C.3     1  UNL1        0.0372
      4 C           1.7048    0.9898   21.1610 C.3     1  UNL1        0.0799
      5 C           3.0746    1.4895   20.8088 C.3     1  UNL1        0.0372
      6 C           3.9973    0.6352   19.9910 C.3     1  UNL1        0.0741
      7 N           0.7821    1.8441   21.9787 N.am    1  UNL1       -0.2618
      8 C          -0.4585    2.5264   21.4834 C.2     1  UNL1        0.3074
      9 O          -0.9942    2.4742   20.0833 O.2     1  UNL1       -0.2523
     10 N          -1.0693    3.2701   22.6339 N.am    1  UNL1       -0.2635
     11 C          -0.2063    3.0475   23.8404 C.3     1  UNL1        0.1192
     12 C           0.9380    2.1661   23.4354 C.3     1  UNL1        0.1191
     13 C          -2.3231    4.0922   22.5863 C.3     1  UNL1        0.0819
     14 C          -2.3769    5.3296   21.7402 C.3     1  UNL1        0.0520
     15 C          -3.6306    6.1516   21.6927 C.3     1  UNL1        0.1439
     16 O          -4.8306    5.7362   22.4911 O.3     1  UNL1       -0.3537
     17 C          -4.7768    4.4988   23.3372 C.3     1  UNL1        0.1439
     18 C          -3.5230    3.6768   23.3848 C.3     1  UNL1        0.0520
     19 C           2.0439    1.6904   24.3302 C.ar    1  UNL1       -0.0026
     20 C           2.9292    2.6844   25.0219 C.ar    1  UNL1       -0.0026
     21 C           4.0351    2.2086   25.9167 C.ar    1  UNL1       -0.0003
     22 C           4.2559    0.7389   26.1196 C.ar    1  UNL1       -0.0000
     23 C           3.3707   -0.2550   25.4279 C.ar    1  UNL1       -0.0003
     24 C           2.2648    0.2207   24.5332 C.ar    1  UNL1       -0.0026
     25 C           4.4730   -1.5732   18.7077 C.3     1  UNL1        0.1003
     26 C           3.9218   -4.4480   19.3647 C.3     1  UNL1        0.0519
     27 C           5.2482   -3.8401   19.7127 C.ar    1  UNL1        0.0598
     28 N           6.2990   -4.6695   20.3893 N.ar    1  UNL1       -0.2160
     29 C           7.6254   -4.0616   20.7374 C.ar    1  UNL1        0.2293
     30 C           7.9010   -2.6243   20.4089 C.ar    1  UNL1        0.0578
     31 C           6.8502   -1.7948   19.7323 C.ar    1  UNL1        0.0031
     32 C           5.5238   -2.4027   19.3843 C.ar    1  UNL1        0.0077
     33 O           8.6762   -4.8912   21.4140 O.3     1  UNL1       -0.4361
     34 C           8.3942   -5.5164   22.7480 C.ar    1  UNL1        0.1472
     35 C           8.8246   -6.9273   23.0210 C.ar    1  UNL1        0.0377
     36 C           8.5427   -7.5525   24.3550 C.ar    1  UNL1        0.0076
     37 C           7.8304   -6.7670   25.4160 C.ar    1  UNL1        0.0533
     38 C           7.4000   -5.3563   25.1429 C.ar    1  UNL1        0.0076
     39 C           7.6819   -4.7310   23.8089 C.ar    1  UNL1        0.0377
     40 C           7.5484   -7.3923   26.7500 C.2     1  UNL1        0.2427
     41 N           7.0291   -8.7976   26.8248 N.am    1  UNL1       -0.3253
     42 O           7.7857   -6.6123   28.0090 O.2     1  UNL1       -0.2704
     43 H           6.8734   -9.3095   25.9984 H       1  UNL1        0.1453
     44 H           6.8441   -9.2080   27.7004 H       1  UNL1        0.1453
@<TRIPOS>BOND
     1    26    27    1
     2    27    28   ar
     3    28    29   ar
     4    29    33    1
     5    33    34    1
     6    34    35   ar
     7    35    36   ar
     8    36    37   ar
     9    37    40    1
    10    40    41   am
    11    40    42    2
    12    37    38   ar
    13    38    39   ar
    14    29    30   ar
    15    30    31   ar
    16    31    32   ar
    17    32    25    1
    18    25     1    1
    19     1     2    1
    20     2     3    1
    21     3     4    1
    22     4     7    1
    23     7     8   am
    24     8     9    2
    25     8    10   am
    26    10    13    1
    27    13    14    1
    28    14    15    1
    29    15    16    1
    30    16    17    1
    31    17    18    1
    32    10    11    1
    33    11    12    1
    34    12    19    1
    35    19    20   ar
    36    20    21   ar
    37    21    22   ar
    38    22    23   ar
    39    23    24   ar
    40     4     5    1
    41     5     6    1
    42    32    27   ar
    43     6     1    1
    44    39    34   ar
    45    12     7    1
    46    24    19   ar
    47    18    13    1
    48    41    43    1
    49    41    44    1
@<TRIPOS>MOLECULE
*****
 44 49 0 0 0
SMALL
GASTEIGER

@<TRIPOS>ATOM
      1 N           1.9754    0.9277   29.1512 N.3     1  UNL1       -0.2688
      2 C           2.1060   -0.4283   29.7793 C.3     1  UNL1        0.0741
      3 C           2.8138   -0.5812   31.0930 C.3     1  UNL1        0.0372
      4 C           3.3910    0.6217   31.7784 C.3     1  UNL1        0.0799
      5 C           3.2604    1.9775   31.1503 C.3     1  UNL1        0.0372
      6 C           2.5526    2.1305   29.8367 C.3     1  UNL1        0.0741
      7 N           4.0989    0.4687   33.0921 N.am    1  UNL1       -0.2618
      8 C           3.7445    1.1675   34.3712 C.2     1  UNL1        0.3074
      9 O           2.6201    2.1420   34.5613 O.2     1  UNL1       -0.2523
     10 N           4.7119    0.7208   35.4269 N.am    1  UNL1       -0.2635
     11 C           5.6642   -0.2541   34.8002 C.3     1  UNL1        0.1192
     12 C           5.2853   -0.4099   33.3572 C.3     1  UNL1        0.1191
     13 C           4.7248    1.1701   36.8579 C.3     1  UNL1        0.0819
     14 C           5.9112    1.9100   37.4010 C.3     1  UNL1        0.0520
     15 C           5.9241    2.3593   38.8321 C.3     1  UNL1        0.1439
     16 O           4.7506    2.0686   39.7200 O.3     1  UNL1       -0.3537
     17 C           3.5642    1.3287   39.1769 C.3     1  UNL1        0.1439
     18 C           3.5514    0.8794   37.7458 C.3     1  UNL1        0.0520
     19 C           5.9723   -1.2898   32.3553 C.ar    1  UNL1       -0.0026
     20 C           6.7764   -0.6781   31.2466 C.ar    1  UNL1       -0.0026
     21 C           7.4634   -1.5580   30.2446 C.ar    1  UNL1       -0.0003
     22 C           7.3463   -3.0496   30.3515 C.ar    1  UNL1       -0.0000
     23 C           6.5422   -3.6613   31.4602 C.ar    1  UNL1       -0.0003
     24 C           5.8553   -2.7814   32.4620 C.ar    1  UNL1       -0.0026
     25 C           1.2676    1.0807   27.8376 C.3     1  UNL1        0.1003
     26 C          -0.1367    1.4338   25.2102 C.3     1  UNL1        0.0519
     27 C           1.3194    1.0749   25.2400 C.ar    1  UNL1        0.0598
     28 N           2.0734    0.8926   23.9562 N.ar    1  UNL1       -0.2160
     29 C           3.5296    0.5338   23.9860 C.ar    1  UNL1        0.2293
     30 C           4.2317    0.3572   25.2997 C.ar    1  UNL1        0.0578
     31 C           3.4777    0.5395   26.5835 C.ar    1  UNL1        0.0031
     32 C           2.0216    0.8984   26.5537 C.ar    1  UNL1        0.0077
     33 O           4.2835    0.3515   22.7021 O.3     1  UNL1       -0.4361
     34 C           4.1988   -0.9499   21.9609 C.ar    1  UNL1        0.1472
     35 C           3.7979   -0.9649   20.5155 C.ar    1  UNL1        0.0377
     36 C           3.7131   -2.2662   19.7743 C.ar    1  UNL1        0.0076
     37 C           4.0293   -3.5525   20.4784 C.ar    1  UNL1        0.0533
     38 C           4.4301   -3.5373   21.9238 C.ar    1  UNL1        0.0076
     39 C           4.5149   -2.2360   22.6650 C.ar    1  UNL1        0.0377
     40 C           3.9445   -4.8538   19.7372 C.2     1  UNL1        0.2427
     41 N           4.5217   -4.9700   18.3575 N.am    1  UNL1       -0.3253
     42 O           3.2826   -6.0388   20.3756 O.2     1  UNL1       -0.2704
     43 H           4.9561   -4.1922   17.9385 H       1  UNL1        0.1453
     44 H           4.4661   -5.8241   17.8710 H       1  UNL1        0.1453
@<TRIPOS>BOND
     1    26    27    1
     2    27    28   ar
     3    28    29   ar
     4    29    33    1
     5    33    34    1
     6    34    35   ar
     7    35    36   ar
     8    36    37   ar
     9    37    40    1
    10    40    41   am
    11    40    42    2
    12    37    38   ar
    13    38    39   ar
    14    29    30   ar
    15    30    31   ar
    16    31    32   ar
    17    32    25    1
    18    25     1    1
    19     1     2    1
    20     2     3    1
    21     3     4    1
    22     4     7    1
    23     7     8   am
    24     8     9    2
    25     8    10   am
    26    10    13    1
    27    13    14    1
    28    14    15    1
    29    15    16    1
    30    16    17    1
    31    17    18    1
    32    10    11    1
    33    11    12    1
    34    12    19    1
    35    19    20   ar
    36    20    21   ar
    37    21    22   ar
    38    22    23   ar
    39    23    24   ar
    40     4     5    1
    41     5     6    1
    42    32    27   ar
    43     6     1    1
    44    39    34   ar
    45    12     7    1
    46    24    19   ar
    47    18    13    1
    48    41    43    1
    49    41    44    1
@<TRIPOS>MOLECULE
*****
 44 49 0 0 0
SMALL
GASTEIGER

@<TRIPOS>ATOM
      1 N           4.6458   -0.6017   18.3542 N.3     1  UNL1       -0.2688
      2 C           3.4178   -0.4212   17.5117 C.3     1  UNL1        0.0741
      3 C           2.3509    0.5432   17.9380 C.3     1  UNL1        0.0372
      4 C           2.5121    1.3272   19.2067 C.3     1  UNL1        0.0799
      5 C           3.7400    1.1467   20.0490 C.3     1  UNL1        0.0372
      6 C           4.8068    0.1822   19.6228 C.3     1  UNL1        0.0741
      7 N           1.4452    2.2916   19.6330 N.am    1  UNL1       -0.2618
      8 C           0.2165    1.9539   20.4243 C.2     1  UNL1        0.3074
      9 O          -0.1612    0.5925   20.9283 O.2     1  UNL1       -0.2523
     10 N          -0.5684    3.2167   20.6231 N.am    1  UNL1       -0.2635
     11 C           0.1753    4.3348   19.9547 C.3     1  UNL1        0.1192
     12 C           1.4197    3.7630   19.3428 C.3     1  UNL1        0.1191
     13 C          -1.8686    3.3397   21.3609 C.3     1  UNL1        0.0819
     14 C          -1.8710    3.6149   22.8354 C.3     1  UNL1        0.0520
     15 C          -3.1712    3.7380   23.5732 C.3     1  UNL1        0.1439
     16 O          -4.4690    3.5857   22.8364 O.3     1  UNL1       -0.3537
     17 C          -4.4664    3.3104   21.3619 C.3     1  UNL1        0.1439
     18 C          -3.1662    3.1874   20.6242 C.3     1  UNL1        0.0520
     19 C           2.4567    4.5284   18.5753 C.ar    1  UNL1       -0.0026
     20 C           3.8417    4.6793   19.1313 C.ar    1  UNL1       -0.0026
     21 C           4.8787    5.4447   18.3639 C.ar    1  UNL1       -0.0003
     22 C           4.5307    6.0591   17.0405 C.ar    1  UNL1       -0.0000
     23 C           3.1457    5.9082   16.4846 C.ar    1  UNL1       -0.0003
     24 C           2.1088    5.1429   17.2519 C.ar    1  UNL1       -0.0026
     25 C           5.7126   -1.5661   17.9279 C.3     1  UNL1        0.1003
     26 C           4.1593   -3.9227   18.9448 C.3     1  UNL1        0.0519
     27 C           5.5527   -3.6724   19.4405 C.ar    1  UNL1        0.0598
     28 N           6.1695   -4.6004   20.4447 N.ar    1  UNL1       -0.2160
     29 C           7.5629   -4.3502   20.9404 C.ar    1  UNL1        0.2293
     30 C           8.3396   -3.1720   20.4320 C.ar    1  UNL1        0.0578
     31 C           7.7228   -2.2440   19.4278 C.ar    1  UNL1        0.0031
     32 C           6.3294   -2.4942   18.9321 C.ar    1  UNL1        0.0077
     33 O           8.1797   -5.2783   21.9446 O.3     1  UNL1       -0.4361
     34 C           7.7777   -5.1964   23.3874 C.ar    1  UNL1        0.1472
     35 C           7.2187   -3.9183   23.9389 C.ar    1  UNL1        0.0377
     36 C           6.8167   -3.8365   25.3817 C.ar    1  UNL1        0.0076
     37 C           6.9737   -5.0327   26.2730 C.ar    1  UNL1        0.0533
     38 C           7.5327   -6.3108   25.7215 C.ar    1  UNL1        0.0076
     39 C           7.9347   -6.3926   24.2787 C.ar    1  UNL1        0.0377
     40 C           6.5718   -4.9509   27.7159 C.2     1  UNL1        0.2427
     41 N           6.7633   -6.1354   28.6161 N.am    1  UNL1       -0.3253
     42 O           5.9783   -3.6847   28.2584 O.2     1  UNL1       -0.2704
     43 H           7.1528   -6.9665   28.2600 H       1  UNL1        0.1453
     44 H           6.4995   -6.0817   29.5631 H       1  UNL1        0.1453
@<TRIPOS>BOND
     1    26    27    1
     2    27    28   ar
     3    28    29   ar
     4    29    33    1
     5    33    34    1
     6    34    35   ar
     7    35    36   ar
     8    36    37   ar
     9    37    40    1
    10    40    41   am
    11    40    42    2
    12    37    38   ar
    13    38    39   ar
    14    29    30   ar
    15    30    31   ar
    16    31    32   ar
    17    32    25    1
    18    25     1    1
    19     1     2    1
    20     2     3    1
    21     3     4    1
    22     4     7    1
    23     7     8   am
    24     8     9    2
    25     8    10   am
    26    10    13    1
    27    13    14    1
    28    14    15    1
    29    15    16    1
    30    16    17    1
    31    17    18    1
    32    10    11    1
    33    11    12    1
    34    12    19    1
    35    19    20   ar
    36    20    21   ar
    37    21    22   ar
    38    22    23   ar
    39    23    24   ar
    40     4     5    1
    41     5     6    1
    42    32    27   ar
    43     6     1    1
    44    39    34   ar
    45    12     7    1
    46    24    19   ar
    47    18    13    1
    48    41    43    1
    49    41    44    1
@<TRIPOS>MOLECULE
*****
 44 49 0 0 0
SMALL
GASTEIGER

@<TRIPOS>ATOM
      1 N           3.3855    1.1319   29.1950 N.3     1  UNL1       -0.2688
      2 C           4.3404    2.0600   29.8857 C.3     1  UNL1        0.0741
      3 C           4.5380    1.9646   31.3695 C.3     1  UNL1        0.0372
      4 C           3.7807    0.9411   32.1627 C.3     1  UNL1        0.0799
      5 C           2.8258    0.0131   31.4721 C.3     1  UNL1        0.0372
      6 C           2.6282    0.1085   29.9882 C.3     1  UNL1        0.0741
      7 N           3.9783    0.8458   33.6466 N.am    1  UNL1       -0.2618
      8 C           3.2209    1.6149   34.6882 C.2     1  UNL1        0.3074
      9 O           2.1330    2.6145   34.4288 O.2     1  UNL1       -0.2523
     10 N           3.7425    1.2090   36.0348 N.am    1  UNL1       -0.2635
     11 C           4.8222    0.1890   35.8254 C.3     1  UNL1        0.1192
     12 C           4.9679   -0.0355   34.3495 C.3     1  UNL1        0.1191
     13 C           3.2677    1.7314   37.3582 C.3     1  UNL1        0.0819
     14 C           2.1763    1.0168   38.0987 C.3     1  UNL1        0.0520
     15 C           1.7015    1.5392   39.4222 C.3     1  UNL1        0.1439
     16 O           2.3181    2.7761   40.0052 O.3     1  UNL1       -0.3537
     17 C           3.4095    3.4906   39.2647 C.3     1  UNL1        0.1439
     18 C           3.8843    2.9682   37.9412 C.3     1  UNL1        0.0520
     19 C           5.9337   -0.9761   33.6919 C.ar    1  UNL1       -0.0026
     20 C           5.4334   -2.2336   33.0449 C.ar    1  UNL1       -0.0026
     21 C           6.3992   -3.1742   32.3873 C.ar    1  UNL1       -0.0003
     22 C           7.8653   -2.8574   32.3766 C.ar    1  UNL1       -0.0000
     23 C           8.3656   -1.6000   33.0236 C.ar    1  UNL1       -0.0003
     24 C           7.3999   -0.6594   33.6812 C.ar    1  UNL1       -0.0026
     25 C           3.1879    1.2273   27.7111 C.3     1  UNL1        0.1003
     26 C           1.9248    0.7346   25.0349 C.3     1  UNL1        0.0519
     27 C           3.0979   -0.0907   25.4739 C.ar    1  UNL1        0.0598
     28 N           3.6395   -1.1623   24.5749 N.ar    1  UNL1       -0.2160
     29 C           4.8126   -1.9876   25.0139 C.ar    1  UNL1        0.2293
     30 C           5.4441   -1.7413   26.3519 C.ar    1  UNL1        0.0578
     31 C           4.9026   -0.6697   27.2510 C.ar    1  UNL1        0.0031
     32 C           3.7295    0.1556   26.8120 C.ar    1  UNL1        0.0077
     33 O           5.3542   -3.0592   24.1147 O.3     1  UNL1       -0.4361
     34 C           5.3668   -2.8557   22.6287 C.ar    1  UNL1        0.1472
     35 C           4.6403   -3.8160   21.7340 C.ar    1  UNL1        0.0377
     36 C           4.6529   -3.6125   20.2479 C.ar    1  UNL1        0.0076
     37 C           5.3919   -2.4488   19.6565 C.ar    1  UNL1        0.0533
     38 C           6.1183   -1.4887   20.5511 C.ar    1  UNL1        0.0076
     39 C           6.1057   -1.6921   22.0372 C.ar    1  UNL1        0.0377
     40 C           5.4045   -2.2454   18.1704 C.2     1  UNL1        0.2427
     41 N           4.1225   -1.9772   17.4392 N.am    1  UNL1       -0.3253
     42 O           6.6991   -2.3101   17.4155 O.2     1  UNL1       -0.2704
     43 H           3.2728   -1.9347   17.9347 H       1  UNL1        0.1453
     44 H           4.1307   -1.8437   16.4639 H       1  UNL1        0.1453
@<TRIPOS>BOND
     1    26    27    1
     2    27    28   ar
     3    28    29   ar
     4    29    33    1
     5    33    34    1
     6    34    35   ar
     7    35    36   ar
     8    36    37   ar
     9    37    40    1
    10    40    41   am
    11    40    42    2
    12    37    38   ar
    13    38    39   ar
    14    29    30   ar
    15    30    31   ar
    16    31    32   ar
    17    32    25    1
    18    25     1    1
    19     1     2    1
    20     2     3    1
    21     3     4    1
    22     4     7    1
    23     7     8   am
    24     8     9    2
    25     8    10   am
    26    10    13    1
    27    13    14    1
    28    14    15    1
    29    15    16    1
    30    16    17    1
    31    17    18    1
    32    10    11    1
    33    11    12    1
    34    12    19    1
    35    19    20   ar
    36    20    21   ar
    37    21    22   ar
    38    22    23   ar
    39    23    24   ar
    40     4     5    1
    41     5     6    1
    42    32    27   ar
    43     6     1    1
    44    39    34   ar
    45    12     7    1
    46    24    19   ar
    47    18    13    1
    48    41    43    1
    49    41    44    1
@<TRIPOS>MOLECULE
*****
 44 49 0 0 0
SMALL
GASTEIGER

@<TRIPOS>ATOM
      1 N           0.6899    2.5879   26.2162 N.3     1  UNL1       -0.2688
      2 C           2.0028    3.0241   25.6364 C.3     1  UNL1        0.0741
      3 C           2.3964    2.5850   24.2571 C.3     1  UNL1        0.0372
      4 C           1.4772    1.7097   23.4578 C.3     1  UNL1        0.0799
      5 C           0.1644    1.2736   24.0376 C.3     1  UNL1        0.0372
      6 C          -0.2293    1.7127   25.4168 C.3     1  UNL1        0.0741
      7 N           1.8708    1.2707   22.0785 N.am    1  UNL1       -0.2618
      8 C           2.8186    0.1570   21.7447 C.2     1  UNL1        0.3074
      9 O           3.5391   -0.7131   22.7314 O.2     1  UNL1       -0.2523
     10 N           2.9193    0.0662   20.2508 N.am    1  UNL1       -0.2635
     11 C           2.0338    1.1237   19.6614 C.3     1  UNL1        0.1192
     12 C           1.3858    1.8681   20.7910 C.3     1  UNL1        0.1191
     13 C           3.7583   -0.9107   19.4815 C.3     1  UNL1        0.0819
     14 C           3.5047   -2.3833   19.6126 C.3     1  UNL1        0.0520
     15 C           4.3436   -3.3601   18.8433 C.3     1  UNL1        0.1439
     16 O           5.4361   -2.8644   17.9428 O.3     1  UNL1       -0.3537
     17 C           5.6896   -1.3918   17.8117 C.3     1  UNL1        0.1439
     18 C           4.8506   -0.4150   18.5811 C.3     1  UNL1        0.0520
     19 C           0.4219    3.0096   20.6566 C.ar    1  UNL1       -0.0026
     20 C           0.9148    4.4230   20.7550 C.ar    1  UNL1       -0.0026
     21 C          -0.0490    5.5645   20.6206 C.ar    1  UNL1       -0.0003
     22 C          -1.5057    5.2926   20.3878 C.ar    1  UNL1       -0.0000
     23 C          -1.9986    3.8794   20.2895 C.ar    1  UNL1       -0.0003
     24 C          -1.0348    2.7379   20.4239 C.ar    1  UNL1       -0.0026
     25 C           0.2963    3.0270   27.5954 C.3     1  UNL1        0.1003
     26 C          -0.7851    0.4890   28.7742 C.3     1  UNL1        0.0519
     27 C           0.4173    1.1464   29.3840 C.ar    1  UNL1        0.0598
     28 N           1.0791    0.5349   30.5832 N.ar    1  UNL1       -0.2160
     29 C           2.2815    1.1923   31.1930 C.ar    1  UNL1        0.2293
     30 C           2.8222    2.4613   30.6037 C.ar    1  UNL1        0.0578
     31 C           2.1605    3.0728   29.4045 C.ar    1  UNL1        0.0031
     32 C           0.9580    2.4154   28.7947 C.ar    1  UNL1        0.0077
     33 O           2.9433    0.5807   32.3923 O.3     1  UNL1       -0.4361
     34 C           3.9026   -0.5594   32.2196 C.ar    1  UNL1        0.1472
     35 C           4.1539   -1.5067   33.3552 C.ar    1  UNL1        0.0377
     36 C           5.1132   -2.6468   33.1824 C.ar    1  UNL1        0.0076
     37 C           5.8212   -2.8396   31.8741 C.ar    1  UNL1        0.0533
     38 C           5.5699   -1.8923   30.7386 C.ar    1  UNL1        0.0076
     39 C           4.6106   -0.7522   30.9113 C.ar    1  UNL1        0.0377
     40 C           6.7806   -3.9797   31.7014 C.2     1  UNL1        0.2427
     41 N           6.5268   -5.2851   32.3955 N.am    1  UNL1       -0.3253
     42 O           7.9936   -3.8145   30.8347 O.2     1  UNL1       -0.2704
     43 H           5.7307   -5.3935   32.9644 H       1  UNL1        0.1453
     44 H           7.1565   -6.0334   32.2822 H       1  UNL1        0.1453
@<TRIPOS>BOND
     1    26    27    1
     2    27    28   ar
     3    28    29   ar
     4    29    33    1
     5    33    34    1
     6    34    35   ar
     7    35    36   ar
     8    36    37   ar
     9    37    40    1
    10    40    41   am
    11    40    42    2
    12    37    38   ar
    13    38    39   ar
    14    29    30   ar
    15    30    31   ar
    16    31    32   ar
    17    32    25    1
    18    25     1    1
    19     1     2    1
    20     2     3    1
    21     3     4    1
    22     4     7    1
    23     7     8   am
    24     8     9    2
    25     8    10   am
    26    10    13    1
    27    13    14    1
    28    14    15    1
    29    15    16    1
    30    16    17    1
    31    17    18    1
    32    10    11    1
    33    11    12    1
    34    12    19    1
    35    19    20   ar
    36    20    21   ar
    37    21    22   ar
    38    22    23   ar
    39    23    24   ar
    40     4     5    1
    41     5     6    1
    42    32    27   ar
    43     6     1    1
    44    39    34   ar
    45    12     7    1
    46    24    19   ar
    47    18    13    1
    48    41    43    1
    49    41    44    1
@<TRIPOS>MOLECULE
*****
 44 49 0 0 0
SMALL
GASTEIGER

@<TRIPOS>ATOM
      1 N           3.2146   -0.7214   19.2872 N.3     1  UNL1       -0.2688
      2 C           3.7246    0.6399   19.6570 C.3     1  UNL1        0.0741
      3 C           2.8353    1.6006   20.3893 C.3     1  UNL1        0.0372
      4 C           1.4359    1.1998   20.7518 C.3     1  UNL1        0.0799
      5 C           0.9260   -0.1614   20.3820 C.3     1  UNL1        0.0372
      6 C           1.8153   -1.1221   19.6497 C.3     1  UNL1        0.0741
      7 N           0.5466    2.1605   21.4841 N.am    1  UNL1       -0.2618
      8 C           0.1583    2.0751   22.9304 C.2     1  UNL1        0.3074
      9 O           0.5911    1.0142   23.8984 O.2     1  UNL1       -0.2523
     10 N          -0.7389    3.2370   23.2389 N.am    1  UNL1       -0.2635
     11 C          -0.9051    4.0405   21.9832 C.3     1  UNL1        0.1192
     12 C          -0.1106    3.3751   20.8987 C.3     1  UNL1        0.1191
     13 C          -1.3607    3.5419   24.5695 C.3     1  UNL1        0.0819
     14 C          -2.8537    3.5901   24.7061 C.3     1  UNL1        0.0520
     15 C          -3.4755    3.8950   26.0367 C.3     1  UNL1        0.1439
     16 O          -2.6043    4.1517   27.2305 O.3     1  UNL1       -0.3537
     17 C          -1.1114    4.1034   27.0938 C.3     1  UNL1        0.1439
     18 C          -0.4896    3.7986   25.7632 C.3     1  UNL1        0.0520
     19 C           0.0062    3.8424   19.4781 C.ar    1  UNL1       -0.0026
     20 C           1.2394    4.5668   19.0258 C.ar    1  UNL1       -0.0026
     21 C           1.3562    5.0341   17.6052 C.ar    1  UNL1       -0.0003
     22 C           0.2398    4.7770   16.6369 C.ar    1  UNL1       -0.0000
     23 C          -0.9934    4.0527   17.0892 C.ar    1  UNL1       -0.0003
     24 C          -1.1102    3.5854   18.5097 C.ar    1  UNL1       -0.0026
     25 C           4.1039   -1.6820   18.5548 C.3     1  UNL1        0.1003
     26 C           3.7812   -4.5510   19.3705 C.3     1  UNL1        0.0519
     27 C           5.0499   -3.8181   19.6917 C.ar    1  UNL1        0.0598
     28 N           6.1573   -4.5197   20.4207 N.ar    1  UNL1       -0.2160
     29 C           7.4261   -3.7868   20.7419 C.ar    1  UNL1        0.2293
     30 C           7.5875   -2.3524   20.3341 C.ar    1  UNL1        0.0578
     31 C           6.4801   -1.6508   19.6051 C.ar    1  UNL1        0.0031
     32 C           5.2113   -2.3837   19.2839 C.ar    1  UNL1        0.0077
     33 O           8.5335   -4.4885   21.4709 O.3     1  UNL1       -0.4361
     34 C           8.2512   -5.1931   22.7646 C.ar    1  UNL1        0.1472
     35 C           7.4753   -4.4976   23.8437 C.ar    1  UNL1        0.0377
     36 C           7.1930   -5.2023   25.1375 C.ar    1  UNL1        0.0076
     37 C           7.6866   -6.6025   25.3521 C.ar    1  UNL1        0.0533
     38 C           8.4625   -7.2979   24.2730 C.ar    1  UNL1        0.0076
     39 C           8.7448   -6.5932   22.9793 C.ar    1  UNL1        0.0377
     40 C           7.4043   -7.3071   26.6458 C.2     1  UNL1        0.2427
     41 N           6.9140   -6.5302   27.8316 N.am    1  UNL1       -0.3253
     42 O           7.6124   -8.7887   26.7538 O.2     1  UNL1       -0.2704
     43 H           6.7775   -5.5578   27.7607 H       1  UNL1        0.1453
     44 H           6.7287   -6.9927   28.6807 H       1  UNL1        0.1453
@<TRIPOS>BOND
     1    26    27    1
     2    27    28   ar
     3    28    29   ar
     4    29    33    1
     5    33    34    1
     6    34    35   ar
     7    35    36   ar
     8    36    37   ar
     9    37    40    1
    10    40    41   am
    11    40    42    2
    12    37    38   ar
    13    38    39   ar
    14    29    30   ar
    15    30    31   ar
    16    31    32   ar
    17    32    25    1
    18    25     1    1
    19     1     2    1
    20     2     3    1
    21     3     4    1
    22     4     7    1
    23     7     8   am
    24     8     9    2
    25     8    10   am
    26    10    13    1
    27    13    14    1
    28    14    15    1
    29    15    16    1
    30    16    17    1
    31    17    18    1
    32    10    11    1
    33    11    12    1
    34    12    19    1
    35    19    20   ar
    36    20    21   ar
    37    21    22   ar
    38    22    23   ar
    39    23    24   ar
    40     4     5    1
    41     5     6    1
    42    32    27   ar
    43     6     1    1
    44    39    34   ar
    45    12     7    1
    46    24    19   ar
    47    18    13    1
    48    41    43    1
    49    41    44    1
@<TRIPOS>MOLECULE
*****
 44 49 0 0 0
SMALL
GASTEIGER

@<TRIPOS>ATOM
      1 N           5.8698   -0.5205   28.3798 N.3     1  UNL1       -0.2688
      2 C           5.8001    0.9759   28.4580 C.3     1  UNL1        0.0741
      3 C           4.8948    1.6333   29.4571 C.3     1  UNL1        0.0372
      4 C           4.0593    0.7943   30.3781 C.3     1  UNL1        0.0799
      5 C           4.1290   -0.7020   30.2998 C.3     1  UNL1        0.0372
      6 C           5.0343   -1.3594   29.3007 C.3     1  UNL1        0.0741
      7 N           3.1540    1.4517   31.3772 N.am    1  UNL1       -0.2618
      8 C           3.5213    1.8388   32.7791 C.2     1  UNL1        0.3074
      9 O           4.8585    1.6364   33.4279 O.2     1  UNL1       -0.2523
     10 N           2.3168    2.4637   33.4182 N.am    1  UNL1       -0.2635
     11 C           1.2049    2.4629   32.4113 C.3     1  UNL1        0.1192
     12 C           1.7224    1.8374   31.1500 C.3     1  UNL1        0.1191
     13 C           2.2380    2.9960   34.8183 C.3     1  UNL1        0.0819
     14 C           2.7859    2.1904   35.9588 C.3     1  UNL1        0.0520
     15 C           2.7071    2.7227   37.3590 C.3     1  UNL1        0.1439
     16 O           2.0803    4.0606   37.6186 O.3     1  UNL1       -0.3537
     17 C           1.5324    4.8661   36.4780 C.3     1  UNL1        0.1439
     18 C           1.6113    4.3338   35.0779 C.3     1  UNL1        0.0520
     19 C           0.9446    1.6335   29.8836 C.ar    1  UNL1       -0.0026
     20 C           0.3143    0.3028   29.5966 C.ar    1  UNL1       -0.0026
     21 C          -0.4634    0.0989   28.3303 C.ar    1  UNL1       -0.0003
     22 C          -0.6108    1.2255   27.3510 C.ar    1  UNL1       -0.0000
     23 C           0.0194    2.5560   27.6380 C.ar    1  UNL1       -0.0003
     24 C           0.7971    2.7600   28.9042 C.ar    1  UNL1       -0.0026
     25 C           6.7751   -1.1779   27.3806 C.3     1  UNL1        0.1003
     26 C           8.1397   -3.5312   26.1157 C.3     1  UNL1        0.0519
     27 C           6.8818   -2.9802   25.5124 C.ar    1  UNL1        0.0598
     28 N           6.3061   -3.6059   24.2766 N.ar    1  UNL1       -0.2160
     29 C           5.0482   -3.0549   23.6733 C.ar    1  UNL1        0.2293
     30 C           4.3659   -1.8783   24.3057 C.ar    1  UNL1        0.0578
     31 C           4.9416   -1.2526   25.5414 C.ar    1  UNL1        0.0031
     32 C           6.1995   -1.8036   26.1448 C.ar    1  UNL1        0.0077
     33 O           4.4726   -3.6806   22.4374 O.3     1  UNL1       -0.4361
     34 C           4.5560   -2.9610   21.1239 C.ar    1  UNL1        0.1472
     35 C           3.3996   -2.1326   20.6478 C.ar    1  UNL1        0.0377
     36 C           3.4831   -1.4130   19.3343 C.ar    1  UNL1        0.0076
     37 C           4.7229   -1.5219   18.4969 C.ar    1  UNL1        0.0533
     38 C           5.8791   -2.3503   18.9731 C.ar    1  UNL1        0.0076
     39 C           5.7957   -3.0699   20.2866 C.ar    1  UNL1        0.0377
     40 C           4.8063   -0.8023   17.1834 C.2     1  UNL1        0.2427
     41 N           5.9266    0.1614   16.9261 N.am    1  UNL1       -0.3253
     42 O           3.7695   -1.0465   16.1274 O.2     1  UNL1       -0.2704
     43 H           6.6071    0.3216   17.6192 H       1  UNL1        0.1453
     44 H           5.9814    0.6337   16.0640 H       1  UNL1        0.1453
@<TRIPOS>BOND
     1    26    27    1
     2    27    28   ar
     3    28    29   ar
     4    29    33    1
     5    33    34    1
     6    34    35   ar
     7    35    36   ar
     8    36    37   ar
     9    37    40    1
    10    40    41   am
    11    40    42    2
    12    37    38   ar
    13    38    39   ar
    14    29    30   ar
    15    30    31   ar
    16    31    32   ar
    17    32    25    1
    18    25     1    1
    19     1     2    1
    20     2     3    1
    21     3     4    1
    22     4     7    1
    23     7     8   am
    24     8     9    2
    25     8    10   am
    26    10    13    1
    27    13    14    1
    28    14    15    1
    29    15    16    1
    30    16    17    1
    31    17    18    1
    32    10    11    1
    33    11    12    1
    34    12    19    1
    35    19    20   ar
    36    20    21   ar
    37    21    22   ar
    38    22    23   ar
    39    23    24   ar
    40     4     5    1
    41     5     6    1
    42    32    27   ar
    43     6     1    1
    44    39    34   ar
    45    12     7    1
    46    24    19   ar
    47    18    13    1
    48    41    43    1
    49    41    44    1
@<TRIPOS>MOLECULE
*****
 44 49 0 0 0
SMALL
GASTEIGER

@<TRIPOS>ATOM
      1 N          -0.7625    2.7772   27.2138 N.3     1  UNL1       -0.2688
      2 C          -0.7992    1.3430   27.6518 C.3     1  UNL1        0.0741
      3 C           0.2096    0.8341   28.6384 C.3     1  UNL1        0.0372
      4 C           1.2551    1.7594   29.1870 C.3     1  UNL1        0.0799
      5 C           1.2917    3.1935   28.7490 C.3     1  UNL1        0.0372
      6 C           0.2829    3.7024   27.7624 C.3     1  UNL1        0.0741
      7 N           2.2638    1.2505   30.1736 N.am    1  UNL1       -0.2618
      8 C           2.1863    1.3895   31.6651 C.2     1  UNL1        0.3074
      9 O           1.0863    2.0618   32.4319 O.2     1  UNL1       -0.2523
     10 N           3.4018    0.7381   32.2552 N.am    1  UNL1       -0.2635
     11 C           4.2306    0.1965   31.1284 C.3     1  UNL1        0.1192
     12 C           3.5273    0.5132   29.8419 C.3     1  UNL1        0.1191
     13 C           3.7307    0.6447   33.7157 C.3     1  UNL1        0.0819
     14 C           3.3375    1.7543   34.6454 C.3     1  UNL1        0.0520
     15 C           3.6664    1.6609   36.1059 C.3     1  UNL1        0.1439
     16 O           4.3886    0.4581   36.6367 O.3     1  UNL1       -0.3537
     17 C           4.7818   -0.6514   35.7069 C.3     1  UNL1        0.1439
     18 C           4.4528   -0.5580   34.2464 C.3     1  UNL1        0.0520
     19 C           4.0038    0.1553   28.4653 C.ar    1  UNL1       -0.0026
     20 C           5.1150    0.9371   27.8295 C.ar    1  UNL1       -0.0026
     21 C           5.5916    0.5793   26.4529 C.ar    1  UNL1       -0.0003
     22 C           4.9570   -0.5603   25.7122 C.ar    1  UNL1       -0.0000
     23 C           3.8459   -1.3420   26.3480 C.ar    1  UNL1       -0.0003
     24 C           3.3693   -0.9842   27.7245 C.ar    1  UNL1       -0.0026
     25 C          -1.7713    3.2862   26.2272 C.3     1  UNL1        0.1003
     26 C          -3.8691    4.1255   24.2537 C.3     1  UNL1        0.0519
     27 C          -2.5552    3.5884   23.7687 C.ar    1  UNL1        0.0598
     28 N          -2.2903    3.4709   22.2970 N.ar    1  UNL1       -0.2160
     29 C          -0.9764    2.9338   21.8120 C.ar    1  UNL1        0.2293
     30 C           0.0725    2.5141   22.7987 C.ar    1  UNL1        0.0578
     31 C          -0.1925    2.6315   24.2704 C.ar    1  UNL1        0.0031
     32 C          -1.5063    3.1687   24.7554 C.ar    1  UNL1        0.0077
     33 O          -0.7115    2.8163   20.3402 O.3     1  UNL1       -0.4361
     34 C           0.3458    1.8765   19.8412 C.ar    1  UNL1        0.1472
     35 C           1.4544    2.3891   18.9703 C.ar    1  UNL1        0.0377
     36 C           2.5117    1.4494   18.4713 C.ar    1  UNL1        0.0076
     37 C           2.4604   -0.0029   18.8431 C.ar    1  UNL1        0.0533
     38 C           1.3518   -0.5155   19.7139 C.ar    1  UNL1        0.0076
     39 C           0.2945    0.4243   20.2129 C.ar    1  UNL1        0.0377
     40 C           3.5176   -0.9427   18.3440 C.2     1  UNL1        0.2427
     41 N           3.7433   -1.1030   16.8697 N.am    1  UNL1       -0.3253
     42 O           4.3492   -1.7221   19.3192 O.2     1  UNL1       -0.2704
     43 H           3.1975   -0.5914   16.2297 H       1  UNL1        0.1453
     44 H           4.4373   -1.7198   16.5422 H       1  UNL1        0.1453
@<TRIPOS>BOND
     1    26    27    1
     2    27    28   ar
     3    28    29   ar
     4    29    33    1
     5    33    34    1
     6    34    35   ar
     7    35    36   ar
     8    36    37   ar
     9    37    40    1
    10    40    41   am
    11    40    42    2
    12    37    38   ar
    13    38    39   ar
    14    29    30   ar
    15    30    31   ar
    16    31    32   ar
    17    32    25    1
    18    25     1    1
    19     1     2    1
    20     2     3    1
    21     3     4    1
    22     4     7    1
    23     7     8   am
    24     8     9    2
    25     8    10   am
    26    10    13    1
    27    13    14    1
    28    14    15    1
    29    15    16    1
    30    16    17    1
    31    17    18    1
    32    10    11    1
    33    11    12    1
    34    12    19    1
    35    19    20   ar
    36    20    21   ar
    37    21    22   ar
    38    22    23   ar
    39    23    24   ar
    40     4     5    1
    41     5     6    1
    42    32    27   ar
    43     6     1    1
    44    39    34   ar
    45    12     7    1
    46    24    19   ar
    47    18    13    1
    48    41    43    1
    49    41    44    1
@<TRIPOS>MOLECULE
*****
 44 49 0 0 0
SMALL
GASTEIGER

@<TRIPOS>ATOM
      1 N           2.3761    0.7981   29.2343 N.3     1  UNL1       -0.2688
      2 C           2.3782   -0.4807   30.0184 C.3     1  UNL1        0.0741
      3 C           2.8387   -0.4844   31.4460 C.3     1  UNL1        0.0372
      4 C           3.2972    0.7908   32.0894 C.3     1  UNL1        0.0799
      5 C           3.2951    2.0695   31.3053 C.3     1  UNL1        0.0372
      6 C           2.8345    2.0731   29.8777 C.3     1  UNL1        0.0741
      7 N           3.7577    0.7871   33.5169 N.am    1  UNL1       -0.2618
      8 C           3.1804    1.6080   34.6317 C.2     1  UNL1        0.3074
      9 O           2.0411    2.5768   34.5147 O.2     1  UNL1       -0.2523
     10 N           3.9423    1.2902   35.8841 N.am    1  UNL1       -0.2635
     11 C           4.9905    0.2728   35.5434 C.3     1  UNL1        0.1192
     12 C           4.8764   -0.0381   34.0804 C.3     1  UNL1        0.1191
     13 C           3.6987    1.8853   37.2393 C.3     1  UNL1        0.0819
     14 C           4.7871    2.6551   37.9270 C.3     1  UNL1        0.0520
     15 C           4.5435    3.2501   39.2822 C.3     1  UNL1        0.1439
     16 O           3.2116    3.0754   39.9497 O.3     1  UNL1       -0.3537
     17 C           2.1233    2.3056   39.2620 C.3     1  UNL1        0.1439
     18 C           2.3669    1.7105   37.9068 C.3     1  UNL1        0.0520
     19 C           5.7310   -1.0046   33.3152 C.ar    1  UNL1       -0.0026
     20 C           5.2837   -2.4257   33.1402 C.ar    1  UNL1       -0.0026
     21 C           6.1383   -3.3922   32.3750 C.ar    1  UNL1       -0.0003
     22 C           7.4402   -2.9376   31.7848 C.ar    1  UNL1       -0.0000
     23 C           7.8875   -1.5166   31.9597 C.ar    1  UNL1       -0.0003
     24 C           7.0330   -0.5502   32.7248 C.ar    1  UNL1       -0.0026
     25 C           1.9156    0.8017   27.8067 C.3     1  UNL1        0.1003
     26 C          -0.9014   -0.0380   28.4066 C.3     1  UNL1        0.0519
     27 C          -0.6402    1.2542   27.6910 C.ar    1  UNL1        0.0598
     28 N          -1.7875    2.1265   27.2753 N.ar    1  UNL1       -0.2160
     29 C          -1.5263    3.4187   26.5597 C.ar    1  UNL1        0.2293
     30 C          -0.1179    3.8385   26.2598 C.ar    1  UNL1        0.0578
     31 C           1.0294    2.9662   26.6755 C.ar    1  UNL1        0.0031
     32 C           0.7682    1.6741   27.3911 C.ar    1  UNL1        0.0077
     33 O          -2.6736    4.2910   26.1440 O.3     1  UNL1       -0.4361
     34 C          -3.2694    4.1448   24.7752 C.ar    1  UNL1        0.1472
     35 C          -4.5512    3.3874   24.5921 C.ar    1  UNL1        0.0377
     36 C          -5.1470    3.2412   23.2233 C.ar    1  UNL1        0.0076
     37 C          -4.4610    3.8523   22.0375 C.ar    1  UNL1        0.0533
     38 C          -3.1792    4.6096   22.2206 C.ar    1  UNL1        0.0076
     39 C          -2.5834    4.7558   23.5894 C.ar    1  UNL1        0.0377
     40 C          -5.0567    3.7060   20.6687 C.2     1  UNL1        0.2427
     41 N          -4.1985    3.2642   19.5205 N.am    1  UNL1       -0.3253
     42 O          -6.5106    4.0016   20.4481 O.2     1  UNL1       -0.2704
     43 H          -3.2442    3.0702   19.6653 H       1  UNL1        0.1453
     44 H          -4.5895    3.1682   18.6221 H       1  UNL1        0.1453
@<TRIPOS>BOND
     1    26    27    1
     2    27    28   ar
     3    28    29   ar
     4    29    33    1
     5    33    34    1
     6    34    35   ar
     7    35    36   ar
     8    36    37   ar
     9    37    40    1
    10    40    41   am
    11    40    42    2
    12    37    38   ar
    13    38    39   ar
    14    29    30   ar
    15    30    31   ar
    16    31    32   ar
    17    32    25    1
    18    25     1    1
    19     1     2    1
    20     2     3    1
    21     3     4    1
    22     4     7    1
    23     7     8   am
    24     8     9    2
    25     8    10   am
    26    10    13    1
    27    13    14    1
    28    14    15    1
    29    15    16    1
    30    16    17    1
    31    17    18    1
    32    10    11    1
    33    11    12    1
    34    12    19    1
    35    19    20   ar
    36    20    21   ar
    37    21    22   ar
    38    22    23   ar
    39    23    24   ar
    40     4     5    1
    41     5     6    1
    42    32    27   ar
    43     6     1    1
    44    39    34   ar
    45    12     7    1
    46    24    19   ar
    47    18    13    1
    48    41    43    1
    49    41    44    1
