@<TRIPOS>MOLECULE
*****
 27 30 0 0 0
SMALL
GASTEIGER

@<TRIPOS>ATOM
      1 C          -7.4120  -17.1165   23.1022 C.2     1  UNL1        0.0020
      2 C          -8.6251  -17.3174   22.2430 C.2     1  UNL1        0.0130
      3 C          -9.9669  -16.8433   22.7173 C.3     1  UNL1        0.1542
      4 C          -9.8382  -17.5182   21.3839 C.3     1  UNL1        0.0614
      5 C         -11.0513  -17.7190   20.5249 C.3     1  UNL1        0.0725
      6 N         -12.3930  -17.2450   20.9992 N.3     1  UNL1       -0.2972
      7 C         -12.5217  -16.5701   22.3325 C.3     1  UNL1        0.0725
      8 C         -11.3086  -16.3693   23.1916 C.3     1  UNL1        0.0614
      9 O         -10.0955  -16.1684   24.0508 O.3     1  UNL1       -0.4785
     10 C          -8.8824  -15.9676   24.9098 C.ar    1  UNL1        0.1386
     11 C          -9.0111  -15.2927   26.2433 C.ar    1  UNL1        0.0369
     12 C          -7.7980  -15.0919   27.1024 C.ar    1  UNL1        0.0031
     13 C          -6.4563  -15.5659   26.6281 C.ar    1  UNL1        0.0002
     14 C          -6.3276  -16.2408   25.2947 C.ar    1  UNL1        0.0030
     15 C          -7.5407  -16.4417   24.4355 C.ar    1  UNL1        0.0338
     16 H         -13.0026  -18.0625   21.0228 H       1  UNL1        0.1233
     17 C          -3.3867  -18.5387   21.6793 C.ar    1  UNL1        0.0536
     18 C          -4.6378  -19.0845   21.0575 C.ar    1  UNL1        0.0045
     19 C          -5.9796  -18.6105   21.5318 C.ar    1  UNL1        0.0001
     20 C          -6.0702  -17.5906   22.6279 C.ar    1  UNL1       -0.0001
     21 C          -4.8191  -17.0446   23.2497 C.ar    1  UNL1        0.0001
     22 C          -3.4773  -17.5187   22.7754 C.ar    1  UNL1        0.0045
     23 C           0.2370  -18.5288   20.0611 C.3     1  UNL1        0.1152
     24 N          -1.1048  -18.0548   20.5354 N.am    1  UNL1       -0.2726
     25 C          -1.5063  -16.6227   20.3400 C.3     1  UNL1        0.1152
     26 C          -2.0450  -19.0127   21.2050 C.2     1  UNL1        0.2491
     27 O          -1.6434  -20.4447   21.4003 O.2     1  UNL1       -0.2699
@<TRIPOS>BOND
     1    23    24    1
     2    24    25    1
     3    24    26   am
     4    26    27    2
     5    26    17    1
     6    17    18   ar
     7    18    19   ar
     8    19    20   ar
     9    20     1    1
    10     1     2    2
    11     2     3    1
    12     3     4    1
    13     4     5    1
    14     5     6    1
    15     6     7    1
    16     7     8    1
    17     3     9    1
    18     9    10    1
    19    10    11   ar
    20    11    12   ar
    21    12    13   ar
    22    13    14   ar
    23    14    15   ar
    24    20    21   ar
    25    21    22   ar
    26    22    17   ar
    27    15     1    1
    28     8     3    1
    29    15    10   ar
    30     6    16    1
@<TRIPOS>MOLECULE
*****
 27 30 0 0 0
SMALL
GASTEIGER

@<TRIPOS>ATOM
      1 C          -7.4474  -17.9274   22.7559 C.2     1  UNL1        0.0020
      2 C          -6.6677  -18.8513   21.8679 C.2     1  UNL1        0.0130
      3 C          -5.1692  -18.7866   21.8495 C.3     1  UNL1        0.1542
      4 C          -5.8879  -19.7751   20.9799 C.3     1  UNL1        0.0614
      5 C          -5.1081  -20.6990   20.0920 C.3     1  UNL1        0.0725
      6 N          -3.6097  -20.6343   20.0737 N.3     1  UNL1       -0.2972
      7 C          -2.8909  -19.6458   20.9433 C.3     1  UNL1        0.0725
      8 C          -3.6707  -18.7220   21.8312 C.3     1  UNL1        0.0614
      9 O          -4.4505  -17.7981   22.7192 O.3     1  UNL1       -0.4785
     10 C          -5.2302  -16.8742   23.6071 C.ar    1  UNL1        0.1386
     11 C          -4.5115  -15.8856   24.4768 C.ar    1  UNL1        0.0369
     12 C          -5.2913  -14.9618   25.3647 C.ar    1  UNL1        0.0031
     13 C          -6.7898  -15.0265   25.3830 C.ar    1  UNL1        0.0002
     14 C          -7.5085  -16.0150   24.5134 C.ar    1  UNL1        0.0030
     15 C          -6.7287  -16.9389   23.6254 C.ar    1  UNL1        0.0338
     16 H          -3.3353  -20.4344   19.1118 H       1  UNL1        0.1233
     17 C         -11.9429  -18.1215   22.8109 C.ar    1  UNL1        0.0536
     18 C         -11.1356  -19.3603   23.0627 C.ar    1  UNL1        0.0045
     19 C          -9.6371  -19.2956   23.0444 C.ar    1  UNL1        0.0001
     20 C          -8.9459  -17.9921   22.7742 C.ar    1  UNL1       -0.0001
     21 C          -9.7533  -16.7532   22.5223 C.ar    1  UNL1        0.0001
     22 C         -11.2517  -16.8179   22.5406 C.ar    1  UNL1        0.0045
     23 C         -15.6653  -18.4710   24.1418 C.3     1  UNL1        0.1152
     24 N         -14.1668  -18.4063   24.1235 N.am    1  UNL1       -0.2726
     25 C         -13.3938  -18.5618   25.3996 C.3     1  UNL1        0.1152
     26 C         -13.4414  -18.1861   22.8292 C.2     1  UNL1        0.2491
     27 O         -14.2145  -18.0307   21.5531 O.2     1  UNL1       -0.2699
@<TRIPOS>BOND
     1    23    24    1
     2    24    25    1
     3    24    26   am
     4    26    27    2
     5    26    17    1
     6    17    18   ar
     7    18    19   ar
     8    19    20   ar
     9    20     1    1
    10     1     2    2
    11     2     3    1
    12     3     4    1
    13     4     5    1
    14     5     6    1
    15     6     7    1
    16     7     8    1
    17     3     9    1
    18     9    10    1
    19    10    11   ar
    20    11    12   ar
    21    12    13   ar
    22    13    14   ar
    23    14    15   ar
    24    20    21   ar
    25    21    22   ar
    26    22    17   ar
    27    15     1    1
    28     8     3    1
    29    15    10   ar
    30     6    16    1
@<TRIPOS>MOLECULE
*****
 27 30 0 0 0
SMALL
GASTEIGER

@<TRIPOS>ATOM
      1 C           6.7484   -3.9832   24.4225 C.2     1  UNL1        0.0020
      2 C           6.3372   -3.1846   25.6239 C.2     1  UNL1        0.0130
      3 C           6.7191   -3.6475   26.9986 C.3     1  UNL1        0.1542
      4 C           5.9262   -2.3862   26.8253 C.3     1  UNL1        0.0614
      5 C           5.5151   -1.5877   28.0267 C.3     1  UNL1        0.0725
      6 N           5.8970   -2.0506   29.4015 N.3     1  UNL1       -0.2972
      7 C           6.6900   -3.3120   29.5748 C.3     1  UNL1        0.0725
      8 C           7.1011   -4.1104   28.3734 C.3     1  UNL1        0.0614
      9 O           7.5122   -4.9090   27.1719 O.3     1  UNL1       -0.4785
     10 C           7.9232   -5.7074   25.9705 C.ar    1  UNL1        0.1386
     11 C           8.7163   -6.9689   26.1438 C.ar    1  UNL1        0.0369
     12 C           9.1273   -7.7674   24.9424 C.ar    1  UNL1        0.0031
     13 C           8.7454   -7.3044   23.5676 C.ar    1  UNL1        0.0002
     14 C           7.9525   -6.0431   23.3943 C.ar    1  UNL1        0.0030
     15 C           7.5413   -5.2445   24.5958 C.ar    1  UNL1        0.0338
     16 H           5.0287   -2.1748   29.9221 H       1  UNL1        0.1233
     17 C           5.6026   -2.5945   20.2983 C.ar    1  UNL1        0.0536
     18 C           4.6461   -3.4234   21.1033 C.ar    1  UNL1        0.0045
     19 C           5.0280   -3.8863   22.4780 C.ar    1  UNL1        0.0001
     20 C           6.3664   -3.5203   23.0477 C.ar    1  UNL1       -0.0001
     21 C           7.3230   -2.6913   22.2428 C.ar    1  UNL1        0.0001
     22 C           6.9411   -2.2284   20.8681 C.ar    1  UNL1        0.0045
     23 C           3.9717   -0.4565   17.3796 C.3     1  UNL1        0.1152
     24 N           4.3536   -0.9194   18.7543 N.am    1  UNL1       -0.2726
     25 C           3.8683   -0.1701   19.9598 C.3     1  UNL1        0.1152
     26 C           5.2207   -2.1316   18.9236 C.2     1  UNL1        0.2491
     27 O           5.7060   -2.8809   17.7181 O.2     1  UNL1       -0.2699
@<TRIPOS>BOND
     1    23    24    1
     2    24    25    1
     3    24    26   am
     4    26    27    2
     5    26    17    1
     6    17    18   ar
     7    18    19   ar
     8    19    20   ar
     9    20     1    1
    10     1     2    2
    11     2     3    1
    12     3     4    1
    13     4     5    1
    14     5     6    1
    15     6     7    1
    16     7     8    1
    17     3     9    1
    18     9    10    1
    19    10    11   ar
    20    11    12   ar
    21    12    13   ar
    22    13    14   ar
    23    14    15   ar
    24    20    21   ar
    25    21    22   ar
    26    22    17   ar
    27    15     1    1
    28     8     3    1
    29    15    10   ar
    30     6    16    1
@<TRIPOS>MOLECULE
*****
 27 30 0 0 0
SMALL
GASTEIGER

@<TRIPOS>ATOM
      1 C          -1.8231    3.2521   26.1408 C.2     1  UNL1        0.0020
      2 C          -3.0896    3.9888   26.4623 C.2     1  UNL1        0.0130
      3 C          -3.9218    4.5677   25.3566 C.3     1  UNL1        0.1542
      4 C          -4.3561    4.7255   26.7837 C.3     1  UNL1        0.0614
      5 C          -5.6225    5.4622   27.1051 C.3     1  UNL1        0.0725
      6 N          -6.4547    6.0411   25.9994 N.3     1  UNL1       -0.2972
      7 C          -6.0204    5.8834   24.5724 C.3     1  UNL1        0.0725
      8 C          -4.7539    5.1466   24.2510 C.3     1  UNL1        0.0614
      9 O          -3.4874    4.4099   23.9295 O.3     1  UNL1       -0.4785
     10 C          -2.2210    3.6732   23.6081 C.ar    1  UNL1        0.1386
     11 C          -1.7866    3.5154   22.1811 C.ar    1  UNL1        0.0369
     12 C          -0.5202    2.7787   21.8597 C.ar    1  UNL1        0.0031
     13 C           0.3120    2.1998   22.9653 C.ar    1  UNL1        0.0002
     14 C          -0.1223    2.3576   24.3923 C.ar    1  UNL1        0.0030
     15 C          -1.3888    3.0943   24.7138 C.ar    1  UNL1        0.0338
     16 H          -6.5242    7.0432   26.1770 H       1  UNL1        0.1233
     17 C           0.6733    1.5153   29.4577 C.ar    1  UNL1        0.0536
     18 C          -0.5020    0.7510   28.9245 C.ar    1  UNL1        0.0045
     19 C          -1.3342    1.3299   27.8189 C.ar    1  UNL1        0.0001
     20 C          -0.9910    2.6732   27.2464 C.ar    1  UNL1       -0.0001
     21 C           0.1844    3.4376   27.7796 C.ar    1  UNL1        0.0001
     22 C           1.0165    2.8587   28.8852 C.ar    1  UNL1        0.0045
     23 C           3.3356   -0.7216   31.3702 C.3     1  UNL1        0.1152
     24 N           2.5035   -0.1427   30.2646 N.am    1  UNL1       -0.2726
     25 C           2.6694   -0.6430   28.8602 C.3     1  UNL1        0.1152
     26 C           1.5054    0.9364   30.5633 C.2     1  UNL1        0.2491
     27 O           1.3395    1.4367   31.9677 O.2     1  UNL1       -0.2699
@<TRIPOS>BOND
     1    23    24    1
     2    24    25    1
     3    24    26   am
     4    26    27    2
     5    26    17    1
     6    17    18   ar
     7    18    19   ar
     8    19    20   ar
     9    20     1    1
    10     1     2    2
    11     2     3    1
    12     3     4    1
    13     4     5    1
    14     5     6    1
    15     6     7    1
    16     7     8    1
    17     3     9    1
    18     9    10    1
    19    10    11   ar
    20    11    12   ar
    21    12    13   ar
    22    13    14   ar
    23    14    15   ar
    24    20    21   ar
    25    21    22   ar
    26    22    17   ar
    27    15     1    1
    28     8     3    1
    29    15    10   ar
    30     6    16    1
@<TRIPOS>MOLECULE
*****
 27 30 0 0 0
SMALL
GASTEIGER

@<TRIPOS>ATOM
      1 C           3.3933   -1.1708   21.8628 C.2     1  UNL1        0.0020
      2 C           3.7911   -1.3413   23.2991 C.2     1  UNL1        0.0130
      3 C           4.8687   -2.3173   23.6680 C.3     1  UNL1        0.1542
      4 C           4.1889   -1.5118   24.7352 C.3     1  UNL1        0.0614
      5 C           4.5867   -1.6824   26.1714 C.3     1  UNL1        0.0725
      6 N           5.6643   -2.6584   26.5404 N.3     1  UNL1       -0.2972
      7 C           6.3441   -3.4639   25.4732 C.3     1  UNL1        0.0725
      8 C           5.9463   -3.2934   24.0370 C.3     1  UNL1        0.0614
      9 O           5.5485   -3.1229   22.6007 O.3     1  UNL1       -0.4785
     10 C           5.1507   -2.9524   21.1646 C.ar    1  UNL1        0.1386
     11 C           5.8305   -3.7579   20.0973 C.ar    1  UNL1        0.0369
     12 C           5.4327   -3.5874   18.6611 C.ar    1  UNL1        0.0031
     13 C           4.3551   -2.6114   18.2921 C.ar    1  UNL1        0.0002
     14 C           3.6753   -1.8059   19.3593 C.ar    1  UNL1        0.0030
     15 C           4.0731   -1.9763   20.7956 C.ar    1  UNL1        0.0338
     16 H           5.2483   -3.3241   27.1916 H       1  UNL1        0.1233
     17 C           0.1604    1.7572   20.7559 C.ar    1  UNL1        0.0536
     18 C           1.3025    2.1939   21.6248 C.ar    1  UNL1        0.0045
     19 C           2.3801    1.2179   21.9937 C.ar    1  UNL1        0.0001
     20 C           2.3157   -0.1948   21.4938 C.ar    1  UNL1       -0.0001
     21 C           1.1736   -0.6316   20.6249 C.ar    1  UNL1        0.0001
     22 C           0.0960    0.3444   20.2560 C.ar    1  UNL1        0.0045
     23 C          -1.8950    4.4893   18.7407 C.3     1  UNL1        0.1152
     24 N          -0.8173    3.5133   19.1097 N.am    1  UNL1       -0.2726
     25 C           0.3602    3.3173   18.2012 C.3     1  UNL1        0.1152
     26 C          -0.9172    2.7332   20.3870 C.2     1  UNL1        0.2491
     27 O          -2.0947    2.9292   21.2954 O.2     1  UNL1       -0.2699
@<TRIPOS>BOND
     1    23    24    1
     2    24    25    1
     3    24    26   am
     4    26    27    2
     5    26    17    1
     6    17    18   ar
     7    18    19   ar
     8    19    20   ar
     9    20     1    1
    10     1     2    2
    11     2     3    1
    12     3     4    1
    13     4     5    1
    14     5     6    1
    15     6     7    1
    16     7     8    1
    17     3     9    1
    18     9    10    1
    19    10    11   ar
    20    11    12   ar
    21    12    13   ar
    22    13    14   ar
    23    14    15   ar
    24    20    21   ar
    25    21    22   ar
    26    22    17   ar
    27    15     1    1
    28     8     3    1
    29    15    10   ar
    30     6    16    1
@<TRIPOS>MOLECULE
*****
 27 30 0 0 0
SMALL
GASTEIGER

@<TRIPOS>ATOM
      1 C          -8.6882  -18.4123   21.6000 C.2     1  UNL1        0.0020
      2 C          -9.4429  -17.4537   20.7271 C.2     1  UNL1        0.0130
      3 C         -10.9156  -17.2545   20.9304 C.3     1  UNL1        0.1542
      4 C         -10.1975  -16.4953   19.8543 C.3     1  UNL1        0.0614
      5 C         -10.9522  -15.5368   18.9815 C.3     1  UNL1        0.0725
      6 N         -12.4249  -15.3375   19.1848 N.3     1  UNL1       -0.2972
      7 C         -13.1430  -16.0968   20.2608 C.3     1  UNL1        0.0725
      8 C         -12.3883  -17.0552   21.1336 C.3     1  UNL1        0.0614
      9 O         -11.6337  -18.0137   22.0065 O.3     1  UNL1       -0.4785
     10 C         -10.8790  -18.9722   22.8792 C.ar    1  UNL1        0.1386
     11 C         -11.5971  -19.7315   23.9554 C.ar    1  UNL1        0.0369
     12 C         -10.8425  -20.6899   24.8281 C.ar    1  UNL1        0.0031
     13 C          -9.3697  -20.8892   24.6249 C.ar    1  UNL1        0.0002
     14 C          -8.6516  -20.1300   23.5489 C.ar    1  UNL1        0.0030
     15 C          -9.4063  -19.1715   22.6760 C.ar    1  UNL1        0.0338
     16 H         -12.8788  -15.5762   18.3031 H       1  UNL1        0.1233
     17 C          -4.2700  -19.0100   20.9902 C.ar    1  UNL1        0.0536
     18 C          -5.2416  -19.4854   19.9510 C.ar    1  UNL1        0.0045
     19 C          -6.7143  -19.2862   20.1543 C.ar    1  UNL1        0.0001
     20 C          -7.2155  -18.6115   21.3967 C.ar    1  UNL1       -0.0001
     21 C          -6.2438  -18.1361   22.4360 C.ar    1  UNL1        0.0001
     22 C          -4.7711  -18.3354   22.2327 C.ar    1  UNL1        0.0045
     23 C          -0.5665  -18.5058   19.6561 C.3     1  UNL1        0.1152
     24 N          -2.0392  -18.3066   19.8594 N.am    1  UNL1       -0.2726
     25 C          -2.7539  -17.2045   19.1350 C.3     1  UNL1        0.1152
     26 C          -2.7972  -19.2093   20.7870 C.2     1  UNL1        0.2491
     27 O          -2.0825  -20.3114   21.5113 O.2     1  UNL1       -0.2699
@<TRIPOS>BOND
     1    23    24    1
     2    24    25    1
     3    24    26   am
     4    26    27    2
     5    26    17    1
     6    17    18   ar
     7    18    19   ar
     8    19    20   ar
     9    20     1    1
    10     1     2    2
    11     2     3    1
    12     3     4    1
    13     4     5    1
    14     5     6    1
    15     6     7    1
    16     7     8    1
    17     3     9    1
    18     9    10    1
    19    10    11   ar
    20    11    12   ar
    21    12    13   ar
    22    13    14   ar
    23    14    15   ar
    24    20    21   ar
    25    21    22   ar
    26    22    17   ar
    27    15     1    1
    28     8     3    1
    29    15    10   ar
    30     6    16    1
@<TRIPOS>MOLECULE
*****
 27 30 0 0 0
SMALL
GASTEIGER

@<TRIPOS>ATOM
      1 C           2.3170   -0.0643   22.3810 C.2     1  UNL1        0.0020
      2 C           3.1909   -1.2786   22.2711 C.2     1  UNL1        0.0130
      3 C           3.5000   -1.8606   20.9236 C.3     1  UNL1        0.1542
      4 C           4.0646   -2.4928   22.1611 C.3     1  UNL1        0.0614
      5 C           4.9384   -3.7070   22.0511 C.3     1  UNL1        0.0725
      6 N           5.2476   -4.2890   20.7036 N.3     1  UNL1       -0.2972
      7 C           4.6830   -3.6567   19.4661 C.3     1  UNL1        0.0725
      8 C           3.8092   -2.4425   19.5761 C.3     1  UNL1        0.0614
      9 O           2.9354   -1.2282   19.6860 O.3     1  UNL1       -0.4785
     10 C           2.0616   -0.0140   19.7961 C.ar    1  UNL1        0.1386
     11 C           1.4970    0.6183   18.5585 C.ar    1  UNL1        0.0369
     12 C           0.6232    1.8325   18.6685 C.ar    1  UNL1        0.0031
     13 C           0.3140    2.4145   20.0160 C.ar    1  UNL1        0.0002
     14 C           0.8786    1.7822   21.2535 C.ar    1  UNL1        0.0030
     15 C           1.7524    0.5679   21.1435 C.ar    1  UNL1        0.0338
     16 H           4.9187   -5.2544   20.7173 H       1  UNL1        0.1233
     17 C           1.3894    1.6815   26.4235 C.ar    1  UNL1        0.0536
     18 C           2.8139    1.4450   26.0176 C.ar    1  UNL1        0.0045
     19 C           3.1231    0.8630   24.6702 C.ar    1  UNL1        0.0001
     20 C           2.0078    0.5176   23.7285 C.ar    1  UNL1       -0.0001
     21 C           0.5832    0.7542   24.1344 C.ar    1  UNL1        0.0001
     22 C           0.2740    1.3361   25.4819 C.ar    1  UNL1        0.0045
     23 C           0.5360    1.9395   30.2907 C.3     1  UNL1        0.1152
     24 N           0.8452    1.3576   28.9432 N.am    1  UNL1       -0.2726
     25 C           0.9193   -0.1304   28.7679 C.3     1  UNL1        0.1152
     26 C           1.0803    2.2635   27.7710 C.2     1  UNL1        0.2491
     27 O           1.0061    3.7514   27.9463 O.2     1  UNL1       -0.2699
@<TRIPOS>BOND
     1    23    24    1
     2    24    25    1
     3    24    26   am
     4    26    27    2
     5    26    17    1
     6    17    18   ar
     7    18    19   ar
     8    19    20   ar
     9    20     1    1
    10     1     2    2
    11     2     3    1
    12     3     4    1
    13     4     5    1
    14     5     6    1
    15     6     7    1
    16     7     8    1
    17     3     9    1
    18     9    10    1
    19    10    11   ar
    20    11    12   ar
    21    12    13   ar
    22    13    14   ar
    23    14    15   ar
    24    20    21   ar
    25    21    22   ar
    26    22    17   ar
    27    15     1    1
    28     8     3    1
    29    15    10   ar
    30     6    16    1
@<TRIPOS>MOLECULE
*****
 27 30 0 0 0
SMALL
GASTEIGER

@<TRIPOS>ATOM
      1 C           0.1635    1.9316   22.1096 C.2     1  UNL1        0.0020
      2 C           0.2579    1.7382   23.5941 C.2     1  UNL1        0.0130
      3 C          -0.6672    2.4857   24.5081 C.3     1  UNL1        0.1542
      4 C           0.3522    1.5449   25.0786 C.3     1  UNL1        0.0614
      5 C           0.4466    1.3516   26.5630 C.3     1  UNL1        0.0725
      6 N          -0.4786    2.0991   27.4770 N.3     1  UNL1       -0.2972
      7 C          -1.4980    3.0399   26.9065 C.3     1  UNL1        0.0725
      8 C          -1.5924    3.2332   25.4221 C.3     1  UNL1        0.0614
      9 O          -1.6867    3.4266   23.9375 O.3     1  UNL1       -0.4785
     10 C          -1.7811    3.6199   22.4531 C.ar    1  UNL1        0.1386
     11 C          -2.8006    4.5608   21.8825 C.ar    1  UNL1        0.0369
     12 C          -2.8949    4.7541   20.3981 C.ar    1  UNL1        0.0031
     13 C          -1.9698    4.0066   19.4841 C.ar    1  UNL1        0.0002
     14 C          -0.9503    3.0658   20.0546 C.ar    1  UNL1        0.0030
     15 C          -0.8559    2.8724   21.5391 C.ar    1  UNL1        0.0338
     16 H           0.1083    2.6470   28.1061 H       1  UNL1        0.1233
     17 C           2.9390   -0.3109   19.3676 C.ar    1  UNL1        0.0536
     18 C           1.6057   -0.8962   19.7277 C.ar    1  UNL1        0.0045
     19 C           0.6806   -0.1487   20.6416 C.ar    1  UNL1        0.0001
     20 C           1.0887    1.1841   21.1956 C.ar    1  UNL1       -0.0001
     21 C           2.4220    1.7695   20.8355 C.ar    1  UNL1        0.0001
     22 C           3.3472    1.0220   19.9216 C.ar    1  UNL1        0.0045
     23 C           5.7948   -2.7623   18.1088 C.3     1  UNL1        0.1152
     24 N           4.8696   -2.0148   19.0228 N.am    1  UNL1       -0.2726
     25 C           4.9501   -2.2239   20.5060 C.3     1  UNL1        0.1152
     26 C           3.8641   -1.0584   18.4536 C.2     1  UNL1        0.2491
     27 O           3.7837   -0.8493   16.9704 O.2     1  UNL1       -0.2699
@<TRIPOS>BOND
     1    23    24    1
     2    24    25    1
     3    24    26   am
     4    26    27    2
     5    26    17    1
     6    17    18   ar
     7    18    19   ar
     8    19    20   ar
     9    20     1    1
    10     1     2    2
    11     2     3    1
    12     3     4    1
    13     4     5    1
    14     5     6    1
    15     6     7    1
    16     7     8    1
    17     3     9    1
    18     9    10    1
    19    10    11   ar
    20    11    12   ar
    21    12    13   ar
    22    13    14   ar
    23    14    15   ar
    24    20    21   ar
    25    21    22   ar
    26    22    17   ar
    27    15     1    1
    28     8     3    1
    29    15    10   ar
    30     6    16    1
@<TRIPOS>MOLECULE
*****
 27 30 0 0 0
SMALL
GASTEIGER

@<TRIPOS>ATOM
      1 C           3.8650    0.7426   34.0993 C.2     1  UNL1        0.0020
      2 C           4.0054    0.9908   35.5720 C.2     1  UNL1        0.0130
      3 C           3.1686    2.0424   36.2383 C.3     1  UNL1        0.1542
      4 C           4.1456    1.2391   37.0446 C.3     1  UNL1        0.0614
      5 C           4.2859    1.4874   38.5172 C.3     1  UNL1        0.0725
      6 N           3.4492    2.5390   39.1836 N.3     1  UNL1       -0.2972
      7 C           2.4722    3.3423   38.3773 C.3     1  UNL1        0.0725
      8 C           2.3319    3.0940   36.9047 C.3     1  UNL1        0.0614
      9 O           2.1916    2.8458   35.4320 O.3     1  UNL1       -0.4785
     10 C           2.0513    2.5975   33.9594 C.ar    1  UNL1        0.1386
     11 C           1.0743    3.4009   33.1530 C.ar    1  UNL1        0.0369
     12 C           0.9340    3.1526   31.6804 C.ar    1  UNL1        0.0031
     13 C           1.7708    2.1010   31.0141 C.ar    1  UNL1        0.0002
     14 C           2.7477    1.2977   31.8203 C.ar    1  UNL1        0.0030
     15 C           2.8881    1.5459   33.2930 C.ar    1  UNL1        0.0338
     16 H           4.0954    3.2030   39.6099 H       1  UNL1        0.1233
     17 C           6.3752   -2.4122   32.1002 C.ar    1  UNL1        0.0536
     18 C           5.2097   -2.8119   32.9557 C.ar    1  UNL1        0.0045
     19 C           4.3730   -1.7602   33.6221 C.ar    1  UNL1        0.0001
     20 C           4.7018   -0.3090   33.4329 C.ar    1  UNL1       -0.0001
     21 C           5.8673    0.0907   32.5774 C.ar    1  UNL1        0.0001
     22 C           6.7040   -0.9609   31.9111 C.ar    1  UNL1        0.0045
     23 C           9.5027   -4.6464   31.1117 C.3     1  UNL1        0.1152
     24 N           8.6660   -3.5948   31.7781 N.am    1  UNL1       -0.2726
     25 C           9.2834   -2.6742   32.7887 C.3     1  UNL1        0.1152
     26 C           7.2119   -3.4638   31.4339 C.2     1  UNL1        0.2491
     27 O           6.5945   -4.3845   30.4232 O.2     1  UNL1       -0.2699
@<TRIPOS>BOND
     1    23    24    1
     2    24    25    1
     3    24    26   am
     4    26    27    2
     5    26    17    1
     6    17    18   ar
     7    18    19   ar
     8    19    20   ar
     9    20     1    1
    10     1     2    2
    11     2     3    1
    12     3     4    1
    13     4     5    1
    14     5     6    1
    15     6     7    1
    16     7     8    1
    17     3     9    1
    18     9    10    1
    19    10    11   ar
    20    11    12   ar
    21    12    13   ar
    22    13    14   ar
    23    14    15   ar
    24    20    21   ar
    25    21    22   ar
    26    22    17   ar
    27    15     1    1
    28     8     3    1
    29    15    10   ar
    30     6    16    1
