@<TRIPOS>MOLECULE
*****
 21 23 0 0 0
SMALL
GASTEIGER

@<TRIPOS>ATOM
      1 C          -9.1764  -17.3999   24.1189 C.2     1  UNL1        0.0376
      2 C          -9.6951  -18.3780   25.1309 C.2     1  UNL1        0.0999
      3 N         -11.0617  -18.8160   24.6941 N.2     1  UNL1       -0.2478
      4 C         -11.3874  -18.1086   23.4121 C.2     1  UNL1        0.0634
      5 C         -12.5945  -18.1484   22.5226 C.3     1  UNL1        0.0719
      6 C         -12.6364  -17.3130   21.2775 C.2     1  UNL1       -0.0153
      7 C         -11.4712  -16.4378   20.9219 C.2     1  UNL1        0.0493
      8 C         -10.2641  -16.3981   21.8115 C.2     1  UNL1        0.0055
      9 C         -10.2222  -17.2335   23.0566 C.2     1  UNL1        0.0170
     10 N          -7.3862  -15.7443   25.2137 N.ar    1  UNL1       -0.3090
     11 C          -5.9969  -15.3013   24.8621 C.ar    1  UNL1        0.1786
     12 N          -5.5975  -15.9930   23.5923 N.ar    1  UNL1       -0.2223
     13 C          -6.7399  -16.8633   23.1594 C.ar    1  UNL1        0.1178
     14 C          -7.8454  -16.7096   24.1615 C.ar    1  UNL1        0.0820
     15 C          -8.2285  -16.1597   27.6362 C.3     1  UNL1        0.0265
     16 C          -8.1774  -15.2998   26.4081 C.3     1  UNL1        0.1077
     17 C         -11.5131  -15.6024   19.6768 C.2     1  UNL1        0.2424
     18 N         -12.7526  -15.5763   18.8325 N.am    1  UNL1       -0.3253
     19 O         -10.3155  -14.7930   19.2760 O.2     1  UNL1       -0.2704
     20 H         -13.5387  -16.1076   19.0955 H       1  UNL1        0.1453
     21 H         -12.7801  -15.0280   18.0152 H       1  UNL1        0.1453
@<TRIPOS>BOND
     1    15    16    1
     2    16    10    1
     3    10    11   ar
     4    11    12   ar
     5    12    13   ar
     6    13    14   ar
     7    14     1    1
     8     1     2    2
     9     2     3    1
    10     3     4    2
    11     4     5    1
    12     5     6    1
    13     6     7    2
    14     7    17    1
    15    17    18   am
    16    17    19    2
    17     7     8    1
    18     8     9    2
    19    14    10   ar
    20     9     1    1
    21     9     4    1
    22    18    20    1
    23    18    21    1
@<TRIPOS>MOLECULE
*****
 21 23 0 0 0
SMALL
GASTEIGER

@<TRIPOS>ATOM
      1 C          -9.1426  -17.2323   24.2339 C.2     1  UNL1        0.0376
      2 C          -9.6188  -18.2285   25.2493 C.2     1  UNL1        0.0999
      3 N         -10.9512  -18.7493   24.7982 N.2     1  UNL1       -0.2478
      4 C         -11.2985  -18.0751   23.5041 C.2     1  UNL1        0.0634
      5 C         -12.4881  -18.1937   22.5982 C.3     1  UNL1        0.0719
      6 C         -12.5600  -17.3748   21.3436 C.2     1  UNL1       -0.0153
      7 C         -11.4423  -16.4373   20.9948 C.2     1  UNL1        0.0493
      8 C         -10.2526  -16.3186   21.9006 C.2     1  UNL1        0.0055
      9 C         -10.1807  -17.1375   23.1553 C.2     1  UNL1        0.0170
     10 N          -6.6400  -16.7220   23.4455 N.ar    1  UNL1       -0.3090
     11 C          -5.5896  -15.7227   23.8303 C.ar    1  UNL1        0.1786
     12 N          -6.1550  -14.8487   24.9103 N.ar    1  UNL1       -0.2223
     13 C          -7.5548  -15.3078   25.1930 C.ar    1  UNL1        0.1178
     14 C          -7.8545  -16.4656   24.2876 C.ar    1  UNL1        0.0820
     15 C          -5.3346  -18.7332   22.4450 C.3     1  UNL1        0.0265
     16 C          -6.5004  -17.7902   22.4018 C.3     1  UNL1        0.1077
     17 C         -11.5142  -15.6183   19.7401 C.2     1  UNL1        0.2424
     18 N         -12.7883  -15.5667   18.9502 N.am    1  UNL1       -0.3253
     19 O         -10.3120  -14.8511   19.2753 O.2     1  UNL1       -0.2704
     20 H         -13.5774  -16.0703   19.2552 H       1  UNL1        0.1453
     21 H         -12.8355  -15.0292   18.1267 H       1  UNL1        0.1453
@<TRIPOS>BOND
     1    15    16    1
     2    16    10    1
     3    10    11   ar
     4    11    12   ar
     5    12    13   ar
     6    13    14   ar
     7    14     1    1
     8     1     2    2
     9     2     3    1
    10     3     4    2
    11     4     5    1
    12     5     6    1
    13     6     7    2
    14     7    17    1
    15    17    18   am
    16    17    19    2
    17     7     8    1
    18     8     9    2
    19    14    10   ar
    20     9     1    1
    21     9     4    1
    22    18    20    1
    23    18    21    1
@<TRIPOS>MOLECULE
*****
 21 23 0 0 0
SMALL
GASTEIGER

@<TRIPOS>ATOM
      1 C          -7.2737  -19.3956   21.5029 C.2     1  UNL1        0.0376
      2 C          -6.2933  -20.3902   20.9557 C.2     1  UNL1        0.0999
      3 N          -4.9224  -19.9907   21.4152 N.2     1  UNL1       -0.2478
      4 C          -5.0557  -18.7491   22.2464 C.2     1  UNL1        0.0634
      5 C          -4.0415  -17.9060   22.9609 C.3     1  UNL1        0.0719
      6 C          -4.4805  -16.6951   23.7296 C.2     1  UNL1       -0.0153
      7 C          -5.9337  -16.3273   23.7838 C.2     1  UNL1        0.0493
      8 C          -6.9479  -17.1704   23.0692 C.2     1  UNL1        0.0055
      9 C          -6.5089  -18.3813   22.3006 C.2     1  UNL1        0.0170
     10 N          -9.7941  -19.7385   22.3245 N.ar    1  UNL1       -0.3090
     11 C         -11.1439  -19.6334   21.6788 C.ar    1  UNL1        0.1786
     12 N         -10.9424  -19.2422   20.2448 N.ar    1  UNL1       -0.2223
     13 C          -9.4681  -19.1055   20.0043 C.ar    1  UNL1        0.1178
     14 C          -8.7584  -19.4122   21.2898 C.ar    1  UNL1        0.0820
     15 C          -9.9476  -19.1799   24.8572 C.3     1  UNL1        0.0265
     16 C          -9.5269  -20.1054   23.7542 C.3     1  UNL1        0.1077
     17 C          -6.3727  -15.1163   24.5525 C.2     1  UNL1        0.2424
     18 N          -7.6251  -14.3911   24.1583 N.am    1  UNL1       -0.3253
     19 O          -5.5593  -14.6307   25.7154 O.2     1  UNL1       -0.2704
     20 H          -8.1590  -14.7099   23.3950 H       1  UNL1        0.1453
     21 H          -7.9133  -13.5963   24.6628 H       1  UNL1        0.1453
@<TRIPOS>BOND
     1    15    16    1
     2    16    10    1
     3    10    11   ar
     4    11    12   ar
     5    12    13   ar
     6    13    14   ar
     7    14     1    1
     8     1     2    2
     9     2     3    1
    10     3     4    2
    11     4     5    1
    12     5     6    1
    13     6     7    2
    14     7    17    1
    15    17    18   am
    16    17    19    2
    17     7     8    1
    18     8     9    2
    19    14    10   ar
    20     9     1    1
    21     9     4    1
    22    18    20    1
    23    18    21    1
@<TRIPOS>MOLECULE
*****
 21 23 0 0 0
SMALL
GASTEIGER

@<TRIPOS>ATOM
      1 C          -8.6035  -19.2426   22.4582 C.2     1  UNL1        0.0376
      2 C          -9.0089  -20.1585   23.5748 C.2     1  UNL1        0.0999
      3 N         -10.4708  -19.9497   23.8380 N.2     1  UNL1       -0.2478
      4 C         -10.9689  -18.9048   22.8840 C.2     1  UNL1        0.0634
      5 C         -12.3242  -18.2948   22.6816 C.3     1  UNL1        0.0719
      6 C         -12.5255  -17.2478   21.6265 C.2     1  UNL1       -0.0153
      7 C         -11.3714  -16.8108   20.7737 C.2     1  UNL1        0.0493
      8 C         -10.0161  -17.4208   20.9761 C.2     1  UNL1        0.0055
      9 C          -9.8149  -18.4678   22.0312 C.2     1  UNL1        0.0170
     10 N          -6.7766  -19.6922   20.5594 N.ar    1  UNL1       -0.3090
     11 C          -5.3324  -19.3337   20.3708 C.ar    1  UNL1        0.1786
     12 N          -4.8914  -18.5424   21.5665 N.ar    1  UNL1       -0.2223
     13 C          -6.0631  -18.4120   22.4939 C.ar    1  UNL1        0.1178
     14 C          -7.2283  -19.1227   21.8714 C.ar    1  UNL1        0.0820
     15 C          -8.6457  -19.7863   18.7572 C.3     1  UNL1        0.0265
     16 C          -7.6210  -20.4818   19.6036 C.3     1  UNL1        0.1077
     17 C         -11.5728  -15.7638   19.7186 C.2     1  UNL1        0.2424
     18 N         -12.9426  -15.5154   19.1602 N.am    1  UNL1       -0.3253
     19 O         -10.4042  -14.9652   19.2219 O.2     1  UNL1       -0.2704
     20 H         -13.7095  -16.0396   19.4862 H       1  UNL1        0.1453
     21 H         -13.0747  -14.8283   18.4677 H       1  UNL1        0.1453
@<TRIPOS>BOND
     1    15    16    1
     2    16    10    1
     3    10    11   ar
     4    11    12   ar
     5    12    13   ar
     6    13    14   ar
     7    14     1    1
     8     1     2    2
     9     2     3    1
    10     3     4    2
    11     4     5    1
    12     5     6    1
    13     6     7    2
    14     7    17    1
    15    17    18   am
    16    17    19    2
    17     7     8    1
    18     8     9    2
    19    14    10   ar
    20     9     1    1
    21     9     4    1
    22    18    20    1
    23    18    21    1
@<TRIPOS>MOLECULE
*****
 21 23 0 0 0
SMALL
GASTEIGER

@<TRIPOS>ATOM
      1 C          -8.9863  -19.0988   23.0584 C.2     1  UNL1        0.0376
      2 C          -9.5629  -19.9314   24.1649 C.2     1  UNL1        0.0999
      3 N         -11.0370  -19.6612   24.2282 N.2     1  UNL1       -0.2478
      4 C         -11.3714  -18.6618   23.1608 C.2     1  UNL1        0.0634
      5 C         -12.6663  -18.0233   22.7539 C.3     1  UNL1        0.0719
      6 C         -12.6937  -17.0373   21.6239 C.2     1  UNL1       -0.0153
      7 C         -11.4262  -16.6897   20.9009 C.2     1  UNL1        0.0493
      8 C         -10.1314  -17.3281   21.3079 C.2     1  UNL1        0.0055
      9 C         -10.1040  -18.3142   22.4378 C.2     1  UNL1        0.0170
     10 N          -6.6026  -17.9082   22.8445 N.ar    1  UNL1       -0.3090
     11 C          -5.2681  -18.2995   22.2822 C.ar    1  UNL1        0.1786
     12 N          -5.3858  -19.6912   21.7352 N.ar    1  UNL1       -0.2223
     13 C          -6.7929  -20.1601   21.9594 C.ar    1  UNL1        0.1178
     14 C          -7.5449  -19.0580   22.6450 C.ar    1  UNL1        0.0820
     15 C          -5.8599  -15.5771   23.7188 C.3     1  UNL1        0.0265
     16 C          -6.9362  -16.5972   23.4925 C.3     1  UNL1        0.1077
     17 C         -11.4537  -15.7036   19.7709 C.2     1  UNL1        0.2424
     18 N         -12.6816  -15.5726   18.9194 N.am    1  UNL1       -0.3253
     19 O         -10.2532  -14.8485   19.4923 O.2     1  UNL1       -0.2704
     20 H         -13.4696  -16.1338   19.1023 H       1  UNL1        0.1453
     21 H         -12.6997  -14.9254   18.1778 H       1  UNL1        0.1453
@<TRIPOS>BOND
     1    15    16    1
     2    16    10    1
     3    10    11   ar
     4    11    12   ar
     5    12    13   ar
     6    13    14   ar
     7    14     1    1
     8     1     2    2
     9     2     3    1
    10     3     4    2
    11     4     5    1
    12     5     6    1
    13     6     7    2
    14     7    17    1
    15    17    18   am
    16    17    19    2
    17     7     8    1
    18     8     9    2
    19    14    10   ar
    20     9     1    1
    21     9     4    1
    22    18    20    1
    23    18    21    1
@<TRIPOS>MOLECULE
*****
 21 23 0 0 0
SMALL
GASTEIGER

@<TRIPOS>ATOM
      1 C          -7.9388  -17.9859   22.1903 C.2     1  UNL1        0.0376
      2 C          -9.0760  -18.5387   21.3833 C.2     1  UNL1        0.0999
      3 N          -8.5187  -19.5588   20.4352 N.2     1  UNL1       -0.2478
      4 C          -7.0371  -19.6364   20.6563 C.2     1  UNL1        0.0634
      5 C          -5.9680  -20.4667   20.0101 C.3     1  UNL1        0.0719
      6 C          -4.5406  -20.3249   20.4485 C.2     1  UNL1       -0.0153
      7 C          -4.1822  -19.3528   21.5332 C.2     1  UNL1        0.0493
      8 C          -5.2513  -18.5225   22.1794 C.2     1  UNL1        0.0055
      9 C          -6.6787  -18.6643   21.7410 C.2     1  UNL1        0.0170
     10 N          -8.8543  -17.0401   24.5167 N.ar    1  UNL1       -0.3090
     11 C          -8.6675  -15.7700   25.2926 C.ar    1  UNL1        0.1786
     12 N          -7.7411  -14.8834   24.5142 N.ar    1  UNL1       -0.2223
     13 C          -7.3554  -15.6056   23.2574 C.ar    1  UNL1        0.1178
     14 C          -8.0434  -16.9385   23.2589 C.ar    1  UNL1        0.0820
     15 C         -11.0822  -18.3673   24.3590 C.3     1  UNL1        0.0265
     16 C          -9.7030  -18.2069   24.9267 C.3     1  UNL1        0.1077
     17 C          -2.7547  -19.2110   21.9717 C.2     1  UNL1        0.2424
     18 N          -2.3319  -18.0168   22.7748 N.am    1  UNL1       -0.3253
     19 O          -1.7500  -20.2634   21.6069 O.2     1  UNL1       -0.2704
     20 H          -2.9913  -17.3260   23.0142 H       1  UNL1        0.1453
     21 H          -1.3950  -17.9237   23.0626 H       1  UNL1        0.1453
@<TRIPOS>BOND
     1    15    16    1
     2    16    10    1
     3    10    11   ar
     4    11    12   ar
     5    12    13   ar
     6    13    14   ar
     7    14     1    1
     8     1     2    2
     9     2     3    1
    10     3     4    2
    11     4     5    1
    12     5     6    1
    13     6     7    2
    14     7    17    1
    15    17    18   am
    16    17    19    2
    17     7     8    1
    18     8     9    2
    19    14    10   ar
    20     9     1    1
    21     9     4    1
    22    18    20    1
    23    18    21    1
@<TRIPOS>MOLECULE
*****
 21 23 0 0 0
SMALL
GASTEIGER

@<TRIPOS>ATOM
      1 C          -8.1063  -17.8170   22.4721 C.2     1  UNL1        0.0376
      2 C          -8.4029  -16.6797   23.4040 C.2     1  UNL1        0.0999
      3 N          -7.1006  -16.1838   23.9591 N.2     1  UNL1       -0.2478
      4 C          -5.9992  -17.0145   23.3703 C.2     1  UNL1        0.0634
      5 C          -4.5107  -16.9823   23.5522 C.3     1  UNL1        0.0719
      6 C          -3.6437  -17.9594   22.8151 C.2     1  UNL1       -0.0153
      7 C          -4.2652  -18.9689   21.8960 C.2     1  UNL1        0.0493
      8 C          -5.7538  -19.0011   21.7141 C.2     1  UNL1        0.0055
      9 C          -6.6208  -18.0240   22.4512 C.2     1  UNL1        0.0170
     10 N         -10.2848  -19.3531   22.2740 N.ar    1  UNL1       -0.3090
     11 C         -11.0280  -19.9991   21.1425 C.ar    1  UNL1        0.1786
     12 N         -10.3200  -19.6537   19.8660 N.ar    1  UNL1       -0.2223
     13 C          -9.1393  -18.7942   20.2087 C.ar    1  UNL1        0.1178
     14 C          -9.1176  -18.6085   21.6970 C.ar    1  UNL1        0.0820
     15 C          -9.8770  -20.3465   24.6398 C.3     1  UNL1        0.0265
     16 C         -10.6456  -19.4371   23.7276 C.3     1  UNL1        0.1077
     17 C          -3.3981  -19.9461   21.1589 C.2     1  UNL1        0.2424
     18 N          -3.9371  -20.6733   19.9628 N.am    1  UNL1       -0.3253
     19 O          -1.9921  -20.1960   21.6178 O.2     1  UNL1       -0.2704
     20 H          -4.8599  -20.5093   19.6616 H       1  UNL1        0.1453
     21 H          -3.3680  -21.3147   19.4790 H       1  UNL1        0.1453
@<TRIPOS>BOND
     1    15    16    1
     2    16    10    1
     3    10    11   ar
     4    11    12   ar
     5    12    13   ar
     6    13    14   ar
     7    14     1    1
     8     1     2    2
     9     2     3    1
    10     3     4    2
    11     4     5    1
    12     5     6    1
    13     6     7    2
    14     7    17    1
    15    17    18   am
    16    17    19    2
    17     7     8    1
    18     8     9    2
    19    14    10   ar
    20     9     1    1
    21     9     4    1
    22    18    20    1
    23    18    21    1
@<TRIPOS>MOLECULE
*****
 21 23 0 0 0
SMALL
GASTEIGER

@<TRIPOS>ATOM
      1 C          -8.4135  -17.3548   23.0106 C.2     1  UNL1        0.0376
      2 C          -8.5849  -16.1616   23.9032 C.2     1  UNL1        0.0999
      3 N          -7.2213  -15.6889   24.3121 N.2     1  UNL1       -0.2478
      4 C          -6.2071  -16.5899   23.6721 C.2     1  UNL1        0.0634
      5 C          -4.7080  -16.6059   23.7179 C.3     1  UNL1        0.0719
      6 C          -3.9456  -17.6515   22.9593 C.2     1  UNL1       -0.0153
      7 C          -4.6824  -18.6811   22.1550 C.2     1  UNL1        0.0493
      8 C          -6.1816  -18.6651   22.1092 C.2     1  UNL1        0.0055
      9 C          -6.9439  -17.6195   22.8677 C.2     1  UNL1        0.0170
     10 N         -10.5581  -17.6075   21.4353 N.ar    1  UNL1       -0.3090
     11 C         -11.4588  -18.7412   21.0435 C.ar    1  UNL1        0.1786
     12 N         -10.9750  -19.9791   21.7390 N.ar    1  UNL1       -0.2223
     13 C          -9.7753  -19.6104   22.5605 C.ar    1  UNL1        0.1178
     14 C          -9.5177  -18.1447   22.3728 C.ar    1  UNL1        0.0820
     15 C         -11.4449  -15.8667   19.7226 C.3     1  UNL1        0.0265
     16 C         -10.6770  -16.1862   20.9710 C.3     1  UNL1        0.1077
     17 C          -3.9199  -19.7267   21.3963 C.2     1  UNL1        0.2424
     18 N          -4.5624  -20.4310   20.2383 N.am    1  UNL1       -0.3253
     19 O          -2.5149  -20.0679   21.7958 O.2     1  UNL1       -0.2704
     20 H          -5.4845  -20.2070   19.9761 H       1  UNL1        0.1453
     21 H          -4.0620  -21.1172   19.7404 H       1  UNL1        0.1453
@<TRIPOS>BOND
     1    15    16    1
     2    16    10    1
     3    10    11   ar
     4    11    12   ar
     5    12    13   ar
     6    13    14   ar
     7    14     1    1
     8     1     2    2
     9     2     3    1
    10     3     4    2
    11     4     5    1
    12     5     6    1
    13     6     7    2
    14     7    17    1
    15    17    18   am
    16    17    19    2
    17     7     8    1
    18     8     9    2
    19    14    10   ar
    20     9     1    1
    21     9     4    1
    22    18    20    1
    23    18    21    1
@<TRIPOS>MOLECULE
*****
 21 23 0 0 0
SMALL
GASTEIGER

@<TRIPOS>ATOM
      1 C          -7.3125  -19.4318   21.7672 C.2     1  UNL1        0.0376
      2 C          -6.3517  -20.4086   21.1567 C.2     1  UNL1        0.0999
      3 N          -4.9595  -19.9512   21.4769 N.2     1  UNL1       -0.2478
      4 C          -5.0598  -18.6916   22.2852 C.2     1  UNL1        0.0634
      5 C          -4.0149  -17.7955   22.8811 C.3     1  UNL1        0.0719
      6 C          -4.4241  -16.5784   23.6564 C.2     1  UNL1       -0.0153
      7 C          -5.8784  -16.2574   23.8358 C.2     1  UNL1        0.0493
      8 C          -6.9233  -17.1535   23.2400 C.2     1  UNL1        0.0055
      9 C          -6.5140  -18.3706   22.4647 C.2     1  UNL1        0.0170
     10 N          -9.6293  -19.5315   20.4379 N.ar    1  UNL1       -0.3090
     11 C         -11.0752  -19.6050   20.8304 C.ar    1  UNL1        0.1786
     12 N         -11.1483  -19.6225   22.3286 N.ar    1  UNL1       -0.2223
     13 C          -9.7477  -19.5597   22.8618 C.ar    1  UNL1        0.1178
     14 C          -8.8089  -19.5034   21.6933 C.ar    1  UNL1        0.0820
     15 C          -8.9390  -20.7657   18.2584 C.3     1  UNL1        0.0265
     16 C          -9.0973  -19.4927   19.0359 C.3     1  UNL1        0.1077
     17 C          -6.2876  -15.0402   24.6112 C.2     1  UNL1        0.2424
     18 N          -7.5670  -14.3326   24.2761 N.am    1  UNL1       -0.3253
     19 O          -5.4174  -14.5308   25.7217 O.2     1  UNL1       -0.2704
     20 H          -8.1381  -14.6670   23.5472 H       1  UNL1        0.1453
     21 H          -7.8356  -13.5338   24.7849 H       1  UNL1        0.1453
@<TRIPOS>BOND
     1    15    16    1
     2    16    10    1
     3    10    11   ar
     4    11    12   ar
     5    12    13   ar
     6    13    14   ar
     7    14     1    1
     8     1     2    2
     9     2     3    1
    10     3     4    2
    11     4     5    1
    12     5     6    1
    13     6     7    2
    14     7    17    1
    15    17    18   am
    16    17    19    2
    17     7     8    1
    18     8     9    2
    19    14    10   ar
    20     9     1    1
    21     9     4    1
    22    18    20    1
    23    18    21    1
