@<TRIPOS>MOLECULE
*****
 33 36 0 0 0
SMALL
GASTEIGER

@<TRIPOS>ATOM
      1 C          -8.9016  -16.9956   23.4640 C.3     1  UNL1        0.1066
      2 C         -10.0586  -16.3372   22.7727 C.3     1  UNL1        0.0461
      3 C         -10.3711  -17.1278   21.5369 C.ar    1  UNL1       -0.0213
      4 C         -11.4088  -16.9514   20.4683 C.ar    1  UNL1       -0.0044
      5 C         -11.4827  -17.9220   19.3271 C.ar    1  UNL1       -0.0003
      6 C         -10.5189  -19.0691   19.2545 C.ar    1  UNL1       -0.0002
      7 C          -9.4811  -19.2455   20.3232 C.ar    1  UNL1       -0.0011
      8 C          -9.4073  -18.2748   21.4643 C.ar    1  UNL1        0.0146
      9 C          -8.4990  -18.1931   22.6553 C.3     1  UNL1        0.2026
     10 N          -5.1356  -14.3961   25.9258 N.3     1  UNL1       -0.3211
     11 C          -6.3768  -15.2373   25.9708 C.3     1  UNL1        0.0670
     12 C          -6.9762  -15.6198   27.2915 C.3     1  UNL1        0.0183
     13 C          -8.2173  -16.4610   27.3364 C.3     1  UNL1        0.0187
     14 C          -8.8591  -16.9196   26.0606 C.3     1  UNL1        0.0723
     15 N          -8.2598  -16.5370   24.7398 N.3     1  UNL1       -0.2692
     16 C          -7.0186  -15.6959   24.6949 C.3     1  UNL1        0.0878
     17 H          -4.8386  -14.1773   26.8768 H       1  UNL1        0.1189
     18 H          -5.3297  -13.5304   25.4226 H       1  UNL1        0.1189
     19 O          -7.3840  -19.1423   22.9806 O.3     1  UNL1       -0.4725
     20 C          -5.9955  -18.8662   22.4852 C.ar    1  UNL1        0.1503
     21 C          -5.1194  -17.8905   23.2138 C.ar    1  UNL1        0.0392
     22 C          -3.7307  -17.6144   22.7185 C.ar    1  UNL1        0.0239
     23 C          -3.2181  -18.3139   21.4946 C.ar    1  UNL1        0.1332
     24 C          -4.0941  -19.2895   20.7661 C.ar    1  UNL1        0.0897
     25 CL         -3.5813  -19.9889   19.5422 Cl      1  UNL1       -0.0799
     26 C          -5.4827  -19.5656   21.2613 C.ar    1  UNL1        0.1033
     27 CL         -6.3587  -20.5413   20.5327 Cl      1  UNL1       -0.0782
     28 S          -1.8294  -18.0377   20.9993 S.O2    1  UNL1        0.0580
     29 N          -0.4408  -17.7615   20.5040 N.3     1  UNL1       -0.2034
     30 O          -2.3555  -16.9211   20.1468 O.2     1  UNL1       -0.1532
     31 O          -1.3033  -19.1542   21.8517 O.2     1  UNL1       -0.1532
     32 H          -0.4633  -16.9830   19.8452 H       1  UNL1        0.1442
     33 H          -0.0749  -18.5914   20.0373 H       1  UNL1        0.1442
@<TRIPOS>BOND
     1    11    10    1
     2    11    12    1
     3    12    13    1
     4    13    14    1
     5    14    15    1
     6     1    15    1
     7     1     2    1
     8     2     3    1
     9     3     4   ar
    10     4     5   ar
    11     5     6   ar
    12     6     7   ar
    13     7     8   ar
    14     8     9    1
    15     9    19    1
    16    19    20    1
    17    20    21   ar
    18    21    22   ar
    19    22    23   ar
    20    23    28    1
    21    28    29    1
    22    28    30    2
    23    28    31    2
    24    23    24   ar
    25    24    25    1
    26    24    26   ar
    27    26    27    1
    28    15    16    1
    29    16    11    1
    30     9     1    1
    31    26    20   ar
    32     8     3   ar
    33    10    17    1
    34    10    18    1
    35    29    32    1
    36    29    33    1
@<TRIPOS>MOLECULE
*****
 33 36 0 0 0
SMALL
GASTEIGER

@<TRIPOS>ATOM
      1 C          -8.6595  -17.2674   23.4080 C.3     1  UNL1        0.1066
      2 C          -9.9313  -16.8812   22.7126 C.3     1  UNL1        0.0461
      3 C         -10.0557  -17.7193   21.4748 C.ar    1  UNL1       -0.0213
      4 C         -11.1026  -17.7759   20.4021 C.ar    1  UNL1       -0.0044
      5 C         -10.9547  -18.7367   19.2598 C.ar    1  UNL1       -0.0003
      6 C          -9.7597  -19.6407   19.1901 C.ar    1  UNL1       -0.0002
      7 C          -8.7128  -19.5841   20.2627 C.ar    1  UNL1       -0.0011
      8 C          -8.8608  -18.6233   21.4051 C.ar    1  UNL1        0.0146
      9 C          -7.9979  -18.3440   22.5999 C.3     1  UNL1        0.2026
     10 N          -5.1779  -14.3523   25.9341 N.3     1  UNL1       -0.3211
     11 C          -6.3997  -15.2224   25.9499 C.3     1  UNL1        0.0670
     12 C          -7.1024  -15.5051   27.2446 C.3     1  UNL1        0.0183
     13 C          -8.3241  -16.3752   27.2604 C.3     1  UNL1        0.0187
     14 C          -8.8432  -16.9626   25.9815 C.3     1  UNL1        0.0723
     15 N          -8.1405  -16.6799   24.6869 N.3     1  UNL1       -0.2692
     16 C          -6.9187  -15.8099   24.6710 C.3     1  UNL1        0.0878
     17 H          -4.9689  -14.0423   26.8831 H       1  UNL1        0.1189
     18 H          -5.3465  -13.5402   25.3405 H       1  UNL1        0.1189
     19 O          -6.7011  -19.0223   22.9287 O.3     1  UNL1       -0.4725
     20 C          -5.5002  -18.8083   22.0559 C.ar    1  UNL1        0.1503
     21 C          -5.4526  -19.4135   20.6842 C.ar    1  UNL1        0.0392
     22 C          -4.2517  -19.1995   19.8112 C.ar    1  UNL1        0.0239
     23 C          -3.0984  -18.3803   20.3100 C.ar    1  UNL1        0.1332
     24 C          -3.1460  -17.7751   21.6816 C.ar    1  UNL1        0.0897
     25 CL         -1.9926  -16.9559   22.1803 Cl      1  UNL1       -0.0799
     26 C          -4.3469  -17.9891   22.5546 C.ar    1  UNL1        0.1033
     27 CL         -4.3944  -17.3839   23.9262 Cl      1  UNL1       -0.0782
     28 S          -1.8975  -18.1663   19.4370 S.O2    1  UNL1        0.0580
     29 N          -0.6966  -17.9523   18.5641 N.3     1  UNL1       -0.2034
     30 O          -1.1247  -19.1563   20.2573 O.2     1  UNL1       -0.1532
     31 O          -2.6701  -17.1763   18.6168 O.2     1  UNL1       -0.1532
     32 H           0.0710  -18.5385   18.8921 H       1  UNL1        0.1442
     33 H          -0.4171  -16.9722   18.6045 H       1  UNL1        0.1442
@<TRIPOS>BOND
     1    11    10    1
     2    11    12    1
     3    12    13    1
     4    13    14    1
     5    14    15    1
     6     1    15    1
     7     1     2    1
     8     2     3    1
     9     3     4   ar
    10     4     5   ar
    11     5     6   ar
    12     6     7   ar
    13     7     8   ar
    14     8     9    1
    15     9    19    1
    16    19    20    1
    17    20    21   ar
    18    21    22   ar
    19    22    23   ar
    20    23    28    1
    21    28    29    1
    22    28    30    2
    23    28    31    2
    24    23    24   ar
    25    24    25    1
    26    24    26   ar
    27    26    27    1
    28    15    16    1
    29    16    11    1
    30     9     1    1
    31    26    20   ar
    32     8     3   ar
    33    10    17    1
    34    10    18    1
    35    29    32    1
    36    29    33    1
@<TRIPOS>MOLECULE
*****
 33 36 0 0 0
SMALL
GASTEIGER

@<TRIPOS>ATOM
      1 C          -4.7073  -16.5575   23.8591 C.3     1  UNL1        0.1066
      2 C          -4.4941  -16.0731   25.2627 C.3     1  UNL1        0.0461
      3 C          -5.8364  -15.7569   25.8529 C.ar    1  UNL1       -0.0213
      4 C          -6.2439  -15.2432   27.2019 C.ar    1  UNL1       -0.0044
      5 C          -7.6941  -15.0185   27.5122 C.ar    1  UNL1       -0.0003
      6 C          -8.7368  -15.3075   26.4734 C.ar    1  UNL1       -0.0002
      7 C          -8.3294  -15.8212   25.1243 C.ar    1  UNL1       -0.0011
      8 C          -6.8792  -16.0459   24.8141 C.ar    1  UNL1        0.0146
      9 C          -6.1813  -16.5407   23.5819 C.3     1  UNL1        0.2026
     10 N          -2.0971  -20.3260   21.4127 N.3     1  UNL1       -0.3211
     11 C          -2.3296  -18.8680   21.6779 C.3     1  UNL1        0.0670
     12 C          -1.4896  -17.8364   20.9849 C.3     1  UNL1        0.0183
     13 C          -1.7222  -16.3785   21.2501 C.3     1  UNL1        0.0187
     14 C          -2.7947  -15.9522   22.2082 C.3     1  UNL1        0.0723
     15 N          -3.6347  -16.9838   22.9011 N.3     1  UNL1       -0.2692
     16 C          -3.4022  -18.4417   22.6359 C.3     1  UNL1        0.0878
     17 H          -1.3365  -20.4325   20.7415 H       1  UNL1        0.1189
     18 H          -2.9470  -20.7422   21.0322 H       1  UNL1        0.1189
     19 O          -6.8417  -16.9472   22.2979 O.3     1  UNL1       -0.4725
     20 C          -8.3206  -17.1946   22.2606 C.ar    1  UNL1        0.1503
     21 C          -9.2686  -16.0469   22.0751 C.ar    1  UNL1        0.0392
     22 C         -10.7476  -16.2942   22.0378 C.ar    1  UNL1        0.0239
     23 C         -11.2786  -17.6893   22.1859 C.ar    1  UNL1        0.1332
     24 C         -10.3307  -18.8369   22.3714 C.ar    1  UNL1        0.0897
     25 CL        -10.8619  -20.2319   22.5195 Cl      1  UNL1       -0.0799
     26 C          -8.8517  -18.5896   22.4087 C.ar    1  UNL1        0.1033
     27 CL         -7.9039  -19.7373   22.5942 Cl      1  UNL1       -0.0782
     28 S         -12.7576  -17.9366   22.1486 S.O2    1  UNL1        0.0580
     29 N         -14.2366  -18.1839   22.1113 N.3     1  UNL1       -0.2034
     30 O         -12.7725  -18.0736   23.6423 O.2     1  UNL1       -0.1532
     31 O         -12.7428  -17.7995   20.6549 O.2     1  UNL1       -0.1532
     32 H         -14.5813  -18.3278   23.0604 H       1  UNL1        0.1442
     33 H         -14.4285  -19.0139   21.5503 H       1  UNL1        0.1442
@<TRIPOS>BOND
     1    11    10    1
     2    11    12    1
     3    12    13    1
     4    13    14    1
     5    14    15    1
     6     1    15    1
     7     1     2    1
     8     2     3    1
     9     3     4   ar
    10     4     5   ar
    11     5     6   ar
    12     6     7   ar
    13     7     8   ar
    14     8     9    1
    15     9    19    1
    16    19    20    1
    17    20    21   ar
    18    21    22   ar
    19    22    23   ar
    20    23    28    1
    21    28    29    1
    22    28    30    2
    23    28    31    2
    24    23    24   ar
    25    24    25    1
    26    24    26   ar
    27    26    27    1
    28    15    16    1
    29    16    11    1
    30     9     1    1
    31    26    20   ar
    32     8     3   ar
    33    10    17    1
    34    10    18    1
    35    29    32    1
    36    29    33    1
@<TRIPOS>MOLECULE
*****
 33 36 0 0 0
SMALL
GASTEIGER

@<TRIPOS>ATOM
      1 C          -4.7903  -16.5951   23.9024 C.3     1  UNL1        0.1066
      2 C          -4.6116  -15.7422   25.1233 C.3     1  UNL1        0.0461
      3 C          -5.9480  -15.6008   25.7897 C.ar    1  UNL1       -0.0213
      4 C          -6.3799  -14.8739   27.0287 C.ar    1  UNL1       -0.0044
      5 C          -7.8164  -14.9126   27.4586 C.ar    1  UNL1       -0.0003
      6 C          -8.8210  -15.6782   26.6496 C.ar    1  UNL1       -0.0002
      7 C          -8.3892  -16.4051   25.4107 C.ar    1  UNL1       -0.0011
      8 C          -6.9527  -16.3664   24.9807 C.ar    1  UNL1        0.0146
      9 C          -6.2372  -16.9809   23.8143 C.3     1  UNL1        0.2026
     10 N          -2.1349  -20.2906   21.3940 N.3     1  UNL1       -0.3211
     11 C          -2.3839  -18.8402   21.6846 C.3     1  UNL1        0.0670
     12 C          -1.5542  -17.7872   21.0117 C.3     1  UNL1        0.0183
     13 C          -1.8032  -16.3369   21.3024 C.3     1  UNL1        0.0187
     14 C          -2.8819  -15.9395   22.2660 C.3     1  UNL1        0.0723
     15 N          -3.7116  -16.9925   22.9389 N.3     1  UNL1       -0.2692
     16 C          -3.4626  -18.4428   22.6482 C.3     1  UNL1        0.0878
     17 H          -1.3721  -20.3767   20.7224 H       1  UNL1        0.1189
     18 H          -2.9796  -20.7092   21.0045 H       1  UNL1        0.1189
     19 O          -6.8594  -17.8319   22.7472 O.3     1  UNL1       -0.4725
     20 C          -8.0753  -17.3468   22.0151 C.ar    1  UNL1        0.1503
     21 C          -8.4509  -15.8954   22.0639 C.ar    1  UNL1        0.0392
     22 C          -9.6669  -15.4103   21.3318 C.ar    1  UNL1        0.0239
     23 C         -10.5074  -16.3766   20.5508 C.ar    1  UNL1        0.1332
     24 C         -10.1318  -17.8280   20.5020 C.ar    1  UNL1        0.0897
     25 CL        -10.9722  -18.7943   19.7210 Cl      1  UNL1       -0.0799
     26 C          -8.9158  -18.3131   21.2341 C.ar    1  UNL1        0.1033
     27 CL         -8.5403  -19.7645   21.1852 Cl      1  UNL1       -0.0782
     28 S         -11.7233  -15.8915   19.8187 S.O2    1  UNL1        0.0580
     29 N         -12.9393  -15.4064   19.0865 N.3     1  UNL1       -0.2034
     30 O         -10.8476  -15.1272   18.8704 O.2     1  UNL1       -0.1532
     31 O         -12.5991  -16.6557   20.7668 O.2     1  UNL1       -0.1532
     32 H         -12.6535  -14.8065   18.3127 H       1  UNL1        0.1442
     33 H         -13.5325  -14.8773   19.7258 H       1  UNL1        0.1442
@<TRIPOS>BOND
     1    11    10    1
     2    11    12    1
     3    12    13    1
     4    13    14    1
     5    14    15    1
     6     1    15    1
     7     1     2    1
     8     2     3    1
     9     3     4   ar
    10     4     5   ar
    11     5     6   ar
    12     6     7   ar
    13     7     8   ar
    14     8     9    1
    15     9    19    1
    16    19    20    1
    17    20    21   ar
    18    21    22   ar
    19    22    23   ar
    20    23    28    1
    21    28    29    1
    22    28    30    2
    23    28    31    2
    24    23    24   ar
    25    24    25    1
    26    24    26   ar
    27    26    27    1
    28    15    16    1
    29    16    11    1
    30     9     1    1
    31    26    20   ar
    32     8     3   ar
    33    10    17    1
    34    10    18    1
    35    29    32    1
    36    29    33    1
@<TRIPOS>MOLECULE
*****
 33 36 0 0 0
SMALL
GASTEIGER

@<TRIPOS>ATOM
      1 C          -4.8622  -17.6069   22.6696 C.3     1  UNL1        0.1066
      2 C          -4.1617  -17.0223   23.8602 C.3     1  UNL1        0.0461
      3 C          -5.1975  -16.3961   24.7461 C.ar    1  UNL1       -0.0213
      4 C          -5.0931  -15.6715   26.0553 C.ar    1  UNL1       -0.0044
      5 C          -6.3294  -15.1444   26.7215 C.ar    1  UNL1       -0.0003
      6 C          -7.6701  -15.3420   26.0784 C.ar    1  UNL1       -0.0002
      7 C          -7.7745  -16.0665   24.7692 C.ar    1  UNL1       -0.0011
      8 C          -6.5382  -16.5936   24.1031 C.ar    1  UNL1        0.0146
      9 C          -6.3309  -17.3419   22.8197 C.3     1  UNL1        0.2026
     10 N          -1.1811  -17.8427   19.0098 N.3     1  UNL1       -0.3211
     11 C          -2.3681  -18.4475   19.6992 C.3     1  UNL1        0.0670
     12 C          -2.9016  -19.7748   19.2481 C.3     1  UNL1        0.0183
     13 C          -4.0886  -20.3795   19.9375 C.3     1  UNL1        0.0187
     14 C          -4.7421  -19.6569   21.0780 C.3     1  UNL1        0.0723
     15 N          -4.2087  -18.3295   21.5291 N.3     1  UNL1       -0.2692
     16 C          -3.0217  -17.7248   20.8397 C.3     1  UNL1        0.0878
     17 H          -0.8676  -18.4644   18.2644 H       1  UNL1        0.1189
     18 H          -0.4265  -17.7123   19.6836 H       1  UNL1        0.1189
     19 O          -7.4041  -17.7531   21.8557 O.3     1  UNL1       -0.4725
     20 C          -8.8257  -17.8676   22.3200 C.ar    1  UNL1        0.1503
     21 C          -9.3081  -19.1394   22.9524 C.ar    1  UNL1        0.0392
     22 C         -10.7298  -19.2540   23.4168 C.ar    1  UNL1        0.0239
     23 C         -11.6691  -18.0966   23.2488 C.ar    1  UNL1        0.1332
     24 C         -11.1868  -16.8249   22.6164 C.ar    1  UNL1        0.0897
     25 CL        -12.1263  -15.6676   22.4485 Cl      1  UNL1       -0.0799
     26 C          -9.7651  -16.7103   22.1521 C.ar    1  UNL1        0.1033
     27 CL         -9.2829  -15.4385   21.5197 Cl      1  UNL1       -0.0782
     28 S         -13.0908  -18.2112   23.7132 S.O2    1  UNL1        0.0580
     29 N         -14.5125  -18.3258   24.1776 N.3     1  UNL1       -0.2034
     30 O         -12.6128  -18.5091   25.1035 O.2     1  UNL1       -0.1532
     31 O         -13.5689  -17.9133   22.3230 O.2     1  UNL1       -0.1532
     32 H         -14.5282  -18.5427   25.1741 H       1  UNL1        0.1442
     33 H         -14.9803  -19.0700   23.6602 H       1  UNL1        0.1442
@<TRIPOS>BOND
     1    11    10    1
     2    11    12    1
     3    12    13    1
     4    13    14    1
     5    14    15    1
     6     1    15    1
     7     1     2    1
     8     2     3    1
     9     3     4   ar
    10     4     5   ar
    11     5     6   ar
    12     6     7   ar
    13     7     8   ar
    14     8     9    1
    15     9    19    1
    16    19    20    1
    17    20    21   ar
    18    21    22   ar
    19    22    23   ar
    20    23    28    1
    21    28    29    1
    22    28    30    2
    23    28    31    2
    24    23    24   ar
    25    24    25    1
    26    24    26   ar
    27    26    27    1
    28    15    16    1
    29    16    11    1
    30     9     1    1
    31    26    20   ar
    32     8     3   ar
    33    10    17    1
    34    10    18    1
    35    29    32    1
    36    29    33    1
@<TRIPOS>MOLECULE
*****
 33 36 0 0 0
SMALL
GASTEIGER

@<TRIPOS>ATOM
      1 C          -3.9982  -16.8397   23.1217 C.3     1  UNL1        0.1066
      2 C          -2.8002  -16.1183   22.5791 C.3     1  UNL1        0.0461
      3 C          -2.1777  -16.9826   21.5230 C.ar    1  UNL1       -0.0213
      4 C          -0.9754  -16.7886   20.6473 C.ar    1  UNL1       -0.0044
      5 C          -0.5864  -17.8501   19.6616 C.ar    1  UNL1       -0.0003
      6 C          -1.3996  -19.1057   19.5515 C.ar    1  UNL1       -0.0002
      7 C          -2.6019  -19.2997   20.4271 C.ar    1  UNL1       -0.0011
      8 C          -2.9910  -18.2382   21.4128 C.ar    1  UNL1        0.0146
      9 C          -4.1161  -18.1498   22.4009 C.3     1  UNL1        0.2026
     10 N          -8.3773  -14.4250   24.5334 N.3     1  UNL1       -0.3211
     11 C          -7.1065  -15.1315   24.9023 C.3     1  UNL1        0.0670
     12 C          -6.7545  -15.3371   26.3458 C.3     1  UNL1        0.0183
     13 C          -5.4838  -16.0436   26.7147 C.3     1  UNL1        0.0187
     14 C          -4.5650  -16.5444   25.6400 C.3     1  UNL1        0.0723
     15 N          -4.9170  -16.3388   24.1964 N.3     1  UNL1       -0.2692
     16 C          -6.1877  -15.6324   23.8276 C.3     1  UNL1        0.0878
     17 H          -8.8752  -14.1556   25.3820 H       1  UNL1        0.1189
     18 H          -8.9639  -15.0481   23.9784 H       1  UNL1        0.1189
     19 O          -5.1734  -19.1892   22.6283 O.3     1  UNL1       -0.4725
     20 C          -6.5739  -18.9525   22.1461 C.ar    1  UNL1        0.1503
     21 C          -7.5295  -18.1526   22.9811 C.ar    1  UNL1        0.0392
     22 C          -8.9300  -17.9158   22.4989 C.ar    1  UNL1        0.0239
     23 C          -9.3749  -18.4790   21.1817 C.ar    1  UNL1        0.1332
     24 C          -8.4194  -19.2788   20.3468 C.ar    1  UNL1        0.0897
     25 CL         -8.8644  -19.8418   19.0296 Cl      1  UNL1       -0.0799
     26 C          -7.0189  -19.5156   20.8289 C.ar    1  UNL1        0.1033
     27 CL         -6.0634  -20.3154   19.9939 Cl      1  UNL1       -0.0782
     28 S         -10.7754  -18.2422   20.6995 S.O2    1  UNL1        0.0580
     29 N         -12.1759  -18.0054   20.2174 N.3     1  UNL1       -0.2034
     30 O         -11.2208  -19.5071   21.3717 O.2     1  UNL1       -0.1532
     31 O         -10.3302  -16.9773   20.0273 O.2     1  UNL1       -0.1532
     32 H         -12.7789  -18.7626   20.5390 H       1  UNL1        0.1442
     33 H         -12.1838  -17.9742   19.1979 H       1  UNL1        0.1442
@<TRIPOS>BOND
     1    11    10    1
     2    11    12    1
     3    12    13    1
     4    13    14    1
     5    14    15    1
     6     1    15    1
     7     1     2    1
     8     2     3    1
     9     3     4   ar
    10     4     5   ar
    11     5     6   ar
    12     6     7   ar
    13     7     8   ar
    14     8     9    1
    15     9    19    1
    16    19    20    1
    17    20    21   ar
    18    21    22   ar
    19    22    23   ar
    20    23    28    1
    21    28    29    1
    22    28    30    2
    23    28    31    2
    24    23    24   ar
    25    24    25    1
    26    24    26   ar
    27    26    27    1
    28    15    16    1
    29    16    11    1
    30     9     1    1
    31    26    20   ar
    32     8     3   ar
    33    10    17    1
    34    10    18    1
    35    29    32    1
    36    29    33    1
@<TRIPOS>MOLECULE
*****
 33 36 0 0 0
SMALL
GASTEIGER

@<TRIPOS>ATOM
      1 C          -8.7040  -18.7773   21.3202 C.3     1  UNL1        0.1066
      2 C          -9.7725  -18.8460   20.2697 C.3     1  UNL1        0.0461
      3 C          -9.3693  -19.8849   19.2656 C.ar    1  UNL1       -0.0213
      4 C         -10.0318  -20.3828   18.0154 C.ar    1  UNL1       -0.0044
      5 C          -9.3765  -21.4540   17.1951 C.ar    1  UNL1       -0.0003
      6 C          -8.0588  -22.0274   17.6250 C.ar    1  UNL1       -0.0002
      7 C          -7.3963  -21.5294   18.8752 C.ar    1  UNL1       -0.0011
      8 C          -8.0515  -20.4582   19.6955 C.ar    1  UNL1        0.0146
      9 C          -7.6404  -19.7737   20.9653 C.3     1  UNL1        0.2026
     10 N          -9.5774  -18.0043   26.3838 N.3     1  UNL1       -0.3211
     11 C          -9.1365  -17.4848   25.0475 C.3     1  UNL1        0.0670
     12 C          -8.6915  -16.0593   24.9066 C.3     1  UNL1        0.0183
     13 C          -8.2506  -15.5398   23.5703 C.3     1  UNL1        0.0187
     14 C          -8.2548  -16.4458   22.3749 C.3     1  UNL1        0.0723
     15 N          -8.6998  -17.8713   22.5157 N.3     1  UNL1       -0.2692
     16 C          -9.1407  -18.3908   23.8520 C.3     1  UNL1        0.0878
     17 H          -9.5111  -17.2591   27.0771 H       1  UNL1        0.1189
     18 H          -8.9776  -18.7812   26.6613 H       1  UNL1        0.1189
     19 O          -6.3858  -20.0390   21.7436 O.3     1  UNL1       -0.4725
     20 C          -5.0664  -19.5423   21.2315 C.ar    1  UNL1        0.1503
     21 C          -4.4510  -20.1667   20.0143 C.ar    1  UNL1        0.0392
     22 C          -3.1315  -19.6701   19.5022 C.ar    1  UNL1        0.0239
     23 C          -2.4273  -18.5489   20.2074 C.ar    1  UNL1        0.1332
     24 C          -3.0426  -17.9245   21.4245 C.ar    1  UNL1        0.0897
     25 CL         -2.3383  -16.8034   22.1296 Cl      1  UNL1       -0.0799
     26 C          -4.3621  -18.4212   21.9366 C.ar    1  UNL1        0.1033
     27 CL         -4.9773  -17.7967   23.1538 Cl      1  UNL1       -0.0782
     28 S          -1.1078  -18.0523   19.6953 S.O2    1  UNL1        0.0580
     29 N           0.2117  -17.5556   19.1831 N.3     1  UNL1       -0.2034
     30 O          -0.4072  -18.7511   20.8226 O.2     1  UNL1       -0.1532
     31 O          -1.8084  -17.3535   18.5679 O.2     1  UNL1       -0.1532
     32 H           0.9599  -17.8911   19.7898 H       1  UNL1        0.1442
     33 H           0.2114  -16.5357   19.1758 H       1  UNL1        0.1442
@<TRIPOS>BOND
     1    11    10    1
     2    11    12    1
     3    12    13    1
     4    13    14    1
     5    14    15    1
     6     1    15    1
     7     1     2    1
     8     2     3    1
     9     3     4   ar
    10     4     5   ar
    11     5     6   ar
    12     6     7   ar
    13     7     8   ar
    14     8     9    1
    15     9    19    1
    16    19    20    1
    17    20    21   ar
    18    21    22   ar
    19    22    23   ar
    20    23    28    1
    21    28    29    1
    22    28    30    2
    23    28    31    2
    24    23    24   ar
    25    24    25    1
    26    24    26   ar
    27    26    27    1
    28    15    16    1
    29    16    11    1
    30     9     1    1
    31    26    20   ar
    32     8     3   ar
    33    10    17    1
    34    10    18    1
    35    29    32    1
    36    29    33    1
