@<TRIPOS>MOLECULE
*****
 40 42 0 0 0
SMALL
GASTEIGER

@<TRIPOS>ATOM
      1 C           3.4658   -0.5937   23.2340 C.2     1  UNL1       -0.0011
      2 C           2.2817    0.2941   23.4782 C.2     1  UNL1        0.0167
      3 C           1.4502    0.9644   22.4250 C.3     1  UNL1        0.0344
      4 C           0.3757    1.7521   23.1143 C.3     1  UNL1        0.0344
      5 C           0.5431    1.5685   24.5936 C.2     1  UNL1        0.0167
      6 C          -0.3165    2.1788   25.6606 C.2     1  UNL1       -0.0011
      7 C           1.7210    0.6674   24.8184 C.2     1  UNL1        0.1877
      8 O           2.2461    0.2185   26.1499 O.2     1  UNL1       -0.2872
      9 C           4.4603   -2.5804   19.9456 C.ar    1  UNL1        0.0106
     10 C           4.0133   -2.2955   21.3487 C.ar    1  UNL1       -0.0013
     11 C           3.9129   -0.8786   21.8308 C.ar    1  UNL1       -0.0006
     12 C           4.2596    0.2533   20.9097 C.ar    1  UNL1       -0.0013
     13 C           4.7067   -0.0316   19.5065 C.ar    1  UNL1        0.0106
     14 C           4.8071   -1.4485   19.0245 C.ar    1  UNL1        0.1255
     15 O           5.2542   -1.7334   17.6212 O.3     1  UNL1       -0.5061
     16 H           5.4707   -1.0263   17.0458 H       1  UNL1        0.2922
     17 C           5.9800   -4.0606   19.9449 C.3     1  UNL1        0.0045
     18 C           4.5607   -3.9973   19.4635 C.3     1  UNL1        0.0218
     19 C           3.1415   -3.9341   18.9821 C.3     1  UNL1        0.0045
     20 C           4.6611   -5.4142   18.9814 C.3     1  UNL1        0.0045
     21 C           5.0534    1.1003   18.5854 C.3     1  UNL1        0.0218
     22 C           3.6118    1.2188   18.1882 C.3     1  UNL1        0.0045
     23 C           6.4950    0.9819   18.9825 C.3     1  UNL1        0.0045
     24 C           5.4002    2.2322   17.6642 C.3     1  UNL1        0.0045
     25 C          -1.4663    3.0645   25.2819 C.ar    1  UNL1       -0.0006
     26 C          -2.0870    2.9473   23.9215 C.ar    1  UNL1       -0.0013
     27 C          -3.2368    3.8330   23.5428 C.ar    1  UNL1        0.0106
     28 C          -3.7660    4.8360   24.5246 C.ar    1  UNL1        0.1255
     29 O          -4.9158    5.7218   24.1460 O.3     1  UNL1       -0.5061
     30 C          -3.1453    4.9533   25.8852 C.ar    1  UNL1        0.0106
     31 C          -1.9954    4.0675   26.2638 C.ar    1  UNL1       -0.0013
     32 H          -5.3036    5.6485   23.2962 H       1  UNL1        0.2922
     33 C          -3.8575    3.7158   22.1823 C.3     1  UNL1        0.0218
     34 C          -2.7819    4.5946   21.6159 C.3     1  UNL1        0.0045
     35 C          -4.9331    2.8370   22.7488 C.3     1  UNL1        0.0045
     36 C          -4.4783    3.5986   20.8218 C.3     1  UNL1        0.0045
     37 C          -3.6744    5.9562   26.8671 C.3     1  UNL1        0.0218
     38 C          -2.5659    6.8985   26.5020 C.3     1  UNL1        0.0045
     39 C          -4.7830    5.0140   27.2322 C.3     1  UNL1        0.0045
     40 C          -4.2035    6.9592   27.8490 C.3     1  UNL1        0.0045
@<TRIPOS>BOND
     1    17    18    1
     2    18    19    1
     3    18    20    1
     4    18     9    1
     5     9    10   ar
     6    10    11   ar
     7    11     1    1
     8     1     2    2
     9     2     3    1
    10     3     4    1
    11     4     5    1
    12     5     6    2
    13     6    25    1
    14    25    26   ar
    15    26    27   ar
    16    27    33    1
    17    33    34    1
    18    33    35    1
    19    33    36    1
    20    27    28   ar
    21    28    29    1
    22    28    30   ar
    23    30    37    1
    24    37    38    1
    25    37    39    1
    26    37    40    1
    27    30    31   ar
    28     5     7    1
    29     7     8    2
    30    11    12   ar
    31    12    13   ar
    32    13    21    1
    33    21    22    1
    34    21    23    1
    35    21    24    1
    36    13    14   ar
    37    14    15    1
    38    14     9   ar
    39     7     2    1
    40    31    25   ar
    41    29    32    1
    42    15    16    1
@<TRIPOS>MOLECULE
*****
 40 42 0 0 0
SMALL
GASTEIGER

@<TRIPOS>ATOM
      1 C           3.4949   -0.5878   23.2198 C.2     1  UNL1       -0.0011
      2 C           2.3099    0.2981   23.4668 C.2     1  UNL1        0.0167
      3 C           1.4711    0.9622   22.4154 C.3     1  UNL1        0.0344
      4 C           0.3984    1.7499   23.1074 C.3     1  UNL1        0.0344
      5 C           0.5741    1.5726   24.5864 C.2     1  UNL1        0.0167
      6 C          -0.2812    2.1850   25.6557 C.2     1  UNL1       -0.0011
      7 C           1.7555    0.6753   24.8085 C.2     1  UNL1        0.1877
      8 O           2.2889    0.2330   26.1389 O.2     1  UNL1       -0.2872
      9 C           4.7206   -0.0374   19.4855 C.ar    1  UNL1        0.0106
     10 C           4.2803    0.2518   20.8899 C.ar    1  UNL1       -0.0013
     11 C           3.9352   -0.8771   21.8153 C.ar    1  UNL1       -0.0006
     12 C           4.0304   -2.2953   21.3363 C.ar    1  UNL1       -0.0013
     13 C           4.4707   -2.5846   19.9319 C.ar    1  UNL1        0.0106
     14 C           4.8158   -1.4557   19.0065 C.ar    1  UNL1        0.1255
     15 O           5.2561   -1.7450   17.6020 O.3     1  UNL1       -0.5061
     16 H           5.3155   -2.6310   17.3028 H       1  UNL1        0.2922
     17 C           3.6139    1.2577   18.2214 C.3     1  UNL1        0.0045
     18 C           5.0657    1.0915   18.5601 C.3     1  UNL1        0.0218
     19 C           6.5175    0.9253   18.8987 C.3     1  UNL1        0.0045
     20 C           5.4108    2.2205   17.6346 C.3     1  UNL1        0.0045
     21 C           4.5659   -4.0029   19.4528 C.3     1  UNL1        0.0218
     22 C           5.9886   -4.0665   19.9235 C.3     1  UNL1        0.0045
     23 C           3.1431   -3.9394   18.9821 C.3     1  UNL1        0.0045
     24 C           4.6610   -5.4211   18.9737 C.3     1  UNL1        0.0045
     25 C          -1.4353    3.0663   25.2796 C.ar    1  UNL1       -0.0006
     26 C          -1.9627    4.0708   26.2607 C.ar    1  UNL1       -0.0013
     27 C          -3.1168    4.9521   25.8846 C.ar    1  UNL1        0.0106
     28 C          -3.7434    4.8289   24.5274 C.ar    1  UNL1        0.1255
     29 O          -4.8975    5.7102   24.1512 O.3     1  UNL1       -0.5061
     30 C          -3.2160    3.8244   23.5462 C.ar    1  UNL1        0.0106
     31 C          -2.0619    2.9430   23.9224 C.ar    1  UNL1       -0.0013
     32 H          -5.2270    6.3377   24.7641 H       1  UNL1        0.2922
     33 C          -3.6442    5.9567   26.8658 C.3     1  UNL1        0.0218
     34 C          -4.7550    5.0170   27.2308 C.3     1  UNL1        0.0045
     35 C          -2.5335    6.8964   26.5007 C.3     1  UNL1        0.0045
     36 C          -4.1717    6.9613   27.8469 C.3     1  UNL1        0.0045
     37 C          -3.8426    3.7011   22.1889 C.3     1  UNL1        0.0218
     38 C          -2.7610    4.5649   21.6111 C.3     1  UNL1        0.0045
     39 C          -4.9242    2.8373   22.7667 C.3     1  UNL1        0.0045
     40 C          -4.4692    3.5778   20.8317 C.3     1  UNL1        0.0045
@<TRIPOS>BOND
     1    17    18    1
     2    18    19    1
     3    18    20    1
     4    18     9    1
     5     9    10   ar
     6    10    11   ar
     7    11     1    1
     8     1     2    2
     9     2     3    1
    10     3     4    1
    11     4     5    1
    12     5     6    2
    13     6    25    1
    14    25    26   ar
    15    26    27   ar
    16    27    33    1
    17    33    34    1
    18    33    35    1
    19    33    36    1
    20    27    28   ar
    21    28    29    1
    22    28    30   ar
    23    30    37    1
    24    37    38    1
    25    37    39    1
    26    37    40    1
    27    30    31   ar
    28     5     7    1
    29     7     8    2
    30    11    12   ar
    31    12    13   ar
    32    13    21    1
    33    21    22    1
    34    21    23    1
    35    21    24    1
    36    13    14   ar
    37    14    15    1
    38    14     9   ar
    39     7     2    1
    40    31    25   ar
    41    29    32    1
    42    15    16    1
@<TRIPOS>MOLECULE
*****
 40 42 0 0 0
SMALL
GASTEIGER

@<TRIPOS>ATOM
      1 C          -0.2759    2.1747   25.6850 C.2     1  UNL1       -0.0011
      2 C           0.5783    1.5635   24.6140 C.2     1  UNL1        0.0167
      3 C           0.4046    1.7477   23.1355 C.3     1  UNL1        0.0344
      4 C           1.4750    0.9589   22.4412 C.3     1  UNL1        0.0344
      5 C           2.3102    0.2872   23.4906 C.2     1  UNL1        0.0167
      6 C           3.4922   -0.6020   23.2410 C.2     1  UNL1       -0.0011
      7 C           1.7560    0.6609   24.8334 C.2     1  UNL1        0.1877
      8 O           2.2864    0.2109   26.1624 O.2     1  UNL1       -0.2872
      9 C          -3.0995    4.9532   25.9225 C.ar    1  UNL1        0.0106
     10 C          -1.9492    4.0660   26.2958 C.ar    1  UNL1       -0.0013
     11 C          -1.4263    3.0620   25.3117 C.ar    1  UNL1       -0.0006
     12 C          -2.0537    2.9453   23.9542 C.ar    1  UNL1       -0.0013
     13 C          -3.2040    3.8325   23.5809 C.ar    1  UNL1        0.0106
     14 C          -3.7270    4.8365   24.5651 C.ar    1  UNL1        0.1255
     15 O          -4.8774    5.7238   24.1917 O.3     1  UNL1       -0.5061
     16 H          -5.2693    5.6509   23.3438 H       1  UNL1        0.2922
     17 C          -2.4787    6.8716   26.5816 C.3     1  UNL1        0.0045
     18 C          -3.6225    5.9572   26.9067 C.3     1  UNL1        0.0218
     19 C          -4.7662    5.0428   27.2318 C.3     1  UNL1        0.0045
     20 C          -4.1454    6.9612   27.8908 C.3     1  UNL1        0.0045
     21 C          -3.8315    3.7159   22.2234 C.3     1  UNL1        0.0218
     22 C          -4.9072    2.8410   22.7958 C.3     1  UNL1        0.0045
     23 C          -2.7559    4.5907   21.6511 C.3     1  UNL1        0.0045
     24 C          -4.4589    3.5992   20.8660 C.3     1  UNL1        0.0045
     25 C           3.9327   -0.8871   21.8357 C.ar    1  UNL1       -0.0006
     26 C           4.2772    0.2446   20.9136 C.ar    1  UNL1       -0.0013
     27 C           4.7176   -0.0405   19.5084 C.ar    1  UNL1        0.0106
     28 C           4.8136   -1.4573   19.0253 C.ar    1  UNL1        0.1255
     29 O           5.2541   -1.7425   17.6200 O.3     1  UNL1       -0.5061
     30 C           4.4691   -2.5891   19.9475 C.ar    1  UNL1        0.0106
     31 C           4.0286   -2.3039   21.3528 C.ar    1  UNL1       -0.0013
     32 H           5.4693   -1.0355   17.0439 H       1  UNL1        0.2922
     33 C           5.0622    1.0912   18.5861 C.3     1  UNL1        0.0218
     34 C           6.5010    0.9884   18.9975 C.3     1  UNL1        0.0045
     35 C           3.6233    1.1940   18.1747 C.3     1  UNL1        0.0045
     36 C           5.4067    2.2230   17.6639 C.3     1  UNL1        0.0045
     37 C           4.5650   -4.0060   19.4645 C.3     1  UNL1        0.0218
     38 C           3.1463   -3.9376   18.9822 C.3     1  UNL1        0.0045
     39 C           5.9837   -4.0743   19.9468 C.3     1  UNL1        0.0045
     40 C           4.6610   -5.4228   18.9815 C.3     1  UNL1        0.0045
@<TRIPOS>BOND
     1    17    18    1
     2    18    19    1
     3    18    20    1
     4    18     9    1
     5     9    10   ar
     6    10    11   ar
     7    11     1    1
     8     1     2    2
     9     2     3    1
    10     3     4    1
    11     4     5    1
    12     5     6    2
    13     6    25    1
    14    25    26   ar
    15    26    27   ar
    16    27    33    1
    17    33    34    1
    18    33    35    1
    19    33    36    1
    20    27    28   ar
    21    28    29    1
    22    28    30   ar
    23    30    37    1
    24    37    38    1
    25    37    39    1
    26    37    40    1
    27    30    31   ar
    28     5     7    1
    29     7     8    2
    30    11    12   ar
    31    12    13   ar
    32    13    21    1
    33    21    22    1
    34    21    23    1
    35    21    24    1
    36    13    14   ar
    37    14    15    1
    38    14     9   ar
    39     7     2    1
    40    31    25   ar
    41    29    32    1
    42    15    16    1
@<TRIPOS>MOLECULE
*****
 40 42 0 0 0
SMALL
GASTEIGER

@<TRIPOS>ATOM
      1 C           3.5207   -0.5914   23.2400 C.2     1  UNL1       -0.0011
      2 C           2.3414    0.3010   23.4906 C.2     1  UNL1        0.0167
      3 C           1.5028    0.9694   22.4418 C.3     1  UNL1        0.0344
      4 C           0.4367    1.7632   23.1369 C.3     1  UNL1        0.0344
      5 C           0.6164    1.5855   24.6155 C.2     1  UNL1        0.0167
      6 C          -0.2321    2.2029   25.6873 C.2     1  UNL1       -0.0011
      7 C           1.7935    0.6818   24.8341 C.2     1  UNL1        0.1877
      8 O           2.3288    0.2370   26.1628 O.2     1  UNL1       -0.2872
      9 C           4.7403   -0.0493   19.5026 C.ar    1  UNL1        0.0106
     10 C           4.3063    0.2429   20.9083 C.ar    1  UNL1       -0.0013
     11 C           3.9548   -0.8836   21.8342 C.ar    1  UNL1       -0.0006
     12 C           4.0374   -2.3024   21.3544 C.ar    1  UNL1       -0.0013
     13 C           4.4714   -2.5946   19.9487 C.ar    1  UNL1        0.0106
     14 C           4.8229   -1.4680   19.0227 C.ar    1  UNL1        0.1255
     15 O           5.2570   -1.7603   17.6169 O.3     1  UNL1       -0.5061
     16 H           5.3086   -2.6466   17.3172 H       1  UNL1        0.2922
     17 C           3.6469    1.2176   18.1989 C.3     1  UNL1        0.0045
     18 C           5.0918    1.0773   18.5766 C.3     1  UNL1        0.0218
     19 C           6.5366    0.9370   18.9543 C.3     1  UNL1        0.0045
     20 C           5.4432    2.2038   17.6507 C.3     1  UNL1        0.0045
     21 C           4.5541   -4.0134   19.4688 C.3     1  UNL1        0.0218
     22 C           3.1258   -3.9434   19.0158 C.3     1  UNL1        0.0045
     23 C           5.9823   -4.0834   19.9218 C.3     1  UNL1        0.0045
     24 C           4.6367   -5.4321   18.9889 C.3     1  UNL1        0.0045
     25 C          -1.3825    3.0905   25.3147 C.ar    1  UNL1       -0.0006
     26 C          -2.0022    2.9833   23.9530 C.ar    1  UNL1       -0.0013
     27 C          -3.1526    3.8709   23.5805 C.ar    1  UNL1        0.0106
     28 C          -3.6834    4.8656   24.5698 C.ar    1  UNL1        0.1255
     29 O          -4.8338    5.7533   24.1973 O.3     1  UNL1       -0.5061
     30 C          -3.0638    4.9728   25.9316 C.ar    1  UNL1        0.0106
     31 C          -1.9133    4.0852   26.3041 C.ar    1  UNL1       -0.0013
     32 H          -5.2209    5.6863   23.3467 H       1  UNL1        0.2922
     33 C          -3.7723    3.7637   22.2187 C.3     1  UNL1        0.0218
     34 C          -4.8727    2.9168   22.7861 C.3     1  UNL1        0.0045
     35 C          -2.6718    4.6107   21.6513 C.3     1  UNL1        0.0045
     36 C          -4.3919    3.6566   20.8569 C.3     1  UNL1        0.0045
     37 C          -3.5945    5.9676   26.9210 C.3     1  UNL1        0.0218
     38 C          -4.7302    5.0419   27.2424 C.3     1  UNL1        0.0045
     39 C          -2.4588    6.8932   26.5996 C.3     1  UNL1        0.0045
     40 C          -4.1252    6.9623   27.9103 C.3     1  UNL1        0.0045
@<TRIPOS>BOND
     1    17    18    1
     2    18    19    1
     3    18    20    1
     4    18     9    1
     5     9    10   ar
     6    10    11   ar
     7    11     1    1
     8     1     2    2
     9     2     3    1
    10     3     4    1
    11     4     5    1
    12     5     6    2
    13     6    25    1
    14    25    26   ar
    15    26    27   ar
    16    27    33    1
    17    33    34    1
    18    33    35    1
    19    33    36    1
    20    27    28   ar
    21    28    29    1
    22    28    30   ar
    23    30    37    1
    24    37    38    1
    25    37    39    1
    26    37    40    1
    27    30    31   ar
    28     5     7    1
    29     7     8    2
    30    11    12   ar
    31    12    13   ar
    32    13    21    1
    33    21    22    1
    34    21    23    1
    35    21    24    1
    36    13    14   ar
    37    14    15    1
    38    14     9   ar
    39     7     2    1
    40    31    25   ar
    41    29    32    1
    42    15    16    1
@<TRIPOS>MOLECULE
*****
 40 42 0 0 0
SMALL
GASTEIGER

@<TRIPOS>ATOM
      1 C          -0.2845    2.1739   25.6894 C.2     1  UNL1       -0.0011
      2 C           0.5710    1.5643   24.6186 C.2     1  UNL1        0.0167
      3 C           0.3985    1.7497   23.1401 C.3     1  UNL1        0.0344
      4 C           1.4701    0.9623   22.4460 C.3     1  UNL1        0.0344
      5 C           2.3049    0.2902   23.4955 C.2     1  UNL1        0.0167
      6 C           3.4876   -0.5980   23.2462 C.2     1  UNL1       -0.0011
      7 C           1.7492    0.6623   24.8382 C.2     1  UNL1        0.1877
      8 O           2.2788    0.2115   26.1673 O.2     1  UNL1       -0.2872
      9 C          -3.1086    4.9520   25.9260 C.ar    1  UNL1        0.0106
     10 C          -1.9580    4.0653   26.2994 C.ar    1  UNL1       -0.0013
     11 C          -1.4352    3.0607   25.3158 C.ar    1  UNL1       -0.0006
     12 C          -2.0631    2.9429   23.9587 C.ar    1  UNL1       -0.0013
     13 C          -3.2137    3.8297   23.5852 C.ar    1  UNL1        0.0106
     14 C          -3.7365    4.8343   24.5688 C.ar    1  UNL1        0.1255
     15 O          -4.8872    5.7211   24.1953 O.3     1  UNL1       -0.5061
     16 H          -5.2795    5.6475   23.3475 H       1  UNL1        0.2922
     17 C          -2.4856    6.8692   26.5866 C.3     1  UNL1        0.0045
     18 C          -3.6314    5.9566   26.9096 C.3     1  UNL1        0.0218
     19 C          -4.7772    5.0441   27.2326 C.3     1  UNL1        0.0045
     20 C          -4.1542    6.9612   27.8932 C.3     1  UNL1        0.0045
     21 C          -3.8417    3.7119   22.2280 C.3     1  UNL1        0.0218
     22 C          -4.9160    2.8358   22.8010 C.3     1  UNL1        0.0045
     23 C          -2.7674    4.5880   21.6550 C.3     1  UNL1        0.0045
     24 C          -4.4696    3.5942   20.8709 C.3     1  UNL1        0.0045
     25 C           3.9295   -0.8814   21.8410 C.ar    1  UNL1       -0.0006
     26 C           4.0261   -2.2976   21.3564 C.ar    1  UNL1       -0.0013
     27 C           4.4680   -2.5810   19.9513 C.ar    1  UNL1        0.0106
     28 C           4.8134   -1.4482   19.0308 C.ar    1  UNL1        0.1255
     29 O           5.2553   -1.7316   17.6256 O.3     1  UNL1       -0.5061
     30 C           4.7169   -0.0319   19.5154 C.ar    1  UNL1        0.0106
     31 C           4.2749    0.2515   20.9206 C.ar    1  UNL1       -0.0013
     32 H           5.3156   -2.6162   17.3228 H       1  UNL1        0.2922
     33 C           4.5645   -3.9973   19.4666 C.3     1  UNL1        0.0218
     34 C           3.1466   -3.9281   18.9821 C.3     1  UNL1        0.0045
     35 C           5.9824   -4.0665   19.9512 C.3     1  UNL1        0.0045
     36 C           4.6611   -5.4136   18.9820 C.3     1  UNL1        0.0045
     37 C           5.0622    1.1010   18.5949 C.3     1  UNL1        0.0218
     38 C           6.5084    0.9636   18.9685 C.3     1  UNL1        0.0045
     39 C           3.6160    1.2384   18.2213 C.3     1  UNL1        0.0045
     40 C           5.4076    2.2339   17.6745 C.3     1  UNL1        0.0045
@<TRIPOS>BOND
     1    17    18    1
     2    18    19    1
     3    18    20    1
     4    18     9    1
     5     9    10   ar
     6    10    11   ar
     7    11     1    1
     8     1     2    2
     9     2     3    1
    10     3     4    1
    11     4     5    1
    12     5     6    2
    13     6    25    1
    14    25    26   ar
    15    26    27   ar
    16    27    33    1
    17    33    34    1
    18    33    35    1
    19    33    36    1
    20    27    28   ar
    21    28    29    1
    22    28    30   ar
    23    30    37    1
    24    37    38    1
    25    37    39    1
    26    37    40    1
    27    30    31   ar
    28     5     7    1
    29     7     8    2
    30    11    12   ar
    31    12    13   ar
    32    13    21    1
    33    21    22    1
    34    21    23    1
    35    21    24    1
    36    13    14   ar
    37    14    15    1
    38    14     9   ar
    39     7     2    1
    40    31    25   ar
    41    29    32    1
    42    15    16    1
@<TRIPOS>MOLECULE
*****
 40 42 0 0 0
SMALL
GASTEIGER

@<TRIPOS>ATOM
      1 C           3.5700   -0.5969   23.1932 C.2     1  UNL1       -0.0011
      2 C           2.3864    0.2903   23.4419 C.2     1  UNL1        0.0167
      3 C           1.5406    0.9471   22.3916 C.3     1  UNL1        0.0344
      4 C           0.4722    1.7393   23.0851 C.3     1  UNL1        0.0344
      5 C           0.6577    1.5721   24.5642 C.2     1  UNL1        0.0167
      6 C          -0.1908    2.1917   25.6348 C.2     1  UNL1       -0.0011
      7 C           1.8407    0.6766   24.7847 C.2     1  UNL1        0.1877
      8 O           2.3828    0.2435   26.1145 O.2     1  UNL1       -0.2872
      9 C           4.4960   -2.6147   19.9037 C.ar    1  UNL1        0.0106
     10 C           4.0649   -2.3158   21.3089 C.ar    1  UNL1       -0.0013
     11 C           4.0011   -0.8958   21.7879 C.ar    1  UNL1       -0.0006
     12 C           4.3684    0.2254   20.8616 C.ar    1  UNL1       -0.0013
     13 C           4.7995   -0.0735   19.4564 C.ar    1  UNL1        0.0106
     14 C           4.8634   -1.4936   18.9774 C.ar    1  UNL1        0.1255
     15 O           5.2945   -1.7924   17.5721 O.3     1  UNL1       -0.5061
     16 H           5.5240   -1.0921   16.9935 H       1  UNL1        0.2922
     17 C           5.9878   -4.1227   19.8757 C.3     1  UNL1        0.0045
     18 C           4.5599   -4.0348   19.4247 C.3     1  UNL1        0.0218
     19 C           3.1320   -3.9468   18.9738 C.3     1  UNL1        0.0045
     20 C           4.6237   -5.4548   18.9458 C.3     1  UNL1        0.0045
     21 C           5.1669    1.0477   18.5300 C.3     1  UNL1        0.0218
     22 C           3.7209    1.2270   18.1736 C.3     1  UNL1        0.0045
     23 C           6.6128    0.8683   18.8864 C.3     1  UNL1        0.0045
     24 C           5.5342    2.1688   17.6037 C.3     1  UNL1        0.0045
     25 C          -1.3475    3.0702   25.2603 C.ar    1  UNL1       -0.0006
     26 C          -1.9031    4.0441   26.2567 C.ar    1  UNL1       -0.0013
     27 C          -3.0598    4.9226   25.8821 C.ar    1  UNL1        0.0106
     28 C          -3.6609    4.8272   24.5112 C.ar    1  UNL1        0.1255
     29 O          -4.8176    5.7057   24.1366 O.3     1  UNL1       -0.5061
     30 C          -3.1053    3.8533   23.5147 C.ar    1  UNL1        0.0106
     31 C          -1.9486    2.9748   23.8893 C.ar    1  UNL1       -0.0013
     32 H          -5.1647    6.3141   24.7590 H       1  UNL1        0.2922
     33 C          -3.6154    5.8965   26.8785 C.3     1  UNL1        0.0218
     34 C          -4.7154    4.9315   27.2083 C.3     1  UNL1        0.0045
     35 C          -2.5153    6.8615   26.5487 C.3     1  UNL1        0.0045
     36 C          -4.1710    6.8704   27.8749 C.3     1  UNL1        0.0045
     37 C          -3.7064    3.7579   22.1438 C.3     1  UNL1        0.0218
     38 C          -4.8105    2.9005   22.6875 C.3     1  UNL1        0.0045
     39 C          -2.6023    4.6154   21.6000 C.3     1  UNL1        0.0045
     40 C          -4.3075    3.6625   20.7728 C.3     1  UNL1        0.0045
@<TRIPOS>BOND
     1    17    18    1
     2    18    19    1
     3    18    20    1
     4    18     9    1
     5     9    10   ar
     6    10    11   ar
     7    11     1    1
     8     1     2    2
     9     2     3    1
    10     3     4    1
    11     4     5    1
    12     5     6    2
    13     6    25    1
    14    25    26   ar
    15    26    27   ar
    16    27    33    1
    17    33    34    1
    18    33    35    1
    19    33    36    1
    20    27    28   ar
    21    28    29    1
    22    28    30   ar
    23    30    37    1
    24    37    38    1
    25    37    39    1
    26    37    40    1
    27    30    31   ar
    28     5     7    1
    29     7     8    2
    30    11    12   ar
    31    12    13   ar
    32    13    21    1
    33    21    22    1
    34    21    23    1
    35    21    24    1
    36    13    14   ar
    37    14    15    1
    38    14     9   ar
    39     7     2    1
    40    31    25   ar
    41    29    32    1
    42    15    16    1
@<TRIPOS>MOLECULE
*****
 40 42 0 0 0
SMALL
GASTEIGER

@<TRIPOS>ATOM
      1 C           4.7472   -1.2868   28.1203 C.2     1  UNL1       -0.0011
      2 C           4.7155   -1.2958   26.6207 C.2     1  UNL1        0.0167
      3 C           5.7712   -1.8648   25.7198 C.3     1  UNL1        0.0344
      4 C           5.3306   -1.6580   24.3010 C.3     1  UNL1        0.0344
      5 C           4.0025   -0.9611   24.3250 C.2     1  UNL1        0.0167
      6 C           3.1962   -0.5588   23.1258 C.2     1  UNL1       -0.0011
      7 C           3.6224   -0.7373   25.7586 C.2     1  UNL1        0.1877
      8 O           2.3691   -0.0718   26.2448 O.2     1  UNL1       -0.2872
      9 C           7.8648   -1.6531   30.5487 C.ar    1  UNL1        0.0106
     10 C           6.6987   -1.0542   29.8197 C.ar    1  UNL1       -0.0013
     11 C           5.9134   -1.8859   28.8494 C.ar    1  UNL1       -0.0006
     12 C           6.2940   -3.3165   28.6081 C.ar    1  UNL1       -0.0013
     13 C           7.4601   -3.9155   29.3372 C.ar    1  UNL1        0.0106
     14 C           8.2455   -3.0838   30.3075 C.ar    1  UNL1        0.1255
     15 O           9.4116   -3.6828   31.0365 O.3     1  UNL1       -0.5061
     16 H           9.6494   -4.5765   30.8858 H       1  UNL1        0.2922
     17 C           7.7651   -1.2890   32.6362 C.3     1  UNL1        0.0045
     18 C           8.6501   -0.8214   31.5190 C.3     1  UNL1        0.0218
     19 C           9.5352   -0.3539   30.4019 C.3     1  UNL1        0.0045
     20 C           9.4355    0.0103   32.4893 C.3     1  UNL1        0.0045
     21 C           7.8408   -5.3462   29.0959 C.3     1  UNL1        0.0218
     22 C           8.7081   -4.9219   27.9480 C.3     1  UNL1        0.0045
     23 C           6.9736   -5.7705   30.2438 C.3     1  UNL1        0.0045
     24 C           8.2215   -6.7769   28.8547 C.3     1  UNL1        0.0045
     25 C           3.7074   -0.8504   21.7461 C.ar    1  UNL1       -0.0006
     26 C           3.8482   -2.2700   21.2829 C.ar    1  UNL1       -0.0013
     27 C           4.3594   -2.5616   19.9032 C.ar    1  UNL1        0.0106
     28 C           4.7299   -1.4335   18.9867 C.ar    1  UNL1        0.1255
     29 O           5.2412   -1.7250   17.6069 O.3     1  UNL1       -0.5061
     30 C           4.5892   -0.0137   19.4499 C.ar    1  UNL1        0.0106
     31 C           4.0779    0.2778   20.8297 C.ar    1  UNL1       -0.0013
     32 H           5.3291   -2.6119   17.3175 H       1  UNL1        0.2922
     33 C           4.5002   -3.9813   19.4400 C.3     1  UNL1        0.0218
     34 C           3.0708   -3.9746   18.9851 C.3     1  UNL1        0.0045
     35 C           5.9295   -3.9880   19.8948 C.3     1  UNL1        0.0045
     36 C           4.6409   -5.4011   18.9767 C.3     1  UNL1        0.0045
     37 C           4.9597    1.1145   18.5334 C.3     1  UNL1        0.0218
     38 C           3.5385    1.1974   18.0609 C.3     1  UNL1        0.0045
     39 C           6.3809    1.0316   19.0059 C.3     1  UNL1        0.0045
     40 C           5.3302    2.2427   17.6170 C.3     1  UNL1        0.0045
@<TRIPOS>BOND
     1    17    18    1
     2    18    19    1
     3    18    20    1
     4    18     9    1
     5     9    10   ar
     6    10    11   ar
     7    11     1    1
     8     1     2    2
     9     2     3    1
    10     3     4    1
    11     4     5    1
    12     5     6    2
    13     6    25    1
    14    25    26   ar
    15    26    27   ar
    16    27    33    1
    17    33    34    1
    18    33    35    1
    19    33    36    1
    20    27    28   ar
    21    28    29    1
    22    28    30   ar
    23    30    37    1
    24    37    38    1
    25    37    39    1
    26    37    40    1
    27    30    31   ar
    28     5     7    1
    29     7     8    2
    30    11    12   ar
    31    12    13   ar
    32    13    21    1
    33    21    22    1
    34    21    23    1
    35    21    24    1
    36    13    14   ar
    37    14    15    1
    38    14     9   ar
    39     7     2    1
    40    31    25   ar
    41    29    32    1
    42    15    16    1
@<TRIPOS>MOLECULE
*****
 40 42 0 0 0
SMALL
GASTEIGER

@<TRIPOS>ATOM
      1 C           4.7462   -1.3031   28.1434 C.2     1  UNL1       -0.0011
      2 C           4.7151   -1.3077   26.6437 C.2     1  UNL1        0.0167
      3 C           5.7743   -1.8682   25.7416 C.3     1  UNL1        0.0344
      4 C           5.3333   -1.6595   24.3232 C.3     1  UNL1        0.0344
      5 C           4.0014   -0.9699   24.3486 C.2     1  UNL1        0.0167
      6 C           3.1934   -0.5683   23.1504 C.2     1  UNL1       -0.0011
      7 C           3.6194   -0.7525   25.7828 C.2     1  UNL1        0.1877
      8 O           2.3623   -0.0952   26.2704 O.2     1  UNL1       -0.2872
      9 C           7.4672   -3.9233   29.3600 C.ar    1  UNL1        0.0106
     10 C           6.2983   -3.3284   28.6323 C.ar    1  UNL1       -0.0013
     11 C           5.9152   -1.8980   28.8712 C.ar    1  UNL1       -0.0006
     12 C           6.7010   -1.0625   29.8378 C.ar    1  UNL1       -0.0013
     13 C           7.8699   -1.6574   30.5655 C.ar    1  UNL1        0.0106
     14 C           8.2530   -3.0878   30.3266 C.ar    1  UNL1        0.1255
     15 O           9.4220   -3.6828   31.0544 O.3     1  UNL1       -0.5061
     16 H           9.9129   -3.1608   31.6582 H       1  UNL1        0.2922
     17 C           8.7147   -4.9302   27.9707 C.3     1  UNL1        0.0045
     18 C           7.8503   -5.3538   29.1211 C.3     1  UNL1        0.0218
     19 C           6.9859   -5.7774   30.2715 C.3     1  UNL1        0.0045
     20 C           8.2334   -6.7842   28.8822 C.3     1  UNL1        0.0045
     21 C           8.6558   -0.8219   31.5322 C.3     1  UNL1        0.0218
     22 C           9.5359   -0.3532   30.4116 C.3     1  UNL1        0.0045
     23 C           7.7756   -1.2906   32.6527 C.3     1  UNL1        0.0045
     24 C           9.4416    0.0136   32.4988 C.3     1  UNL1        0.0045
     25 C           3.7068   -0.8531   21.7700 C.ar    1  UNL1       -0.0006
     26 C           4.0795    0.2795   20.8599 C.ar    1  UNL1       -0.0013
     27 C           4.5929   -0.0053   19.4796 C.ar    1  UNL1        0.0106
     28 C           4.7337   -1.4227   19.0094 C.ar    1  UNL1        0.1255
     29 O           5.2471   -1.7075   17.6290 O.3     1  UNL1       -0.5061
     30 C           4.3610   -2.5554   19.9195 C.ar    1  UNL1        0.0106
     31 C           3.8476   -2.2705   21.2999 C.ar    1  UNL1       -0.0013
     32 H           5.4799   -1.0000   17.0605 H       1  UNL1        0.2922
     33 C           4.9655    1.1273   18.5695 C.3     1  UNL1        0.0218
     34 C           3.5371    1.2409   18.1260 C.3     1  UNL1        0.0045
     35 C           6.3940    1.0137   19.0130 C.3     1  UNL1        0.0045
     36 C           5.3382    2.2599   17.6593 C.3     1  UNL1        0.0045
     37 C           4.5018   -3.9728   19.4493 C.3     1  UNL1        0.0218
     38 C           5.9275   -3.9858   19.9153 C.3     1  UNL1        0.0045
     39 C           3.0761   -3.9598   18.9833 C.3     1  UNL1        0.0045
     40 C           4.6426   -5.3902   18.9792 C.3     1  UNL1        0.0045
@<TRIPOS>BOND
     1    17    18    1
     2    18    19    1
     3    18    20    1
     4    18     9    1
     5     9    10   ar
     6    10    11   ar
     7    11     1    1
     8     1     2    2
     9     2     3    1
    10     3     4    1
    11     4     5    1
    12     5     6    2
    13     6    25    1
    14    25    26   ar
    15    26    27   ar
    16    27    33    1
    17    33    34    1
    18    33    35    1
    19    33    36    1
    20    27    28   ar
    21    28    29    1
    22    28    30   ar
    23    30    37    1
    24    37    38    1
    25    37    39    1
    26    37    40    1
    27    30    31   ar
    28     5     7    1
    29     7     8    2
    30    11    12   ar
    31    12    13   ar
    32    13    21    1
    33    21    22    1
    34    21    23    1
    35    21    24    1
    36    13    14   ar
    37    14    15    1
    38    14     9   ar
    39     7     2    1
    40    31    25   ar
    41    29    32    1
    42    15    16    1
@<TRIPOS>MOLECULE
*****
 40 42 0 0 0
SMALL
GASTEIGER

@<TRIPOS>ATOM
      1 C           4.7449   -1.2831   28.1451 C.2     1  UNL1       -0.0011
      2 C           4.7216   -1.2946   26.6453 C.2     1  UNL1        0.0167
      3 C           5.7764   -1.8764   25.7515 C.3     1  UNL1        0.0344
      4 C           5.3461   -1.6676   24.3298 C.3     1  UNL1        0.0344
      5 C           4.0253   -0.9567   24.3449 C.2     1  UNL1        0.0167
      6 C           3.2301   -0.5481   23.1404 C.2     1  UNL1       -0.0011
      7 C           3.6394   -0.7262   25.7759 C.2     1  UNL1        0.1877
      8 O           2.3904   -0.0466   26.2537 O.2     1  UNL1       -0.2872
      9 C           7.8414   -1.6791   30.5956 C.ar    1  UNL1        0.0106
     10 C           6.6859   -1.0693   29.8588 C.ar    1  UNL1       -0.0013
     11 C           5.9005   -1.8931   28.8819 C.ar    1  UNL1       -0.0006
     12 C           6.2705   -3.3267   28.6417 C.ar    1  UNL1       -0.0013
     13 C           7.4260   -3.9365   29.3784 C.ar    1  UNL1        0.0106
     14 C           8.2114   -3.1128   30.3554 C.ar    1  UNL1        0.1255
     15 O           9.3670   -3.7227   31.0922 O.3     1  UNL1       -0.5061
     16 H           9.5981   -4.6183   30.9422 H       1  UNL1        0.2922
     17 C           9.5064   -0.3720   30.4578 C.3     1  UNL1        0.0045
     18 C           8.6268   -0.8554   31.5726 C.3     1  UNL1        0.0218
     19 C           7.7472   -1.3387   32.6873 C.3     1  UNL1        0.0045
     20 C           9.4123   -0.0316   32.5495 C.3     1  UNL1        0.0045
     21 C           7.7961   -5.3702   29.1383 C.3     1  UNL1        0.0218
     22 C           8.6807   -4.9515   28.0016 C.3     1  UNL1        0.0045
     23 C           6.9114   -5.7890   30.2750 C.3     1  UNL1        0.0045
     24 C           8.1661   -6.8039   28.8982 C.3     1  UNL1        0.0045
     25 C           3.7461   -0.8477   21.7642 C.ar    1  UNL1       -0.0006
     26 C           4.1293    0.2747   20.8460 C.ar    1  UNL1       -0.0013
     27 C           4.6452   -0.0250   19.4698 C.ar    1  UNL1        0.0106
     28 C           4.7781   -1.4471   19.0118 C.ar    1  UNL1        0.1255
     29 O           5.2941   -1.7469   17.6356 O.3     1  UNL1       -0.5061
     30 C           4.3949   -2.5697   19.9300 C.ar    1  UNL1        0.0106
     31 C           3.8789   -2.2699   21.3063 C.ar    1  UNL1       -0.0013
     32 H           5.5334   -1.0457   17.0619 H       1  UNL1        0.2922
     33 C           5.0284    1.0975   18.5515 C.3     1  UNL1        0.0218
     34 C           3.6115    1.1846   18.0668 C.3     1  UNL1        0.0045
     35 C           6.4453    1.0103   19.0362 C.3     1  UNL1        0.0045
     36 C           5.4116    2.2200   17.6333 C.3     1  UNL1        0.0045
     37 C           4.5277   -3.9919   19.4721 C.3     1  UNL1        0.0218
     38 C           3.1102   -3.9666   18.9823 C.3     1  UNL1        0.0045
     39 C           5.9453   -4.0172   19.9619 C.3     1  UNL1        0.0045
     40 C           4.6605   -5.4141   19.0142 C.3     1  UNL1        0.0045
@<TRIPOS>BOND
     1    17    18    1
     2    18    19    1
     3    18    20    1
     4    18     9    1
     5     9    10   ar
     6    10    11   ar
     7    11     1    1
     8     1     2    2
     9     2     3    1
    10     3     4    1
    11     4     5    1
    12     5     6    2
    13     6    25    1
    14    25    26   ar
    15    26    27   ar
    16    27    33    1
    17    33    34    1
    18    33    35    1
    19    33    36    1
    20    27    28   ar
    21    28    29    1
    22    28    30   ar
    23    30    37    1
    24    37    38    1
    25    37    39    1
    26    37    40    1
    27    30    31   ar
    28     5     7    1
    29     7     8    2
    30    11    12   ar
    31    12    13   ar
    32    13    21    1
    33    21    22    1
    34    21    23    1
    35    21    24    1
    36    13    14   ar
    37    14    15    1
    38    14     9   ar
    39     7     2    1
    40    31    25   ar
    41    29    32    1
    42    15    16    1
