@<TRIPOS>MOLECULE
*****
 38 40 0 0 0
SMALL
GASTEIGER

@<TRIPOS>ATOM
      1 C           3.7590   -1.3261   21.3053 C.ar    1  UNL1       -0.0185
      2 C           3.1095   -0.3187   22.2071 C.ar    1  UNL1       -0.0041
      3 C           1.9979    0.5451   21.6891 C.ar    1  UNL1        0.0057
      4 C           1.5359    0.4014   20.2693 C.ar    1  UNL1        0.0696
      5 C           2.1854   -0.6060   19.3675 C.ar    1  UNL1        0.0095
      6 C           3.2969   -1.4698   19.8855 C.ar    1  UNL1        0.0677
      7 C           8.2052   -4.7812   23.3773 C.2     1  UNL1        0.2491
      8 O           9.5357   -4.7870   22.6846 O.2     1  UNL1       -0.2699
      9 N           7.0937   -3.9175   22.8594 N.am    1  UNL1       -0.2761
     10 C           5.7632   -3.9117   23.5521 C.3     1  UNL1        0.0940
     11 C           4.6516   -3.0479   23.0340 C.3     1  UNL1        0.0259
     12 C           4.8705   -2.1899   21.8233 C.3     1  UNL1        0.0257
     13 C           6.2010   -2.1956   21.1306 C.3     1  UNL1        0.0259
     14 C           7.3125   -3.0594   21.6486 C.3     1  UNL1        0.0940
     15 C           7.4404   -5.8631   27.1183 C.ar    1  UNL1        0.1059
     16 C           7.5486   -7.3552   27.0096 C.ar    1  UNL1        0.0183
     17 C           7.8757   -7.9893   25.6902 C.ar    1  UNL1        0.0015
     18 C           8.0945   -7.1314   24.4794 C.ar    1  UNL1        0.0046
     19 C           7.9863   -5.6393   24.5881 C.ar    1  UNL1        0.0549
     20 C           7.6593   -5.0051   25.9076 C.ar    1  UNL1        0.0229
     21 C           6.7862   -4.5948   29.7571 C.3     1  UNL1        0.1816
     22 S           7.1133   -5.2290   28.4377 S.O2    1  UNL1        0.0105
     23 O           7.5928   -6.4600   29.1482 O.2     1  UNL1       -0.1686
     24 O           6.6338   -3.9980   27.7272 O.2     1  UNL1       -0.1686
     25 C           0.4243    1.2652   19.7513 C.2     1  UNL1        0.3078
     26 O           0.3153    1.5461   18.2819 O.2     1  UNL1       -0.2516
     27 N          -0.5782    1.8480   20.7027 N.am    1  UNL1       -0.1708
     28 H          -0.5067    1.6636   21.6672 H       1  UNL1        0.2545
     29 C          -1.6898    2.7118   20.1847 C.2     1  UNL1        0.3751
     30 N          -3.0508    2.6385   20.8111 N.pl3   1  UNL1       -0.1313
     31 N          -1.4404    3.6488   19.0402 N.pl3   1  UNL1       -0.2906
     32 H          -3.2145    2.0236   21.5622 H       1  UNL1        0.3060
     33 H          -0.5471    3.6969   18.6291 H       1  UNL1        0.2545
     34 H          -2.1699    4.2157   18.7002 H       1  UNL1        0.2545
     35 C           3.9464   -2.4772   18.9837 C.3     1  UNL1        0.4183
     36 F           4.5959   -3.4846   18.0819 F       1  UNL1       -0.1659
     37 F           3.1526   -3.5712   19.6341 F       1  UNL1       -0.1659
     38 F           4.7403   -1.3832   18.3333 F       1  UNL1       -0.1659
@<TRIPOS>BOND
     1    21    22    1
     2    22    23    2
     3    22    24    2
     4    22    15    1
     5    15    16   ar
     6    16    17   ar
     7    17    18   ar
     8    18    19   ar
     9    19     7    1
    10     7     8    2
    11     7     9   am
    12     9    10    1
    13    10    11    1
    14    11    12    1
    15    12     1    1
    16     1     2   ar
    17     2     3   ar
    18     3     4   ar
    19     4    25    1
    20    25    26    2
    21    25    27   am
    22    27    29    1
    23    29    30    2
    24    29    31    1
    25     4     5   ar
    26     5     6   ar
    27     6    35    1
    28    35    36    1
    29    35    37    1
    30    35    38    1
    31    12    13    1
    32    13    14    1
    33    19    20   ar
    34    20    15   ar
    35    14     9    1
    36     6     1   ar
    37    27    28    1
    38    30    32    1
    39    31    33    1
    40    31    34    1
@<TRIPOS>MOLECULE
*****
 38 40 0 0 0
SMALL
GASTEIGER

@<TRIPOS>ATOM
      1 C           6.7549   -3.0546   31.4266 C.ar    1  UNL1       -0.0185
      2 C           6.9350   -4.5038   31.7690 C.ar    1  UNL1       -0.0041
      3 C           7.0264   -5.5270   30.6760 C.ar    1  UNL1        0.0057
      4 C           6.9378   -5.1010   29.2405 C.ar    1  UNL1        0.0696
      5 C           6.7577   -3.6517   28.8980 C.ar    1  UNL1        0.0095
      6 C           6.6663   -2.6286   29.9910 C.ar    1  UNL1        0.0677
      7 C           6.3889    1.0382   35.7986 C.2     1  UNL1        0.2491
      8 O           7.6314    1.7112   36.3019 O.2     1  UNL1       -0.2699
      9 N           6.4804    0.0150   34.7056 N.am    1  UNL1       -0.2761
     10 C           5.2379   -0.6580   34.2024 C.3     1  UNL1        0.0940
     11 C           5.3294   -1.6812   33.1093 C.3     1  UNL1        0.0259
     12 C           6.6634   -2.0314   32.5196 C.3     1  UNL1        0.0257
     13 C           7.9059   -1.3584   33.0228 C.3     1  UNL1        0.0259
     14 C           7.8144   -0.3352   34.1158 C.3     1  UNL1        0.0940
     15 C           2.8984    2.8373   36.3727 C.ar    1  UNL1        0.1059
     16 C           2.3869    2.0890   37.5678 C.ar    1  UNL1        0.0183
     17 C           3.2095    0.9903   38.1732 C.ar    1  UNL1        0.0015
     18 C           4.5434    0.6401   37.5835 C.ar    1  UNL1        0.0046
     19 C           5.0549    1.3884   36.3884 C.ar    1  UNL1        0.0549
     20 C           4.2323    2.4871   35.7830 C.ar    1  UNL1        0.0229
     21 C           1.2533    5.0345   35.1619 C.3     1  UNL1        0.1816
     22 S           2.0758    3.9359   35.7673 S.O2    1  UNL1        0.0105
     23 O           2.9367    3.9038   34.5394 O.2     1  UNL1       -0.1686
     24 O           1.2150    3.9681   36.9953 O.2     1  UNL1       -0.1686
     25 C           7.0293   -6.1242   28.1475 C.2     1  UNL1        0.3078
     26 O           6.3245   -5.8938   26.8435 O.2     1  UNL1       -0.2516
     27 N           7.8255   -7.3778   28.3584 N.am    1  UNL1       -0.1708
     28 H           8.2881   -7.5290   29.2142 H       1  UNL1        0.2545
     29 C           7.9170   -8.4010   27.2653 C.2     1  UNL1        0.3751
     30 N           8.4264   -8.0076   25.9105 N.pl3   1  UNL1       -0.1313
     31 N           7.4990   -9.8176   27.5272 N.pl3   1  UNL1       -0.2906
     32 H           8.7008   -7.0778   25.7386 H       1  UNL1        0.3060
     33 H           7.1646  -10.0758   28.4165 H       1  UNL1        0.2545
     34 H           7.5590  -10.4891   26.8098 H       1  UNL1        0.2545
     35 C           6.4862   -1.1793   29.6486 C.3     1  UNL1        0.4183
     36 F           6.3061    0.2699   29.3061 F       1  UNL1       -0.1659
     37 F           4.9971   -1.3516   29.7028 F       1  UNL1       -0.1659
     38 F           7.9752   -1.0071   29.5943 F       1  UNL1       -0.1659
@<TRIPOS>BOND
     1    21    22    1
     2    22    23    2
     3    22    24    2
     4    22    15    1
     5    15    16   ar
     6    16    17   ar
     7    17    18   ar
     8    18    19   ar
     9    19     7    1
    10     7     8    2
    11     7     9   am
    12     9    10    1
    13    10    11    1
    14    11    12    1
    15    12     1    1
    16     1     2   ar
    17     2     3   ar
    18     3     4   ar
    19     4    25    1
    20    25    26    2
    21    25    27   am
    22    27    29    1
    23    29    30    2
    24    29    31    1
    25     4     5   ar
    26     5     6   ar
    27     6    35    1
    28    35    36    1
    29    35    37    1
    30    35    38    1
    31    12    13    1
    32    13    14    1
    33    19    20   ar
    34    20    15   ar
    35    14     9    1
    36     6     1   ar
    37    27    28    1
    38    30    32    1
    39    31    33    1
    40    31    34    1
@<TRIPOS>MOLECULE
*****
 38 40 0 0 0
SMALL
GASTEIGER

@<TRIPOS>ATOM
      1 C           6.6373   -2.7257   31.6990 C.ar    1  UNL1       -0.0185
      2 C           6.8367   -4.1665   32.0656 C.ar    1  UNL1       -0.0041
      3 C           6.9558   -5.2047   30.9895 C.ar    1  UNL1        0.0057
      4 C           6.8756   -4.8021   29.5468 C.ar    1  UNL1        0.0696
      5 C           6.6762   -3.3613   29.1801 C.ar    1  UNL1        0.0095
      6 C           6.5571   -2.3231   30.2562 C.ar    1  UNL1        0.0677
      7 C           6.1608    1.4271   36.0032 C.2     1  UNL1        0.2491
      8 O           7.3750    1.8485   36.7766 O.2     1  UNL1       -0.2699
      9 N           6.2799    0.3889   34.9272 N.am    1  UNL1       -0.2761
     10 C           5.0656   -0.0325   34.1538 C.3     1  UNL1        0.0940
     11 C           5.1848   -1.0707   33.0777 C.3     1  UNL1        0.0259
     12 C           6.5182   -1.6875   32.7750 C.3     1  UNL1        0.0257
     13 C           7.7324   -1.2661   33.5484 C.3     1  UNL1        0.0259
     14 C           7.6133   -0.2279   34.6244 C.3     1  UNL1        0.0940
     15 C           2.6528    2.1179   37.7259 C.ar    1  UNL1        0.1059
     16 C           2.1606    3.2775   36.9116 C.ar    1  UNL1        0.0183
     17 C           3.0018    3.8203   35.7945 C.ar    1  UNL1        0.0015
     18 C           4.3351    3.2035   35.4917 C.ar    1  UNL1        0.0046
     19 C           4.8273    2.0440   36.3060 C.ar    1  UNL1        0.0549
     20 C           3.9862    1.5012   37.4231 C.ar    1  UNL1        0.0229
     21 C           0.9706    1.0324   39.9600 C.3     1  UNL1        0.1816
     22 S           1.8117    1.5752   38.8430 S.O2    1  UNL1        0.0105
     23 O           2.9540    0.7074   39.2814 O.2     1  UNL1       -0.1686
     24 O           0.6694    2.4429   38.4045 O.2     1  UNL1       -0.1686
     25 C           6.9947   -5.8403   28.4707 C.2     1  UNL1        0.3078
     26 O           6.2250   -5.6872   27.1923 O.2     1  UNL1       -0.2516
     27 N           7.8835   -7.0316   28.6730 N.am    1  UNL1       -0.1708
     28 H           8.3886   -7.1321   29.5120 H       1  UNL1        0.2545
     29 C           8.0026   -8.0698   27.5969 C.2     1  UNL1        0.3751
     30 N           9.3187   -8.7451   27.3486 N.pl3   1  UNL1       -0.1313
     31 N           6.8055   -8.4326   26.7690 N.pl3   1  UNL1       -0.2906
     32 H          10.1044   -8.5070   27.8920 H       1  UNL1        0.3060
     33 H           5.9416   -7.9894   26.9320 H       1  UNL1        0.2545
     34 H           6.8836   -9.1140   26.0628 H       1  UNL1        0.2545
     35 C           6.3577   -0.8824   29.8895 C.3     1  UNL1        0.4183
     36 F           6.1583    0.5584   29.5229 F       1  UNL1       -0.1659
     37 F           7.8362   -0.6514   29.9930 F       1  UNL1       -0.1659
     38 F           4.8792   -1.1133   29.7861 F       1  UNL1       -0.1659
@<TRIPOS>BOND
     1    21    22    1
     2    22    23    2
     3    22    24    2
     4    22    15    1
     5    15    16   ar
     6    16    17   ar
     7    17    18   ar
     8    18    19   ar
     9    19     7    1
    10     7     8    2
    11     7     9   am
    12     9    10    1
    13    10    11    1
    14    11    12    1
    15    12     1    1
    16     1     2   ar
    17     2     3   ar
    18     3     4   ar
    19     4    25    1
    20    25    26    2
    21    25    27   am
    22    27    29    1
    23    29    30    2
    24    29    31    1
    25     4     5   ar
    26     5     6   ar
    27     6    35    1
    28    35    36    1
    29    35    37    1
    30    35    38    1
    31    12    13    1
    32    13    14    1
    33    19    20   ar
    34    20    15   ar
    35    14     9    1
    36     6     1   ar
    37    27    28    1
    38    30    32    1
    39    31    33    1
    40    31    34    1
@<TRIPOS>MOLECULE
*****
 38 40 0 0 0
SMALL
GASTEIGER

@<TRIPOS>ATOM
      1 C           1.2328    1.5416   28.0463 C.ar    1  UNL1       -0.0185
      2 C           2.7130    1.7056   27.8665 C.ar    1  UNL1       -0.0041
      3 C           3.6636    0.8816   28.6834 C.ar    1  UNL1        0.0057
      4 C           3.1341   -0.1065   29.6800 C.ar    1  UNL1        0.0696
      5 C           1.6540   -0.2706   29.8598 C.ar    1  UNL1        0.0095
      6 C           0.7034    0.5534   29.0430 C.ar    1  UNL1        0.0677
      7 C          -2.5697    4.8376   24.7789 C.2     1  UNL1        0.2491
      8 O          -2.9303    6.2250   25.2208 O.2     1  UNL1       -0.2699
      9 N          -1.6191    4.0136   25.5957 N.am    1  UNL1       -0.2761
     10 C          -1.2586    2.6263   25.1539 C.3     1  UNL1        0.0940
     11 C          -0.3079    1.8022   25.9708 C.3     1  UNL1        0.0259
     12 C           0.2822    2.3656   27.2295 C.3     1  UNL1        0.0257
     13 C          -0.0783    3.7529   27.6713 C.3     1  UNL1        0.0259
     14 C          -1.0289    4.5770   26.8545 C.3     1  UNL1        0.0940
     15 C          -2.9975    3.8156   20.9681 C.ar    1  UNL1        0.1059
     16 C          -4.3401    3.1477   21.0027 C.ar    1  UNL1        0.0183
     17 C          -5.0926    3.0431   22.2960 C.ar    1  UNL1        0.0015
     18 C          -4.5025    3.6064   23.5548 C.ar    1  UNL1        0.0046
     19 C          -3.1599    4.2743   23.5201 C.ar    1  UNL1        0.0549
     20 C          -2.4074    4.3789   22.2268 C.ar    1  UNL1        0.0229
     21 C          -1.4924    4.0247   18.3814 C.3     1  UNL1        0.1816
     22 S          -2.2449    3.9201   19.6747 S.O2    1  UNL1        0.0105
     23 O          -3.5384    3.8612   18.9174 O.2     1  UNL1       -0.1686
     24 O          -0.9515    3.9790   20.4321 O.2     1  UNL1       -0.1686
     25 C           4.0848   -0.9305   30.4968 C.2     1  UNL1        0.3078
     26 O           5.4025   -1.3509   29.9164 O.2     1  UNL1       -0.2516
     27 N           3.7177   -1.3342   31.8941 N.am    1  UNL1       -0.1708
     28 H           2.8528   -1.0583   32.2751 H       1  UNL1        0.2545
     29 C           4.6684   -2.1583   32.7109 C.2     1  UNL1        0.3751
     30 N           4.1688   -3.3590   33.4584 N.pl3   1  UNL1       -0.1313
     31 N           6.1187   -1.7815   32.7803 N.pl3   1  UNL1       -0.2906
     32 H           3.2170   -3.6062   33.4129 H       1  UNL1        0.3060
     33 H           6.4466   -0.9935   32.2897 H       1  UNL1        0.2545
     34 H           6.7427   -2.3224   33.3164 H       1  UNL1        0.2545
     35 C          -0.7767    0.3893   29.2228 C.3     1  UNL1        0.4183
     36 F          -2.2569    0.2253   29.4025 F       1  UNL1       -0.1659
     37 F          -0.7910   -0.6582   28.1492 F       1  UNL1       -0.1659
     38 F          -0.7625    1.4369   30.2963 F       1  UNL1       -0.1659
@<TRIPOS>BOND
     1    21    22    1
     2    22    23    2
     3    22    24    2
     4    22    15    1
     5    15    16   ar
     6    16    17   ar
     7    17    18   ar
     8    18    19   ar
     9    19     7    1
    10     7     8    2
    11     7     9   am
    12     9    10    1
    13    10    11    1
    14    11    12    1
    15    12     1    1
    16     1     2   ar
    17     2     3   ar
    18     3     4   ar
    19     4    25    1
    20    25    26    2
    21    25    27   am
    22    27    29    1
    23    29    30    2
    24    29    31    1
    25     4     5   ar
    26     5     6   ar
    27     6    35    1
    28    35    36    1
    29    35    37    1
    30    35    38    1
    31    12    13    1
    32    13    14    1
    33    19    20   ar
    34    20    15   ar
    35    14     9    1
    36     6     1   ar
    37    27    28    1
    38    30    32    1
    39    31    33    1
    40    31    34    1
@<TRIPOS>MOLECULE
*****
 38 40 0 0 0
SMALL
GASTEIGER

@<TRIPOS>ATOM
      1 C           2.5230    0.1340   21.8584 C.ar    1  UNL1       -0.0185
      2 C           2.7523   -0.1090   23.3207 C.ar    1  UNL1       -0.0041
      3 C           3.6359   -1.2372   23.7640 C.ar    1  UNL1        0.0057
      4 C           4.2901   -2.1224   22.7449 C.ar    1  UNL1        0.0696
      5 C           4.0608   -1.8794   21.2826 C.ar    1  UNL1        0.0095
      6 C           3.1773   -0.7512   20.8393 C.ar    1  UNL1        0.0677
      7 C          -1.0111    4.6468   20.0851 C.2     1  UNL1        0.2491
      8 O          -0.4504    6.0320   19.9551 O.2     1  UNL1       -0.2699
      9 N          -0.1276    3.5186   20.5284 N.am    1  UNL1       -0.2761
     10 C          -0.6883    2.1335   20.6584 C.3     1  UNL1        0.0940
     11 C           0.1953    1.0052   21.1018 C.3     1  UNL1        0.0259
     12 C           1.6395    1.2622   21.4151 C.3     1  UNL1        0.0257
     13 C           2.2002    2.6474   21.2851 C.3     1  UNL1        0.0259
     14 C           1.3167    3.7756   20.8418 C.3     1  UNL1        0.0940
     15 C          -4.9208    4.1550   20.5570 C.ar    1  UNL1        0.1059
     16 C          -5.3438    3.8760   19.1453 C.ar    1  UNL1        0.0183
     17 C          -4.3226    3.8539   18.0468 C.ar    1  UNL1        0.0015
     18 C          -2.8784    4.1108   18.3600 C.ar    1  UNL1        0.0046
     19 C          -2.4554    4.3899   19.7718 C.ar    1  UNL1        0.0549
     20 C          -3.4765    4.4120   20.8703 C.ar    1  UNL1        0.0229
     21 C          -6.9631    4.1993   22.7540 C.3     1  UNL1        0.1816
     22 S          -5.9419    4.1772   21.6555 S.O2    1  UNL1        0.0105
     23 O          -5.1281    3.1849   22.4321 O.2     1  UNL1       -0.1686
     24 O          -6.7558    5.1695   20.8790 O.2     1  UNL1       -0.1686
     25 C           5.1736   -3.2506   23.1882 C.2     1  UNL1        0.3078
     26 O           5.5360   -4.3423   22.2254 O.2     1  UNL1       -0.2516
     27 N           5.6948   -3.2871   24.5943 N.am    1  UNL1       -0.1708
     28 H           5.4569   -2.5707   25.2262 H       1  UNL1        0.2545
     29 C           6.5783   -4.4154   25.0376 C.2     1  UNL1        0.3751
     30 N           7.6106   -4.9716   24.1022 N.pl3   1  UNL1       -0.1313
     31 N           6.4295   -4.9874   26.4162 N.pl3   1  UNL1       -0.2906
     32 H           7.7083   -4.5962   23.1974 H       1  UNL1        0.3060
     33 H           5.7519   -4.6223   27.0301 H       1  UNL1        0.2545
     34 H           7.0094   -5.7279   26.7072 H       1  UNL1        0.2545
     35 C           2.9480   -0.5082   19.3770 C.3     1  UNL1        0.4183
     36 F           2.7187   -0.2652   17.9147 F       1  UNL1       -0.1659
     37 F           1.7290   -1.3810   19.4231 F       1  UNL1       -0.1659
     38 F           4.1670    0.3647   19.3309 F       1  UNL1       -0.1659
@<TRIPOS>BOND
     1    21    22    1
     2    22    23    2
     3    22    24    2
     4    22    15    1
     5    15    16   ar
     6    16    17   ar
     7    17    18   ar
     8    18    19   ar
     9    19     7    1
    10     7     8    2
    11     7     9   am
    12     9    10    1
    13    10    11    1
    14    11    12    1
    15    12     1    1
    16     1     2   ar
    17     2     3   ar
    18     3     4   ar
    19     4    25    1
    20    25    26    2
    21    25    27   am
    22    27    29    1
    23    29    30    2
    24    29    31    1
    25     4     5   ar
    26     5     6   ar
    27     6    35    1
    28    35    36    1
    29    35    37    1
    30    35    38    1
    31    12    13    1
    32    13    14    1
    33    19    20   ar
    34    20    15   ar
    35    14     9    1
    36     6     1   ar
    37    27    28    1
    38    30    32    1
    39    31    33    1
    40    31    34    1
@<TRIPOS>MOLECULE
*****
 38 40 0 0 0
SMALL
GASTEIGER

@<TRIPOS>ATOM
      1 C          -1.2275    3.1876   24.9342 C.ar    1  UNL1       -0.0185
      2 C          -2.1915    3.5983   23.8608 C.ar    1  UNL1       -0.0041
      3 C          -3.5439    4.1312   24.2312 C.ar    1  UNL1        0.0057
      4 C          -3.9323    4.2533   25.6749 C.ar    1  UNL1        0.0696
      5 C          -2.9683    3.8426   26.7482 C.ar    1  UNL1        0.0095
      6 C          -1.6160    3.3097   26.3779 C.ar    1  UNL1        0.0677
      7 C           4.1819    1.0560   23.4529 C.2     1  UNL1        0.2491
      8 O           5.3344    1.9981   23.2681 O.2     1  UNL1       -0.2699
      9 N           2.8295    1.5889   23.8232 N.am    1  UNL1       -0.2761
     10 C           1.6770    0.6468   24.0080 C.3     1  UNL1        0.0940
     11 C           0.3246    1.1797   24.3783 C.3     1  UNL1        0.0259
     12 C           0.1248    2.6547   24.5639 C.3     1  UNL1        0.0257
     13 C           1.2773    3.5968   24.3791 C.3     1  UNL1        0.0259
     14 C           2.6297    3.0639   24.0088 C.3     1  UNL1        0.0940
     15 C           4.2769   -2.5315   21.7585 C.ar    1  UNL1        0.1059
     16 C           4.7814   -3.3690   22.8961 C.ar    1  UNL1        0.0183
     17 C           5.0861   -2.7315   24.2192 C.ar    1  UNL1        0.0015
     18 C           4.8863   -1.2565   24.4049 C.ar    1  UNL1        0.0046
     19 C           4.3817   -0.4191   23.2673 C.ar    1  UNL1        0.0549
     20 C           4.0770   -1.0566   21.9441 C.ar    1  UNL1        0.0229
     21 C           3.6675   -3.8065   19.1122 C.3     1  UNL1        0.1816
     22 S           3.9722   -3.1690   20.4354 S.O2    1  UNL1        0.0105
     23 O           3.3133   -1.9020   19.9766 O.2     1  UNL1       -0.1686
     24 O           4.6311   -4.4361   20.8941 O.2     1  UNL1       -0.1686
     25 C          -5.2846    4.7862   26.0452 C.2     1  UNL1        0.3078
     26 O          -6.4420    4.6121   25.1070 O.2     1  UNL1       -0.2516
     27 N          -5.4796    5.4932   27.3537 N.am    1  UNL1       -0.1708
     28 H          -4.7200    5.6075   27.9695 H       1  UNL1        0.2545
     29 C          -6.8321    6.0261   27.7240 C.2     1  UNL1        0.3751
     30 N          -7.3359    5.8819   29.1294 N.pl3   1  UNL1       -0.1313
     31 N          -7.6806    6.7031   26.6888 N.pl3   1  UNL1       -0.2906
     32 H          -6.7790    5.4375   29.8088 H       1  UNL1        0.3060
     33 H          -7.3498    6.7978   25.7663 H       1  UNL1        0.2545
     34 H          -8.5682    7.0529   26.9318 H       1  UNL1        0.2545
     35 C          -0.6520    2.8989   27.4513 C.3     1  UNL1        0.4183
     36 F           0.3119    2.4882   28.5246 F       1  UNL1       -0.1659
     37 F          -0.1010    4.2935   27.4901 F       1  UNL1       -0.1659
     38 F          -1.2031    1.5043   27.4124 F       1  UNL1       -0.1659
@<TRIPOS>BOND
     1    21    22    1
     2    22    23    2
     3    22    24    2
     4    22    15    1
     5    15    16   ar
     6    16    17   ar
     7    17    18   ar
     8    18    19   ar
     9    19     7    1
    10     7     8    2
    11     7     9   am
    12     9    10    1
    13    10    11    1
    14    11    12    1
    15    12     1    1
    16     1     2   ar
    17     2     3   ar
    18     3     4   ar
    19     4    25    1
    20    25    26    2
    21    25    27   am
    22    27    29    1
    23    29    30    2
    24    29    31    1
    25     4     5   ar
    26     5     6   ar
    27     6    35    1
    28    35    36    1
    29    35    37    1
    30    35    38    1
    31    12    13    1
    32    13    14    1
    33    19    20   ar
    34    20    15   ar
    35    14     9    1
    36     6     1   ar
    37    27    28    1
    38    30    32    1
    39    31    33    1
    40    31    34    1
@<TRIPOS>MOLECULE
*****
 38 40 0 0 0
SMALL
GASTEIGER

@<TRIPOS>ATOM
      1 C           3.5493   -1.0032   21.2479 C.ar    1  UNL1       -0.0185
      2 C           2.5419   -1.4703   20.2395 C.ar    1  UNL1       -0.0041
      3 C           1.4431   -0.5506   19.7955 C.ar    1  UNL1        0.0057
      4 C           1.3519    0.8361   20.3600 C.ar    1  UNL1        0.0696
      5 C           2.3593    1.3032   21.3684 C.ar    1  UNL1        0.0095
      6 C           3.4580    0.3836   21.8124 C.ar    1  UNL1        0.0677
      7 C           7.9440   -4.6818   23.0239 C.2     1  UNL1        0.2491
      8 O           9.1968   -4.8024   22.2078 O.2     1  UNL1       -0.2699
      9 N           6.8453   -3.7621   22.5800 N.am    1  UNL1       -0.2761
     10 C           5.5926   -3.6415   23.3961 C.3     1  UNL1        0.0940
     11 C           4.4939   -2.7218   22.9520 C.3     1  UNL1        0.0259
     12 C           4.6479   -1.9228   21.6919 C.3     1  UNL1        0.0257
     13 C           5.9007   -2.0435   20.8758 C.3     1  UNL1        0.0259
     14 C           6.9994   -2.9631   21.3198 C.3     1  UNL1        0.0940
     15 C           7.2775   -5.5929   26.8286 C.ar    1  UNL1        0.1059
     16 C           7.4819   -7.0786   26.8043 C.ar    1  UNL1        0.0183
     17 C           7.8403   -7.7655   25.5199 C.ar    1  UNL1        0.0015
     18 C           7.9943   -6.9666   24.2598 C.ar    1  UNL1        0.0046
     19 C           7.7900   -5.4808   24.2841 C.ar    1  UNL1        0.0549
     20 C           7.4315   -4.7939   25.5685 C.ar    1  UNL1        0.0229
     21 C           6.5606   -4.2192   29.3975 C.3     1  UNL1        0.1816
     22 S           6.9191   -4.9060   28.1131 S.O2    1  UNL1        0.0105
     23 O           6.5338   -3.6751   27.3473 O.2     1  UNL1       -0.1686
     24 O           7.3044   -6.1369   28.8788 O.2     1  UNL1       -0.1686
     25 C           0.2532    1.7557   19.9160 C.2     1  UNL1        0.3078
     26 O           0.2512    2.3022   18.5190 O.2     1  UNL1       -0.2516
     27 N          -0.8435    2.1289   20.8689 N.am    1  UNL1       -0.1708
     28 H          -0.8422    1.7703   21.7857 H       1  UNL1        0.2545
     29 C          -1.9422    3.0486   20.4248 C.2     1  UNL1        0.3751
     30 N          -1.6112    4.3067   19.6782 N.pl3   1  UNL1       -0.1313
     31 N          -3.3718    2.7100   20.7274 N.pl3   1  UNL1       -0.2906
     32 H          -0.6729    4.5289   19.4797 H       1  UNL1        0.3060
     33 H          -3.5890    1.8842   21.2175 H       1  UNL1        0.2545
     34 H          -4.0929    3.3136   20.4360 H       1  UNL1        0.2545
     35 C           4.4654    0.8507   22.8208 C.3     1  UNL1        0.4183
     36 F           5.4728    1.3178   23.8293 F       1  UNL1       -0.1659
     37 F           3.5716    0.3822   23.9307 F       1  UNL1       -0.1659
     38 F           5.3592    1.3191   21.7110 F       1  UNL1       -0.1659
@<TRIPOS>BOND
     1    21    22    1
     2    22    23    2
     3    22    24    2
     4    22    15    1
     5    15    16   ar
     6    16    17   ar
     7    17    18   ar
     8    18    19   ar
     9    19     7    1
    10     7     8    2
    11     7     9   am
    12     9    10    1
    13    10    11    1
    14    11    12    1
    15    12     1    1
    16     1     2   ar
    17     2     3   ar
    18     3     4   ar
    19     4    25    1
    20    25    26    2
    21    25    27   am
    22    27    29    1
    23    29    30    2
    24    29    31    1
    25     4     5   ar
    26     5     6   ar
    27     6    35    1
    28    35    36    1
    29    35    37    1
    30    35    38    1
    31    12    13    1
    32    13    14    1
    33    19    20   ar
    34    20    15   ar
    35    14     9    1
    36     6     1   ar
    37    27    28    1
    38    30    32    1
    39    31    33    1
    40    31    34    1
@<TRIPOS>MOLECULE
*****
 38 40 0 0 0
SMALL
GASTEIGER

@<TRIPOS>ATOM
      1 C           6.3430   -3.9581   24.8072 C.ar    1  UNL1       -0.0185
      2 C           5.2257   -3.1196   24.2610 C.ar    1  UNL1       -0.0041
      3 C           5.0663   -2.9560   22.7785 C.ar    1  UNL1        0.0057
      4 C           6.0243   -3.6309   21.8422 C.ar    1  UNL1        0.0696
      5 C           7.1417   -4.4694   22.3884 C.ar    1  UNL1        0.0095
      6 C           7.3011   -4.6330   23.8709 C.ar    1  UNL1        0.0677
      7 C           6.9806   -4.6124   30.7372 C.2     1  UNL1        0.2491
      8 O           6.9294   -5.9803   31.3507 O.2     1  UNL1       -0.2699
      9 N           6.8212   -4.4488   29.2548 N.am    1  UNL1       -0.2761
     10 C           6.8724   -3.0809   28.6413 C.3     1  UNL1        0.0940
     11 C           6.7130   -2.9174   27.1588 C.3     1  UNL1        0.0259
     12 C           6.5024   -4.1217   26.2897 C.3     1  UNL1        0.0257
     13 C           6.4512   -5.4895   26.9031 C.3     1  UNL1        0.0259
     14 C           6.6106   -5.6531   28.3856 C.3     1  UNL1        0.0940
     15 C           6.2237   -1.4037   32.9467 C.ar    1  UNL1        0.1059
     16 C           7.6123   -0.9996   33.3446 C.ar    1  UNL1        0.0183
     17 C           8.7904   -1.7997   32.8734 C.ar    1  UNL1        0.0015
     18 C           8.5798   -3.0039   32.0043 C.ar    1  UNL1        0.0046
     19 C           7.1912   -3.4081   31.6064 C.ar    1  UNL1        0.0549
     20 C           6.0132   -2.6080   32.0776 C.ar    1  UNL1        0.0229
     21 C           3.8676    0.1965   33.8891 C.3     1  UNL1        0.1816
     22 S           5.0457   -0.6036   33.4179 S.O2    1  UNL1        0.0105
     23 O           5.8938    0.6335   33.4376 O.2     1  UNL1       -0.1686
     24 O           4.1976   -1.8407   33.3982 O.2     1  UNL1       -0.1686
     25 C           5.8649   -3.4673   20.3597 C.2     1  UNL1        0.3078
     26 O           5.6591   -4.6721   19.4900 O.2     1  UNL1       -0.2516
     27 N           5.9113   -2.0990   19.7469 N.am    1  UNL1       -0.1708
     28 H           6.0463   -1.3083   20.3176 H       1  UNL1        0.2545
     29 C           5.7519   -1.9355   18.2643 C.2     1  UNL1        0.3751
     30 N           6.8890   -1.4062   17.4416 N.pl3   1  UNL1       -0.1313
     31 N           4.4554   -2.3012   17.6045 N.pl3   1  UNL1       -0.2906
     32 H           7.7399   -1.1662   17.8746 H       1  UNL1        0.3060
     33 H           3.7091   -2.6485   18.1445 H       1  UNL1        0.2545
     34 H           4.3507   -2.1938   16.6315 H       1  UNL1        0.2545
     35 C           8.4184   -5.4716   24.4171 C.3     1  UNL1        0.4183
     36 F           9.5358   -6.3101   24.9633 F       1  UNL1       -0.1659
     37 F           7.6520   -6.7150   24.0760 F       1  UNL1       -0.1659
     38 F           9.1849   -4.2281   24.7581 F       1  UNL1       -0.1659
@<TRIPOS>BOND
     1    21    22    1
     2    22    23    2
     3    22    24    2
     4    22    15    1
     5    15    16   ar
     6    16    17   ar
     7    17    18   ar
     8    18    19   ar
     9    19     7    1
    10     7     8    2
    11     7     9   am
    12     9    10    1
    13    10    11    1
    14    11    12    1
    15    12     1    1
    16     1     2   ar
    17     2     3   ar
    18     3     4   ar
    19     4    25    1
    20    25    26    2
    21    25    27   am
    22    27    29    1
    23    29    30    2
    24    29    31    1
    25     4     5   ar
    26     5     6   ar
    27     6    35    1
    28    35    36    1
    29    35    37    1
    30    35    38    1
    31    12    13    1
    32    13    14    1
    33    19    20   ar
    34    20    15   ar
    35    14     9    1
    36     6     1   ar
    37    27    28    1
    38    30    32    1
    39    31    33    1
    40    31    34    1
@<TRIPOS>MOLECULE
*****
 38 40 0 0 0
SMALL
GASTEIGER

@<TRIPOS>ATOM
      1 C           1.1227    1.5744   27.3070 C.ar    1  UNL1       -0.0185
      2 C           2.4696    1.6813   26.6556 C.ar    1  UNL1       -0.0041
      3 C           3.5726    0.7468   27.0559 C.ar    1  UNL1        0.0057
      4 C           3.3286   -0.2945   28.1077 C.ar    1  UNL1        0.0696
      5 C           1.9817   -0.4013   28.7591 C.ar    1  UNL1        0.0095
      6 C           0.8787    0.5331   28.3588 C.ar    1  UNL1        0.0677
      7 C          -3.2893    5.3121   25.7057 C.2     1  UNL1        0.2491
      8 O          -3.4339    6.6388   26.3906 O.2     1  UNL1       -0.2699
      9 N          -2.1863    4.3777   26.1060 N.am    1  UNL1       -0.2761
     10 C          -2.0417    3.0510   25.4212 C.3     1  UNL1        0.0940
     11 C          -0.9387    2.1166   25.8215 C.3     1  UNL1        0.0259
     12 C           0.0197    2.5088   26.9067 C.3     1  UNL1        0.0257
     13 C          -0.1249    3.8355   27.5916 C.3     1  UNL1        0.0259
     14 C          -1.2279    4.7699   27.1913 C.3     1  UNL1        0.0940
     15 C          -4.7150    4.3499   22.1292 C.ar    1  UNL1        0.1059
     16 C          -6.1644    4.1354   22.4501 C.ar    1  UNL1        0.0183
     17 C          -6.6555    4.3131   23.8563 C.ar    1  UNL1        0.0015
     18 C          -5.6971    4.7053   24.9415 C.ar    1  UNL1        0.0046
     19 C          -4.2477    4.9199   24.6205 C.ar    1  UNL1        0.0549
     20 C          -3.7566    4.7422   23.2143 C.ar    1  UNL1        0.0229
     21 C          -3.7328    3.9946   19.3169 C.3     1  UNL1        0.1816
     22 S          -4.2239    4.1723   20.7230 S.O2    1  UNL1        0.0105
     23 O          -3.8502    2.7530   21.0329 O.2     1  UNL1       -0.1686
     24 O          -4.5975    5.5915   20.4131 O.2     1  UNL1       -0.1686
     25 C           4.4316   -1.2289   28.5080 C.2     1  UNL1        0.3078
     26 O           5.0745   -1.0962   29.8568 O.2     1  UNL1       -0.2516
     27 N           4.8917   -2.2960   27.5596 N.am    1  UNL1       -0.1708
     28 H           4.4698   -2.3831   26.6743 H       1  UNL1        0.2545
     29 C           5.9948   -3.2305   27.9599 C.2     1  UNL1        0.3751
     30 N           7.1634   -2.7173   28.7480 N.pl3   1  UNL1       -0.1313
     31 N           5.9291   -4.6780   27.5722 N.pl3   1  UNL1       -0.2906
     32 H           7.2064   -1.7673   29.0024 H       1  UNL1        0.3060
     33 H           5.1621   -5.0148   27.0550 H       1  UNL1        0.2545
     34 H           6.6530   -5.2913   27.8350 H       1  UNL1        0.2545
     35 C          -0.4682    0.4262   29.0102 C.3     1  UNL1        0.4183
     36 F          -1.8151    0.3194   29.6616 F       1  UNL1       -0.1659
     37 F          -0.0349    1.3999   30.0658 F       1  UNL1       -0.1659
     38 F          -0.9015   -0.5475   27.9547 F       1  UNL1       -0.1659
@<TRIPOS>BOND
     1    21    22    1
     2    22    23    2
     3    22    24    2
     4    22    15    1
     5    15    16   ar
     6    16    17   ar
     7    17    18   ar
     8    18    19   ar
     9    19     7    1
    10     7     8    2
    11     7     9   am
    12     9    10    1
    13    10    11    1
    14    11    12    1
    15    12     1    1
    16     1     2   ar
    17     2     3   ar
    18     3     4   ar
    19     4    25    1
    20    25    26    2
    21    25    27   am
    22    27    29    1
    23    29    30    2
    24    29    31    1
    25     4     5   ar
    26     5     6   ar
    27     6    35    1
    28    35    36    1
    29    35    37    1
    30    35    38    1
    31    12    13    1
    32    13    14    1
    33    19    20   ar
    34    20    15   ar
    35    14     9    1
    36     6     1   ar
    37    27    28    1
    38    30    32    1
    39    31    33    1
    40    31    34    1
