@<TRIPOS>MOLECULE
*****
 37 39 0 0 0
SMALL
GASTEIGER

@<TRIPOS>ATOM
      1 C         -11.9180  -15.9724   20.9705 C.3     1  UNL1        0.1152
      2 N         -11.1151  -17.2247   21.1638 N.am    1  UNL1       -0.2739
      3 C         -10.9106  -18.1691   20.0166 C.2     1  UNL1        0.2352
      4 O         -11.5091  -17.8615   18.6761 O.2     1  UNL1       -0.2743
      5 C         -10.1077  -19.4213   20.2100 C.3     1  UNL1        0.1703
      6 C          -8.6111  -19.3492   20.2806 C.2     1  UNL1        0.2354
      7 O          -7.8182  -19.0046   19.0548 O.2     1  UNL1       -0.2742
      8 N          -7.9074  -19.6216   21.5770 N.am    1  UNL1       -0.2835
      9 H          -8.4279  -19.8477   22.3815 H       1  UNL1        0.1549
     10 C          -6.4108  -19.5495   21.6476 C.ar    1  UNL1        0.0503
     11 C          -5.5751  -20.4433   20.7801 C.ar    1  UNL1        0.0144
     12 C          -4.0785  -20.3712   20.8507 C.ar    1  UNL1       -0.0016
     13 C          -3.4176  -19.4052   21.7889 C.ar    1  UNL1       -0.0047
     14 C          -4.2533  -18.5114   22.6564 C.ar    1  UNL1       -0.0016
     15 C          -5.7499  -18.5835   22.5858 C.ar    1  UNL1        0.0144
     16 C          -1.9210  -19.3331   21.8595 C.3     1  UNL1        0.1173
     17 N          -1.1970  -18.1666   21.2553 N.3     1  UNL1       -0.1788
     18 H          -0.2036  -18.3109   21.4361 H       1  UNL1        0.1488
     19 S          -1.3328  -17.8770   19.7897 S.O2    1  UNL1        0.0429
     20 C          -1.4685  -17.5874   18.3243 C.3     1  UNL1        0.1957
     21 O          -0.1976  -18.8135   19.4995 O.2     1  UNL1       -0.1574
     22 O          -2.4680  -16.9405   20.0799 O.2     1  UNL1       -0.1574
     23 C         -10.5166  -17.5323   22.5044 C.3     1  UNL1        0.1138
     24 C          -9.3815  -16.7027   23.0273 C.ar    1  UNL1       -0.0029
     25 C          -8.5053  -15.9449   22.0744 C.ar    1  UNL1       -0.0026
     26 C          -7.3703  -15.1153   22.5973 C.ar    1  UNL1       -0.0003
     27 C          -7.1114  -15.0435   24.0730 C.ar    1  UNL1       -0.0000
     28 C          -7.9876  -15.8013   25.0259 C.ar    1  UNL1       -0.0003
     29 C          -9.1226  -16.6309   24.5030 C.ar    1  UNL1       -0.0026
     30 C         -11.0531  -18.6696   23.3221 C.3     1  UNL1        0.0968
     31 N         -12.3958  -18.5520   23.9805 N.3     1  UNL1       -0.2689
     32 C         -13.6735  -18.1422   23.3101 C.3     1  UNL1        0.0748
     33 C         -14.7639  -18.1605   24.3401 C.3     1  UNL1        0.0480
     34 C         -14.1601  -18.5817   25.6470 C.3     1  UNL1        0.1278
     35 O         -14.8913  -18.7341   26.9477 O.3     1  UNL1       -0.3830
     36 C         -12.6965  -18.8237   25.4247 C.3     1  UNL1        0.1017
     37 H         -14.2699  -19.0169   27.6368 H       1  UNL1        0.2104
@<TRIPOS>BOND
     1     1     2    1
     2     2     3   am
     3     3     4    2
     4     3     5    1
     5     5     6    1
     6     6     7    2
     7     6     8   am
     8     8    10    1
     9    10    11   ar
    10    11    12   ar
    11    12    13   ar
    12    13    16    1
    13    16    17    1
    14    17    19    1
    15    19    20    1
    16    19    21    2
    17    19    22    2
    18    13    14   ar
    19    14    15   ar
    20     2    23    1
    21    23    30    1
    22    30    31    1
    23    31    32    1
    24    32    33    1
    25    33    34    1
    26    34    35    1
    27    34    36    1
    28    23    24    1
    29    24    25   ar
    30    25    26   ar
    31    26    27   ar
    32    27    28   ar
    33    28    29   ar
    34    15    10   ar
    35    36    31    1
    36    29    24   ar
    37     8     9    1
    38    17    18    1
    39    35    37    1
@<TRIPOS>MOLECULE
*****
 37 39 0 0 0
SMALL
GASTEIGER

@<TRIPOS>ATOM
      1 C         -10.1209  -20.4638   24.9925 C.3     1  UNL1        0.1152
      2 N          -9.8124  -19.2965   24.1024 N.am    1  UNL1       -0.2739
      3 C          -9.4979  -17.9583   24.7026 C.2     1  UNL1        0.2352
      4 O          -9.4918  -17.7873   26.1928 O.2     1  UNL1       -0.2743
      5 C          -9.1894  -16.7910   23.8125 C.3     1  UNL1        0.1703
      6 C          -7.8329  -16.6644   23.1847 C.2     1  UNL1        0.2354
      7 O          -7.7087  -16.3067   21.7333 O.2     1  UNL1       -0.2742
      8 N          -6.6008  -16.8954   24.0083 N.am    1  UNL1       -0.2835
      9 H          -6.6824  -17.1302   24.9609 H       1  UNL1        0.1549
     10 C          -5.2443  -16.7688   23.3806 C.ar    1  UNL1        0.0503
     11 C          -4.4525  -17.9994   23.0511 C.ar    1  UNL1        0.0144
     12 C          -3.0961  -17.8727   22.4234 C.ar    1  UNL1       -0.0016
     13 C          -2.5315  -16.5154   22.1251 C.ar    1  UNL1       -0.0047
     14 C          -3.3233  -15.2848   22.4545 C.ar    1  UNL1       -0.0016
     15 C          -4.6797  -15.4115   23.0822 C.ar    1  UNL1        0.0144
     16 C          -1.1751  -16.3888   21.4973 C.3     1  UNL1        0.1173
     17 N          -0.9813  -16.7422   20.0525 N.3     1  UNL1       -0.1788
     18 H           0.0045  -16.9768   19.9364 H       1  UNL1        0.1488
     19 S          -1.7683  -17.8643   19.4428 S.O2    1  UNL1        0.0429
     20 C          -2.5551  -18.9864   18.8331 C.3     1  UNL1        0.1957
     21 O          -0.7228  -18.8415   19.8921 O.2     1  UNL1       -0.1574
     22 O          -2.8137  -16.8870   18.9934 O.2     1  UNL1       -0.1574
     23 C          -9.8185  -19.4675   22.6122 C.3     1  UNL1        0.1138
     24 C          -8.5299  -19.6917   21.8778 C.ar    1  UNL1       -0.0029
     25 C          -8.4087  -19.2929   20.4369 C.ar    1  UNL1       -0.0026
     26 C          -7.1202  -19.5172   19.7025 C.ar    1  UNL1       -0.0003
     27 C          -5.9529  -20.1403   20.4090 C.ar    1  UNL1       -0.0000
     28 C          -6.0741  -20.5391   21.8499 C.ar    1  UNL1       -0.0003
     29 C          -7.3626  -20.3148   22.5843 C.ar    1  UNL1       -0.0026
     30 C         -11.1131  -19.4141   21.8565 C.3     1  UNL1        0.0968
     31 N         -11.6574  -18.0953   21.3933 N.3     1  UNL1       -0.2689
     32 C         -12.4661  -17.1372   22.2166 C.3     1  UNL1        0.0748
     33 C         -12.7971  -15.9528   21.3577 C.3     1  UNL1        0.0480
     34 C         -12.1929  -16.1790   20.0035 C.3     1  UNL1        0.1278
     35 O         -12.2781  -15.2451   18.8328 O.3     1  UNL1       -0.3830
     36 C         -11.4886  -17.5032   20.0255 C.3     1  UNL1        0.1017
     37 H         -11.8034  -15.6280   18.0785 H       1  UNL1        0.2104
@<TRIPOS>BOND
     1     1     2    1
     2     2     3   am
     3     3     4    2
     4     3     5    1
     5     5     6    1
     6     6     7    2
     7     6     8   am
     8     8    10    1
     9    10    11   ar
    10    11    12   ar
    11    12    13   ar
    12    13    16    1
    13    16    17    1
    14    17    19    1
    15    19    20    1
    16    19    21    2
    17    19    22    2
    18    13    14   ar
    19    14    15   ar
    20     2    23    1
    21    23    30    1
    22    30    31    1
    23    31    32    1
    24    32    33    1
    25    33    34    1
    26    34    35    1
    27    34    36    1
    28    23    24    1
    29    24    25   ar
    30    25    26   ar
    31    26    27   ar
    32    27    28   ar
    33    28    29   ar
    34    15    10   ar
    35    36    31    1
    36    29    24   ar
    37     8     9    1
    38    17    18    1
    39    35    37    1
@<TRIPOS>MOLECULE
*****
 37 39 0 0 0
SMALL
GASTEIGER

@<TRIPOS>ATOM
      1 C         -11.4972  -16.6678   19.2893 C.3     1  UNL1        0.1152
      2 N         -11.0114  -17.4989   20.4397 N.am    1  UNL1       -0.2739
      3 C         -10.5809  -18.9174   20.2111 C.2     1  UNL1        0.2352
      4 O         -10.6362  -19.5050   18.8320 O.2     1  UNL1       -0.2743
      5 C         -10.0951  -19.7484   21.3615 C.3     1  UNL1        0.1703
      6 C          -8.6323  -19.7908   21.6911 C.2     1  UNL1        0.2354
      7 O          -8.1833  -20.2211   23.0561 O.2     1  UNL1       -0.2742
      8 N          -7.6186  -19.4029   20.6557 N.am    1  UNL1       -0.2835
      9 H          -7.9134  -19.1205   19.7598 H       1  UNL1        0.1549
     10 C          -6.1559  -19.4453   20.9853 C.ar    1  UNL1        0.0503
     11 C          -5.2142  -20.2279   20.1189 C.ar    1  UNL1        0.0144
     12 C          -3.7515  -20.2703   20.4485 C.ar    1  UNL1       -0.0016
     13 C          -3.2305  -19.5301   21.6446 C.ar    1  UNL1       -0.0047
     14 C          -4.1722  -18.7475   22.5110 C.ar    1  UNL1       -0.0016
     15 C          -5.6348  -18.7051   22.1814 C.ar    1  UNL1        0.0144
     16 C          -1.7677  -19.5725   21.9742 C.3     1  UNL1        0.1173
     17 N          -0.8757  -18.4344   21.5753 N.3     1  UNL1       -0.1788
     18 H           0.0823  -18.7334   21.7574 H       1  UNL1        0.1488
     19 S          -0.9071  -17.9144   20.1686 S.O2    1  UNL1        0.0429
     20 C          -0.9384  -17.3944   18.7620 C.3     1  UNL1        0.1957
     21 O          -0.0321  -19.0507   19.7291 O.2     1  UNL1       -0.1574
     22 O          -1.7820  -16.7781   20.6081 O.2     1  UNL1       -0.1574
     23 C         -10.9561  -16.9113   21.8187 C.3     1  UNL1        0.1138
     24 C         -11.7759  -17.5106   22.9227 C.ar    1  UNL1       -0.0029
     25 C         -13.2625  -17.3124   22.9454 C.ar    1  UNL1       -0.0026
     26 C         -14.0823  -17.9117   24.0494 C.ar    1  UNL1       -0.0003
     27 C         -13.4154  -18.7092   25.1307 C.ar    1  UNL1       -0.0000
     28 C         -11.9287  -18.9074   25.1080 C.ar    1  UNL1       -0.0003
     29 C         -11.1090  -18.3081   24.0040 C.ar    1  UNL1       -0.0026
     30 C         -10.0810  -15.7245   22.0937 C.3     1  UNL1        0.0968
     31 N          -9.0266  -15.8006   23.1578 N.3     1  UNL1       -0.2689
     32 C          -9.2689  -15.8493   24.6373 C.3     1  UNL1        0.0748
     33 C          -7.9368  -15.9202   25.3232 C.3     1  UNL1        0.0480
     34 C          -6.8711  -15.9152   24.2676 C.3     1  UNL1        0.1278
     35 O          -5.3917  -15.9739   24.5080 O.3     1  UNL1       -0.3830
     36 C          -7.5447  -15.8413   22.9293 C.3     1  UNL1        0.1017
     37 H          -4.9250  -15.9568   23.6578 H       1  UNL1        0.2104
@<TRIPOS>BOND
     1     1     2    1
     2     2     3   am
     3     3     4    2
     4     3     5    1
     5     5     6    1
     6     6     7    2
     7     6     8   am
     8     8    10    1
     9    10    11   ar
    10    11    12   ar
    11    12    13   ar
    12    13    16    1
    13    16    17    1
    14    17    19    1
    15    19    20    1
    16    19    21    2
    17    19    22    2
    18    13    14   ar
    19    14    15   ar
    20     2    23    1
    21    23    30    1
    22    30    31    1
    23    31    32    1
    24    32    33    1
    25    33    34    1
    26    34    35    1
    27    34    36    1
    28    23    24    1
    29    24    25   ar
    30    25    26   ar
    31    26    27   ar
    32    27    28   ar
    33    28    29   ar
    34    15    10   ar
    35    36    31    1
    36    29    24   ar
    37     8     9    1
    38    17    18    1
    39    35    37    1
@<TRIPOS>MOLECULE
*****
 37 39 0 0 0
SMALL
GASTEIGER

@<TRIPOS>ATOM
      1 C          -8.8837  -16.7711   27.5237 C.3     1  UNL1        0.1152
      2 N          -8.4712  -16.2182   26.1917 N.am    1  UNL1       -0.2739
      3 C          -7.2856  -15.3046   26.0934 C.2     1  UNL1        0.2352
      4 O          -6.5125  -14.9438   27.3271 O.2     1  UNL1       -0.2743
      5 C          -6.8732  -14.7519   24.7614 C.3     1  UNL1        0.1703
      6 C          -5.8143  -15.4457   23.9567 C.2     1  UNL1        0.2354
      7 O          -5.0451  -14.6867   22.9164 O.2     1  UNL1       -0.2742
      8 N          -5.5248  -16.8985   24.1923 N.am    1  UNL1       -0.2835
      9 H          -6.0296  -17.3966   24.8751 H       1  UNL1        0.1549
     10 C          -4.4659  -17.5924   23.3876 C.ar    1  UNL1        0.0503
     11 C          -3.0213  -17.2418   23.5881 C.ar    1  UNL1        0.0144
     12 C          -1.9626  -17.9356   22.7834 C.ar    1  UNL1       -0.0016
     13 C          -2.3484  -18.9801   21.7783 C.ar    1  UNL1       -0.0047
     14 C          -3.7930  -19.3306   21.5778 C.ar    1  UNL1       -0.0016
     15 C          -4.8517  -18.6368   22.3825 C.ar    1  UNL1        0.0144
     16 C          -1.2895  -19.6739   20.9736 C.3     1  UNL1        0.1173
     17 N          -0.7881  -19.0557   19.7022 N.3     1  UNL1       -0.1788
     18 H          -0.6745  -19.8149   19.0305 H       1  UNL1        0.1488
     19 S          -1.5920  -17.9895   19.0188 S.O2    1  UNL1        0.0429
     20 C          -2.3958  -16.9233   18.3353 C.3     1  UNL1        0.1957
     21 O          -2.4429  -19.0437   18.3750 O.2     1  UNL1       -0.1574
     22 O          -0.7410  -16.9353   19.6625 O.2     1  UNL1       -0.1574
     23 C          -9.2443  -16.5791   24.9580 C.3     1  UNL1        0.1138
     24 C          -9.2565  -17.9970   24.4685 C.ar    1  UNL1       -0.0029
     25 C         -10.0917  -19.0259   25.1713 C.ar    1  UNL1       -0.0026
     26 C         -10.1039  -20.4437   24.6819 C.ar    1  UNL1       -0.0003
     27 C          -9.2810  -20.8326   23.4896 C.ar    1  UNL1       -0.0000
     28 C          -8.4459  -19.8038   22.7867 C.ar    1  UNL1       -0.0003
     29 C          -8.4337  -18.3860   23.2762 C.ar    1  UNL1       -0.0026
     30 C         -10.0051  -15.5222   24.2137 C.3     1  UNL1        0.0968
     31 N         -10.7007  -15.8630   22.9292 N.3     1  UNL1       -0.2689
     32 C         -12.1188  -16.3320   22.7919 C.3     1  UNL1        0.0748
     33 C         -12.3949  -16.5535   21.3343 C.3     1  UNL1        0.0480
     34 C         -11.1473  -16.2214   20.5706 C.3     1  UNL1        0.1278
     35 O         -10.9767  -16.3019   19.0825 O.3     1  UNL1       -0.3830
     36 C         -10.1002  -15.7947   21.5563 C.3     1  UNL1        0.1017
     37 H         -10.0753  -16.0333   18.8454 H       1  UNL1        0.2104
@<TRIPOS>BOND
     1     1     2    1
     2     2     3   am
     3     3     4    2
     4     3     5    1
     5     5     6    1
     6     6     7    2
     7     6     8   am
     8     8    10    1
     9    10    11   ar
    10    11    12   ar
    11    12    13   ar
    12    13    16    1
    13    16    17    1
    14    17    19    1
    15    19    20    1
    16    19    21    2
    17    19    22    2
    18    13    14   ar
    19    14    15   ar
    20     2    23    1
    21    23    30    1
    22    30    31    1
    23    31    32    1
    24    32    33    1
    25    33    34    1
    26    34    35    1
    27    34    36    1
    28    23    24    1
    29    24    25   ar
    30    25    26   ar
    31    26    27   ar
    32    27    28   ar
    33    28    29   ar
    34    15    10   ar
    35    36    31    1
    36    29    24   ar
    37     8     9    1
    38    17    18    1
    39    35    37    1
@<TRIPOS>MOLECULE
*****
 37 39 0 0 0
SMALL
GASTEIGER

@<TRIPOS>ATOM
      1 C          -4.8843    2.8495   23.6987 C.3     1  UNL1        0.1152
      2 N          -3.5553    3.4869   23.4199 N.am    1  UNL1       -0.2739
      3 C          -3.0562    3.5943   22.0095 C.2     1  UNL1        0.2352
      4 O          -3.8859    3.0643   20.8778 O.2     1  UNL1       -0.2743
      5 C          -1.7273    4.2316   21.7308 C.3     1  UNL1        0.1703
      6 C          -0.5893    3.3997   21.2178 C.2     1  UNL1        0.2354
      7 O           0.8232    3.8752   21.3872 O.2     1  UNL1       -0.2742
      8 N          -0.8639    2.0925   20.5355 N.am    1  UNL1       -0.2835
      9 H          -1.7910    1.7804   20.4243 H       1  UNL1        0.1549
     10 C           0.2741    1.2606   20.0225 C.ar    1  UNL1        0.0503
     11 C           0.7960    0.1173   20.8412 C.ar    1  UNL1        0.0144
     12 C           1.9339   -0.7146   20.3283 C.ar    1  UNL1       -0.0016
     13 C           2.5499   -0.4031   18.9965 C.ar    1  UNL1       -0.0047
     14 C           2.0280    0.7403   18.1778 C.ar    1  UNL1       -0.0016
     15 C           0.8901    1.5721   18.6908 C.ar    1  UNL1        0.0144
     16 C           3.6879   -1.2349   18.4836 C.3     1  UNL1        0.1173
     17 N           4.4182   -2.1602   19.4111 N.3     1  UNL1       -0.1788
     18 H           3.9297   -2.1262   20.3059 H       1  UNL1        0.1488
     19 S           4.5723   -3.6097   19.0568 S.O2    1  UNL1        0.0429
     20 C           4.7264   -5.0590   18.7026 C.3     1  UNL1        0.1957
     21 O           3.7142   -3.9871   20.2277 O.2     1  UNL1       -0.1574
     22 O           5.4305   -3.2322   17.8859 O.2     1  UNL1       -0.1574
     23 C          -2.7256    4.0169   24.5515 C.3     1  UNL1        0.1138
     24 C          -1.8041    3.0997   25.2996 C.ar    1  UNL1       -0.0029
     25 C          -2.0096    2.8629   26.7664 C.ar    1  UNL1       -0.0026
     26 C          -1.0881    1.9457   27.5144 C.ar    1  UNL1       -0.0003
     27 C           0.0390    1.2652   26.7955 C.ar    1  UNL1       -0.0000
     28 C           0.2445    1.5020   25.3287 C.ar    1  UNL1       -0.0003
     29 C          -0.6771    2.4192   24.5807 C.ar    1  UNL1       -0.0026
     30 C          -2.8174    5.4641   24.9352 C.3     1  UNL1        0.0968
     31 N          -4.0117    5.9652   25.6918 N.3     1  UNL1       -0.2689
     32 C          -4.7656    7.2312   25.4112 C.3     1  UNL1        0.0748
     33 C          -5.8817    7.3367   26.4078 C.3     1  UNL1        0.0480
     34 C          -5.8176    6.1358   27.3044 C.3     1  UNL1        0.1278
     35 O          -6.7461    5.8353   28.4435 O.3     1  UNL1       -0.3830
     36 C          -4.6618    5.2882   26.8618 C.3     1  UNL1        0.1017
     37 H          -6.4866    4.9987   28.8601 H       1  UNL1        0.2104
@<TRIPOS>BOND
     1     1     2    1
     2     2     3   am
     3     3     4    2
     4     3     5    1
     5     5     6    1
     6     6     7    2
     7     6     8   am
     8     8    10    1
     9    10    11   ar
    10    11    12   ar
    11    12    13   ar
    12    13    16    1
    13    16    17    1
    14    17    19    1
    15    19    20    1
    16    19    21    2
    17    19    22    2
    18    13    14   ar
    19    14    15   ar
    20     2    23    1
    21    23    30    1
    22    30    31    1
    23    31    32    1
    24    32    33    1
    25    33    34    1
    26    34    35    1
    27    34    36    1
    28    23    24    1
    29    24    25   ar
    30    25    26   ar
    31    26    27   ar
    32    27    28   ar
    33    28    29   ar
    34    15    10   ar
    35    36    31    1
    36    29    24   ar
    37     8     9    1
    38    17    18    1
    39    35    37    1
@<TRIPOS>MOLECULE
*****
 37 39 0 0 0
SMALL
GASTEIGER

@<TRIPOS>ATOM
      1 C           6.1541    0.4974   18.1089 C.3     1  UNL1        0.1152
      2 N           5.3740   -0.6826   18.6081 N.am    1  UNL1       -0.2739
      3 C           5.8234   -2.0743   18.2744 C.2     1  UNL1        0.2352
      4 O           7.0528   -2.2860   17.4416 O.2     1  UNL1       -0.2743
      5 C           5.0433   -3.2542   18.7736 C.3     1  UNL1        0.1703
      6 C           5.3520   -3.8427   20.1185 C.2     1  UNL1        0.2354
      7 O           4.4367   -4.8703   20.7153 O.2     1  UNL1       -0.2742
      8 N           6.5758   -3.4037   20.8663 N.am    1  UNL1       -0.2835
      9 H           7.1766   -2.7293   20.4745 H       1  UNL1        0.1549
     10 C           6.8845   -3.9923   22.2111 C.ar    1  UNL1        0.0503
     11 C           7.9670   -5.0213   22.3489 C.ar    1  UNL1        0.0144
     12 C           8.2756   -5.6098   23.6936 C.ar    1  UNL1       -0.0016
     13 C           7.5016   -5.1692   24.9006 C.ar    1  UNL1       -0.0047
     14 C           6.4190   -4.1402   24.7629 C.ar    1  UNL1       -0.0016
     15 C           6.1105   -3.5517   23.4181 C.ar    1  UNL1        0.0144
     16 C           7.8102   -5.7578   26.2454 C.3     1  UNL1        0.1173
     17 N           6.7032   -6.0108   27.2253 N.3     1  UNL1       -0.1788
     18 H           6.6070   -7.0230   27.3060 H       1  UNL1        0.1488
     19 S           6.8002   -5.4724   28.6221 S.O2    1  UNL1        0.0429
     20 C           6.8972   -4.9339   30.0187 C.3     1  UNL1        0.1957
     21 O           5.9483   -4.3017   28.2299 O.2     1  UNL1       -0.1574
     22 O           7.6521   -6.6430   29.0142 O.2     1  UNL1       -0.1574
     23 C           4.1446   -0.4709   19.4410 C.3     1  UNL1        0.1138
     24 C           4.2492   -0.4348   20.9370 C.ar    1  UNL1       -0.0029
     25 C           5.4879    0.1036   21.5894 C.ar    1  UNL1       -0.0026
     26 C           5.5925    0.1397   23.0853 C.ar    1  UNL1       -0.0003
     27 C           4.4584   -0.3626   23.9288 C.ar    1  UNL1       -0.0000
     28 C           3.2197   -0.9010   23.2763 C.ar    1  UNL1       -0.0003
     29 C           3.1151   -0.9371   21.7805 C.ar    1  UNL1       -0.0026
     30 C           2.8106   -0.2954   18.7780 C.3     1  UNL1        0.0968
     31 N           2.2233    1.0765   18.6262 N.3     1  UNL1       -0.2689
     32 C           2.9813    2.3701   18.6720 C.3     1  UNL1        0.0748
     33 C           2.0014    3.4888   18.4760 C.3     1  UNL1        0.0480
     34 C           0.6378    2.8865   18.3089 C.3     1  UNL1        0.1278
     35 O          -0.6389    3.6423   18.0879 O.3     1  UNL1       -0.3830
     36 C           0.7750    1.3957   18.4017 C.3     1  UNL1        0.1017
     37 H          -1.3762    3.0166   18.0122 H       1  UNL1        0.2104
@<TRIPOS>BOND
     1     1     2    1
     2     2     3   am
     3     3     4    2
     4     3     5    1
     5     5     6    1
     6     6     7    2
     7     6     8   am
     8     8    10    1
     9    10    11   ar
    10    11    12   ar
    11    12    13   ar
    12    13    16    1
    13    16    17    1
    14    17    19    1
    15    19    20    1
    16    19    21    2
    17    19    22    2
    18    13    14   ar
    19    14    15   ar
    20     2    23    1
    21    23    30    1
    22    30    31    1
    23    31    32    1
    24    32    33    1
    25    33    34    1
    26    34    35    1
    27    34    36    1
    28    23    24    1
    29    24    25   ar
    30    25    26   ar
    31    26    27   ar
    32    27    28   ar
    33    28    29   ar
    34    15    10   ar
    35    36    31    1
    36    29    24   ar
    37     8     9    1
    38    17    18    1
    39    35    37    1
@<TRIPOS>MOLECULE
*****
 37 39 0 0 0
SMALL
GASTEIGER

@<TRIPOS>ATOM
      1 C           3.4575   -4.2715   19.0118 C.3     1  UNL1        0.1152
      2 N           3.9643   -3.0191   19.6636 N.am    1  UNL1       -0.2739
      3 C           4.4871   -3.0637   21.0688 C.2     1  UNL1        0.2352
      4 O           4.5031   -4.3606   21.8223 O.2     1  UNL1       -0.2743
      5 C           4.9939   -1.8114   21.7205 C.3     1  UNL1        0.1703
      6 C           4.2537   -1.2182   22.8826 C.2     1  UNL1        0.2354
      7 O           4.1338   -1.9855   24.1659 O.2     1  UNL1       -0.2742
      8 N           3.6334    0.1421   22.7612 N.am    1  UNL1       -0.2835
      9 H           3.7121    0.6456   21.9189 H       1  UNL1        0.1549
     10 C           2.8932    0.7352   23.9233 C.ar    1  UNL1        0.0503
     11 C           3.6523    1.3611   25.0555 C.ar    1  UNL1        0.0144
     12 C           2.9121    1.9542   26.2175 C.ar    1  UNL1       -0.0016
     13 C           1.4127    1.9215   26.2472 C.ar    1  UNL1       -0.0047
     14 C           0.6536    1.2956   25.1150 C.ar    1  UNL1       -0.0016
     15 C           1.3938    0.7025   23.9531 C.ar    1  UNL1        0.0144
     16 C           0.6725    2.5146   27.4093 C.3     1  UNL1        0.1173
     17 N           0.5366    1.7397   28.6864 N.3     1  UNL1       -0.1788
     18 H           0.2633    2.4068   29.4079 H       1  UNL1        0.1488
     19 S          -0.4273    0.5933   28.7691 S.O2    1  UNL1        0.0429
     20 C          -1.3912   -0.5530   28.8518 C.3     1  UNL1        0.1957
     21 O          -1.4344    1.3837   27.9874 O.2     1  UNL1       -0.1574
     22 O           0.5798   -0.1971   29.5508 O.2     1  UNL1       -0.1574
     23 C           3.9483   -1.7222   18.9101 C.3     1  UNL1        0.1138
     24 C           2.8806   -0.7061   19.1887 C.ar    1  UNL1       -0.0029
     25 C           2.9724    0.6634   18.5837 C.ar    1  UNL1       -0.0026
     26 C           1.9047    1.6795   18.8623 C.ar    1  UNL1       -0.0003
     27 C           0.7452    1.3260   19.7459 C.ar    1  UNL1       -0.0000
     28 C           0.6534   -0.0435   20.3508 C.ar    1  UNL1       -0.0003
     29 C           1.7211   -1.0595   20.0722 C.ar    1  UNL1       -0.0026
     30 C           5.0000   -1.4414   17.8780 C.3     1  UNL1        0.0968
     31 N           6.3939   -1.0879   18.3046 N.3     1  UNL1       -0.2689
     32 C           7.4227   -2.0425   18.8343 C.3     1  UNL1        0.0748
     33 C           8.6684   -1.2624   19.1334 C.3     1  UNL1        0.0480
     34 C           8.4097    0.1743   18.7886 C.3     1  UNL1        0.1278
     35 O           9.3853    1.3048   18.9309 O.3     1  UNL1       -0.3830
     36 C           7.0040    0.2821   18.2763 C.3     1  UNL1        0.1017
     37 H           8.9684    2.1304   18.6387 H       1  UNL1        0.2104
@<TRIPOS>BOND
     1     1     2    1
     2     2     3   am
     3     3     4    2
     4     3     5    1
     5     5     6    1
     6     6     7    2
     7     6     8   am
     8     8    10    1
     9    10    11   ar
    10    11    12   ar
    11    12    13   ar
    12    13    16    1
    13    16    17    1
    14    17    19    1
    15    19    20    1
    16    19    21    2
    17    19    22    2
    18    13    14   ar
    19    14    15   ar
    20     2    23    1
    21    23    30    1
    22    30    31    1
    23    31    32    1
    24    32    33    1
    25    33    34    1
    26    34    35    1
    27    34    36    1
    28    23    24    1
    29    24    25   ar
    30    25    26   ar
    31    26    27   ar
    32    27    28   ar
    33    28    29   ar
    34    15    10   ar
    35    36    31    1
    36    29    24   ar
    37     8     9    1
    38    17    18    1
    39    35    37    1
@<TRIPOS>MOLECULE
*****
 37 39 0 0 0
SMALL
GASTEIGER

@<TRIPOS>ATOM
      1 C           5.0162    2.2898   18.4089 C.3     1  UNL1        0.1152
      2 N           3.7796    1.4922   18.7000 N.am    1  UNL1       -0.2739
      3 C           2.4270    2.1209   18.5413 C.2     1  UNL1        0.2352
      4 O           2.3109    3.5471   18.0914 O.2     1  UNL1       -0.2743
      5 C           1.1905    1.3233   18.8324 C.3     1  UNL1        0.1703
      6 C           0.6045    1.3252   20.2132 C.2     1  UNL1        0.2354
      7 O          -0.3068    0.2139   20.6428 O.2     1  UNL1       -0.2742
      8 N           0.9297    2.4385   21.1644 N.am    1  UNL1       -0.2835
      9 H           1.5278    3.1679   20.8825 H       1  UNL1        0.1549
     10 C           0.3437    2.4404   22.5453 C.ar    1  UNL1        0.0503
     11 C           0.8598    1.4854   23.5804 C.ar    1  UNL1        0.0144
     12 C           0.2738    1.4874   24.9611 C.ar    1  UNL1       -0.0016
     13 C          -0.8283    2.4444   25.3068 C.ar    1  UNL1       -0.0047
     14 C          -1.3444    3.3994   24.2717 C.ar    1  UNL1       -0.0016
     15 C          -0.7584    3.3975   22.8909 C.ar    1  UNL1        0.0144
     16 C          -1.4144    2.4464   26.6876 C.3     1  UNL1        0.1173
     17 N          -0.5117    2.4320   27.8855 N.3     1  UNL1       -0.1788
     18 H          -0.9980    2.9364   28.6267 H       1  UNL1        0.1488
     19 S          -0.0643    1.1258   28.4719 S.O2    1  UNL1        0.0429
     20 C           0.3830   -0.1803   29.0583 C.3     1  UNL1        0.1957
     21 O          -1.4867    0.6505   28.4982 O.2     1  UNL1       -0.1574
     22 O           1.3581    1.6011   28.4456 O.2     1  UNL1       -0.1574
     23 C           3.8957    0.0660   19.1498 C.3     1  UNL1        0.1138
     24 C           4.1839   -0.2456   20.5886 C.ar    1  UNL1       -0.0029
     25 C           5.5788   -0.1044   21.1217 C.ar    1  UNL1       -0.0026
     26 C           5.8669   -0.4159   22.5604 C.ar    1  UNL1       -0.0003
     27 C           4.7601   -0.8687   23.4660 C.ar    1  UNL1       -0.0000
     28 C           3.3652   -1.0099   22.9329 C.ar    1  UNL1       -0.0003
     29 C           3.0771   -0.6983   21.4942 C.ar    1  UNL1       -0.0026
     30 C           3.7236   -1.0487   18.1610 C.3     1  UNL1        0.0968
     31 N           4.0655   -2.4563   18.5505 N.3     1  UNL1       -0.2689
     32 C           5.3801   -3.1406   18.3192 C.3     1  UNL1        0.0748
     33 C           5.2799   -4.5340   18.8655 C.3     1  UNL1        0.0480
     34 C           3.9033   -4.7109   19.4344 C.3     1  UNL1        0.1278
     35 O           3.3708   -5.9536   20.0840 O.3     1  UNL1       -0.3830
     36 C           3.1528   -3.4268   19.2398 C.3     1  UNL1        0.1017
     37 H           2.4545   -5.8043   20.3651 H       1  UNL1        0.2104
@<TRIPOS>BOND
     1     1     2    1
     2     2     3   am
     3     3     4    2
     4     3     5    1
     5     5     6    1
     6     6     7    2
     7     6     8   am
     8     8    10    1
     9    10    11   ar
    10    11    12   ar
    11    12    13   ar
    12    13    16    1
    13    16    17    1
    14    17    19    1
    15    19    20    1
    16    19    21    2
    17    19    22    2
    18    13    14   ar
    19    14    15   ar
    20     2    23    1
    21    23    30    1
    22    30    31    1
    23    31    32    1
    24    32    33    1
    25    33    34    1
    26    34    35    1
    27    34    36    1
    28    23    24    1
    29    24    25   ar
    30    25    26   ar
    31    26    27   ar
    32    27    28   ar
    33    28    29   ar
    34    15    10   ar
    35    36    31    1
    36    29    24   ar
    37     8     9    1
    38    17    18    1
    39    35    37    1
@<TRIPOS>MOLECULE
*****
 37 39 0 0 0
SMALL
GASTEIGER

@<TRIPOS>ATOM
      1 C          -4.8398    2.8979   23.4165 C.3     1  UNL1        0.1152
      2 N          -3.4669    3.4787   23.2498 N.am    1  UNL1       -0.2739
      3 C          -2.8414    3.5463   21.8881 C.2     1  UNL1        0.2352
      4 O          -3.5888    3.0331   20.6931 O.2     1  UNL1       -0.2743
      5 C          -1.4685    4.1270   21.7214 C.3     1  UNL1        0.1703
      6 C          -0.3531    3.2755   21.1914 C.2     1  UNL1        0.2354
      7 O           1.0552    3.7918   21.2028 O.2     1  UNL1       -0.2742
      8 N          -0.6461    1.9077   20.6500 N.am    1  UNL1       -0.2835
      9 H          -1.5704    1.5688   20.6425 H       1  UNL1        0.1549
     10 C           0.4693    1.0561   20.1199 C.ar    1  UNL1        0.0503
     11 C           1.0100    1.3006   18.7424 C.ar    1  UNL1        0.0144
     12 C           2.1253    0.4491   18.2124 C.ar    1  UNL1       -0.0016
     13 C           2.6999   -0.6470   19.0600 C.ar    1  UNL1       -0.0047
     14 C           2.1591   -0.8916   20.4375 C.ar    1  UNL1       -0.0016
     15 C           1.0438   -0.0400   20.9675 C.ar    1  UNL1        0.0144
     16 C           3.8152   -1.4986   18.5299 C.3     1  UNL1        0.1173
     17 N           5.1686   -1.4486   19.1748 N.3     1  UNL1       -0.1788
     18 H           5.5336   -2.4010   19.1675 H       1  UNL1        0.1488
     19 S           6.2405   -0.5696   18.6017 S.O2    1  UNL1        0.0429
     20 C           7.3124    0.3094   18.0286 C.3     1  UNL1        0.1957
     21 O           6.4887    0.0141   19.9610 O.2     1  UNL1       -0.1574
     22 O           5.9924   -1.1532   17.2424 O.2     1  UNL1       -0.1574
     23 C          -2.7195    3.9919   24.4448 C.3     1  UNL1        0.1138
     24 C          -1.8095    3.0771   25.2099 C.ar    1  UNL1       -0.0029
     25 C          -0.7338    2.3170   24.4922 C.ar    1  UNL1       -0.0026
     26 C           0.1760    1.4023   25.2574 C.ar    1  UNL1       -0.0003
     27 C           0.0102    1.2478   26.7401 C.ar    1  UNL1       -0.0000
     28 C          -1.0655    2.0079   27.4578 C.ar    1  UNL1       -0.0003
     29 C          -1.9753    2.9226   26.6927 C.ar    1  UNL1       -0.0026
     30 C          -2.8819    5.4197   24.8746 C.3     1  UNL1        0.0968
     31 N          -4.1469    5.8604   25.5497 N.3     1  UNL1       -0.2689
     32 C          -5.1475    6.8328   24.9990 C.3     1  UNL1        0.0748
     33 C          -6.2524    6.9795   26.0028 C.3     1  UNL1        0.0480
     34 C          -5.9346    6.0978   27.1740 C.3     1  UNL1        0.1278
     35 O          -6.7712    5.9361   28.4085 O.3     1  UNL1       -0.3830
     36 C          -4.6334    5.4062   26.8939 C.3     1  UNL1        0.1017
     37 H          -6.3414    5.3084   29.0104 H       1  UNL1        0.2104
@<TRIPOS>BOND
     1     1     2    1
     2     2     3   am
     3     3     4    2
     4     3     5    1
     5     5     6    1
     6     6     7    2
     7     6     8   am
     8     8    10    1
     9    10    11   ar
    10    11    12   ar
    11    12    13   ar
    12    13    16    1
    13    16    17    1
    14    17    19    1
    15    19    20    1
    16    19    21    2
    17    19    22    2
    18    13    14   ar
    19    14    15   ar
    20     2    23    1
    21    23    30    1
    22    30    31    1
    23    31    32    1
    24    32    33    1
    25    33    34    1
    26    34    35    1
    27    34    36    1
    28    23    24    1
    29    24    25   ar
    30    25    26   ar
    31    26    27   ar
    32    27    28   ar
    33    28    29   ar
    34    15    10   ar
    35    36    31    1
    36    29    24   ar
    37     8     9    1
    38    17    18    1
    39    35    37    1
