@<TRIPOS>MOLECULE
*****
 30 34 0 0 0
SMALL
GASTEIGER

@<TRIPOS>ATOM
      1 O          -8.2593  -17.2507   23.6629 O.2     1  UNL1       -0.2677
      2 C          -8.2774  -18.2835   22.5753 C.2     1  UNL1        0.2738
      3 C          -7.0748  -18.8863   21.9118 C.2     1  UNL1        0.0820
      4 C          -5.6041  -18.6664   22.1085 C.2     1  UNL1        0.0530
      5 N          -4.6141  -19.4303   21.2802 N.am    1  UNL1       -0.2604
      6 C          -5.0947  -20.4143   20.2551 C.2     1  UNL1        0.2352
      7 O          -4.1046  -21.1783   19.4268 O.2     1  UNL1       -0.2741
      8 C          -6.5653  -20.6343   20.0583 C.3     1  UNL1        0.1330
      9 C          -7.5554  -19.8703   20.8866 C.2     1  UNL1        0.0914
     10 N          -9.0551  -19.8756   20.9166 N.2     1  UNL1       -0.1750
     11 N          -9.5013  -18.8950   21.9603 N.am    1  UNL1       -0.1544
     12 C          -3.1160  -19.3632   21.3153 C.3     1  UNL1        0.0994
     13 C          -2.2379  -18.5155   22.1874 C.3     1  UNL1        0.0392
     14 C          -2.6412  -17.5257   23.2397 C.3     1  UNL1        0.0745
     15 N          -4.0220  -17.1389   23.6800 N.3     1  UNL1       -0.2641
     16 C          -5.3406  -17.6466   23.1765 C.3     1  UNL1        0.1147
     17 C         -10.9221  -18.5809   22.3249 C.ar    1  UNL1        0.0876
     18 C         -11.4106  -18.8295   23.7212 C.ar    1  UNL1        0.0177
     19 C         -12.8313  -18.5154   24.0857 C.ar    1  UNL1        0.0014
     20 C         -13.7635  -17.9527   23.0540 C.ar    1  UNL1        0.0010
     21 C         -13.2750  -17.7041   21.6578 C.ar    1  UNL1        0.0127
     22 C         -11.8543  -18.0182   21.2931 C.ar    1  UNL1        0.0732
     23 CL        -11.3657  -17.7696   19.8969 Cl      1  UNL1       -0.0809
     24 C          -4.0936  -16.1082   24.7674 C.3     1  UNL1        0.0994
     25 C          -5.4016  -15.8204   25.4430 C.ar    1  UNL1       -0.0061
     26 C          -6.4755  -15.0721   24.7102 C.ar    1  UNL1       -0.0029
     27 C          -7.7834  -14.7843   25.3858 C.ar    1  UNL1       -0.0003
     28 C          -8.0175  -15.2447   26.7940 C.ar    1  UNL1       -0.0000
     29 C          -6.9437  -15.9930   27.5268 C.ar    1  UNL1       -0.0003
     30 C          -5.6357  -16.2809   26.8513 C.ar    1  UNL1       -0.0029
@<TRIPOS>BOND
     1     1     2    2
     2     2     3    1
     3     3     4    2
     4     4     5    1
     5     5     6   am
     6     6     7    2
     7     6     8    1
     8     8     9    1
     9     9    10    2
    10    10    11    1
    11    11    17    1
    12    17    18   ar
    13    18    19   ar
    14    19    20   ar
    15    20    21   ar
    16    21    22   ar
    17    22    23    1
    18     5    12    1
    19    12    13    1
    20    13    14    1
    21    14    15    1
    22    15    24    1
    23    24    25    1
    24    25    26   ar
    25    26    27   ar
    26    27    28   ar
    27    28    29   ar
    28    29    30   ar
    29    15    16    1
    30    11     2   am
    31    22    17   ar
    32    30    25   ar
    33     9     3    1
    34    16     4    1
@<TRIPOS>MOLECULE
*****
 30 34 0 0 0
SMALL
GASTEIGER

@<TRIPOS>ATOM
      1 O          -6.1756  -18.1395   23.3206 O.2     1  UNL1       -0.2677
      2 C          -7.5504  -17.5793   23.1062 C.2     1  UNL1        0.2738
      3 C          -8.4913  -17.9516   21.9990 C.2     1  UNL1        0.0820
      4 C          -8.3661  -18.9163   20.8571 C.2     1  UNL1        0.0530
      5 N          -9.4976  -19.0801   19.8863 N.am    1  UNL1       -0.2604
      6 C         -10.7544  -18.2795   20.0571 C.2     1  UNL1        0.2352
      7 O         -11.8860  -18.4434   19.0862 O.2     1  UNL1       -0.2741
      8 C         -10.8798  -17.3148   21.1989 C.3     1  UNL1        0.1330
      9 C          -9.7482  -17.1508   22.1699 C.2     1  UNL1        0.0914
     10 N          -9.5840  -16.2837   23.3828 N.2     1  UNL1       -0.1750
     11 N          -8.2257  -16.5485   23.9614 N.am    1  UNL1       -0.1544
     12 C          -9.5793  -19.9793   18.6883 C.3     1  UNL1        0.0994
     13 C          -8.5495  -20.9365   18.1655 C.3     1  UNL1        0.0392
     14 C          -7.1839  -21.2310   18.7114 C.3     1  UNL1        0.0745
     15 N          -6.5105  -20.6411   19.9150 N.3     1  UNL1       -0.2641
     16 C          -7.0367  -19.6109   20.8700 C.3     1  UNL1        0.1147
     17 C          -7.6447  -15.8969   25.1813 C.ar    1  UNL1        0.0876
     18 C          -8.4050  -15.9129   26.4742 C.ar    1  UNL1        0.0177
     19 C          -7.8240  -15.2613   27.6940 C.ar    1  UNL1        0.0014
     20 C          -6.4827  -14.5937   27.6208 C.ar    1  UNL1        0.0010
     21 C          -5.7225  -14.5777   26.3278 C.ar    1  UNL1        0.0127
     22 C          -6.3034  -15.2293   25.1080 C.ar    1  UNL1        0.0732
     23 CL         -5.5432  -15.2133   23.8151 Cl      1  UNL1       -0.0809
     24 C          -5.1284  -21.1484   20.2016 C.3     1  UNL1        0.0994
     25 C          -3.9965  -20.1806   20.3817 C.ar    1  UNL1       -0.0061
     26 C          -3.4545  -19.4321   19.2002 C.ar    1  UNL1       -0.0029
     27 C          -2.3228  -18.4643   19.3804 C.ar    1  UNL1       -0.0003
     28 C          -1.7330  -18.2450   20.7419 C.ar    1  UNL1       -0.0000
     29 C          -2.2750  -18.9935   21.9235 C.ar    1  UNL1       -0.0003
     30 C          -3.4067  -19.9613   21.7434 C.ar    1  UNL1       -0.0029
@<TRIPOS>BOND
     1     1     2    2
     2     2     3    1
     3     3     4    2
     4     4     5    1
     5     5     6   am
     6     6     7    2
     7     6     8    1
     8     8     9    1
     9     9    10    2
    10    10    11    1
    11    11    17    1
    12    17    18   ar
    13    18    19   ar
    14    19    20   ar
    15    20    21   ar
    16    21    22   ar
    17    22    23    1
    18     5    12    1
    19    12    13    1
    20    13    14    1
    21    14    15    1
    22    15    24    1
    23    24    25    1
    24    25    26   ar
    25    26    27   ar
    26    27    28   ar
    27    28    29   ar
    28    29    30   ar
    29    15    16    1
    30    11     2   am
    31    22    17   ar
    32    30    25   ar
    33     9     3    1
    34    16     4    1
@<TRIPOS>MOLECULE
*****
 30 34 0 0 0
SMALL
GASTEIGER

@<TRIPOS>ATOM
      1 O           5.2655   -3.7827   22.4303 O.2     1  UNL1       -0.2677
      2 C           5.5763   -3.3162   23.8216 C.2     1  UNL1        0.2738
      3 C           4.9709   -2.1285   24.5091 C.2     1  UNL1        0.0820
      4 C           3.9534   -1.1209   24.0622 C.2     1  UNL1        0.0530
      5 N           3.5326   -0.0187   24.9884 N.am    1  UNL1       -0.2604
      6 C           4.1291    0.0761   26.3614 C.2     1  UNL1        0.2352
      7 O           3.7082    1.1785   27.2876 O.2     1  UNL1       -0.2741
      8 C           5.1465   -0.9314   26.8083 C.3     1  UNL1        0.1330
      9 C           5.5674   -2.0337   25.8821 C.2     1  UNL1        0.0914
     10 N           6.5415   -3.1630   26.0432 N.2     1  UNL1       -0.1750
     11 N           6.5470   -3.9556   24.7698 N.am    1  UNL1       -0.1544
     12 C           2.5416    1.0807   24.7444 C.3     1  UNL1        0.0994
     13 C           1.7268    1.3492   23.5139 C.3     1  UNL1        0.0392
     14 C           1.7018    0.5848   22.2237 C.3     1  UNL1        0.0745
     15 N           2.4852   -0.6370   21.8450 N.3     1  UNL1       -0.2641
     16 C           3.4873   -1.3961   22.6633 C.3     1  UNL1        0.1147
     17 C           7.3774   -5.1738   24.4930 C.ar    1  UNL1        0.0876
     18 C           8.2036   -5.2502   23.2434 C.ar    1  UNL1        0.0177
     19 C           9.0340   -6.4683   22.9667 C.ar    1  UNL1        0.0014
     20 C           9.0382   -7.6101   23.9396 C.ar    1  UNL1        0.0010
     21 C           8.2120   -7.5335   25.1892 C.ar    1  UNL1        0.0127
     22 C           7.3816   -6.3155   25.4660 C.ar    1  UNL1        0.0732
     23 CL          6.5554   -6.2389   26.7156 Cl      1  UNL1       -0.0809
     24 C           2.2333   -1.1702   20.4659 C.3     1  UNL1        0.0994
     25 C           3.3504   -1.8048   19.6915 C.ar    1  UNL1       -0.0061
     26 C           3.3874   -3.2936   19.5122 C.ar    1  UNL1       -0.0029
     27 C           4.5044   -3.9281   18.7379 C.ar    1  UNL1       -0.0003
     28 C           5.5843   -3.0740   18.1428 C.ar    1  UNL1       -0.0000
     29 C           5.5472   -1.5852   18.3220 C.ar    1  UNL1       -0.0003
     30 C           4.4303   -0.9506   19.0964 C.ar    1  UNL1       -0.0029
@<TRIPOS>BOND
     1     1     2    2
     2     2     3    1
     3     3     4    2
     4     4     5    1
     5     5     6   am
     6     6     7    2
     7     6     8    1
     8     8     9    1
     9     9    10    2
    10    10    11    1
    11    11    17    1
    12    17    18   ar
    13    18    19   ar
    14    19    20   ar
    15    20    21   ar
    16    21    22   ar
    17    22    23    1
    18     5    12    1
    19    12    13    1
    20    13    14    1
    21    14    15    1
    22    15    24    1
    23    24    25    1
    24    25    26   ar
    25    26    27   ar
    26    27    28   ar
    27    28    29   ar
    28    29    30   ar
    29    15    16    1
    30    11     2   am
    31    22    17   ar
    32    30    25   ar
    33     9     3    1
    34    16     4    1
@<TRIPOS>MOLECULE
*****
 30 34 0 0 0
SMALL
GASTEIGER

@<TRIPOS>ATOM
      1 O           6.7086   -2.3682   24.4865 O.2     1  UNL1       -0.2677
      2 C           7.0927   -3.7977   24.2440 C.2     1  UNL1        0.2738
      3 C           7.3060   -4.8442   25.2973 C.2     1  UNL1        0.0820
      4 C           7.2110   -4.7962   26.7936 C.2     1  UNL1        0.0530
      5 N           7.4861   -6.0291   27.6024 N.am    1  UNL1       -0.2604
      6 C           7.8561   -7.3099   26.9151 C.2     1  UNL1        0.2352
      7 O           8.1312   -8.5428   27.7240 O.2     1  UNL1       -0.2741
      8 C           7.9512   -7.3580   25.4189 C.3     1  UNL1        0.1330
      9 C           7.6761   -6.1251   24.6100 C.2     1  UNL1        0.0914
     10 N           7.6915   -5.8702   23.1319 N.2     1  UNL1       -0.1750
     11 N           7.3310   -4.4319   22.9057 N.am    1  UNL1       -0.1544
     12 C           7.4477   -6.1980   29.0924 C.3     1  UNL1        0.0994
     13 C           7.1246   -5.1756   30.1415 C.3     1  UNL1        0.0392
     14 C           6.7603   -3.7320   29.9597 C.3     1  UNL1        0.0745
     15 N           6.6289   -2.9541   28.6839 N.3     1  UNL1       -0.2641
     16 C           6.8295   -3.4277   27.2748 C.3     1  UNL1        0.1147
     17 C           7.2270   -3.7478   21.5748 C.ar    1  UNL1        0.0876
     18 C           8.4700   -3.3192   20.8526 C.ar    1  UNL1        0.0177
     19 C           8.3659   -2.6351   19.5218 C.ar    1  UNL1        0.0014
     20 C           7.0190   -2.3796   18.9130 C.ar    1  UNL1        0.0010
     21 C           5.7761   -2.8082   19.6352 C.ar    1  UNL1        0.0127
     22 C           5.8800   -3.4922   20.9661 C.ar    1  UNL1        0.0732
     23 CL          4.6372   -3.9208   21.6883 Cl      1  UNL1       -0.0809
     24 C           6.2465   -1.5119   28.8375 C.3     1  UNL1        0.0994
     25 C           4.8305   -1.1425   29.1674 C.ar    1  UNL1       -0.0061
     26 C           3.8136   -1.0164   28.0720 C.ar    1  UNL1       -0.0029
     27 C           2.3978   -0.6470   28.4020 C.ar    1  UNL1       -0.0003
     28 C           1.9989   -0.4037   29.8273 C.ar    1  UNL1       -0.0000
     29 C           3.0158   -0.5297   30.9227 C.ar    1  UNL1       -0.0003
     30 C           4.4316   -0.8991   30.5929 C.ar    1  UNL1       -0.0029
@<TRIPOS>BOND
     1     1     2    2
     2     2     3    1
     3     3     4    2
     4     4     5    1
     5     5     6   am
     6     6     7    2
     7     6     8    1
     8     8     9    1
     9     9    10    2
    10    10    11    1
    11    11    17    1
    12    17    18   ar
    13    18    19   ar
    14    19    20   ar
    15    20    21   ar
    16    21    22   ar
    17    22    23    1
    18     5    12    1
    19    12    13    1
    20    13    14    1
    21    14    15    1
    22    15    24    1
    23    24    25    1
    24    25    26   ar
    25    26    27   ar
    26    27    28   ar
    27    28    29   ar
    28    29    30   ar
    29    15    16    1
    30    11     2   am
    31    22    17   ar
    32    30    25   ar
    33     9     3    1
    34    16     4    1
@<TRIPOS>MOLECULE
*****
 30 34 0 0 0
SMALL
GASTEIGER

@<TRIPOS>ATOM
      1 O           2.0617    0.8772   21.8353 O.2     1  UNL1       -0.2677
      2 C           2.7411   -0.0004   22.8444 C.2     1  UNL1        0.2738
      3 C           3.6869   -1.1243   22.5408 C.2     1  UNL1        0.0820
      4 C           4.2064   -1.6771   21.2467 C.2     1  UNL1        0.0530
      5 N           5.1632   -2.8322   21.2550 N.am    1  UNL1       -0.2604
      6 C           5.6007   -3.4345   22.5572 C.2     1  UNL1        0.2352
      7 O           6.5576   -4.5897   22.5654 O.2     1  UNL1       -0.2741
      8 C           5.0812   -2.8817   23.8513 C.3     1  UNL1        0.1330
      9 C           4.1244   -1.7266   23.8431 C.2     1  UNL1        0.0914
     10 N           3.4489   -0.9749   24.9515 N.2     1  UNL1       -0.1750
     11 N           2.5940    0.0920   24.3343 N.am    1  UNL1       -0.1544
     12 C           5.7969   -3.5301   20.0881 C.3     1  UNL1        0.0994
     13 C           5.6301   -3.2452   18.6249 C.3     1  UNL1        0.0392
     14 C           4.7885   -2.1921   17.9672 C.3     1  UNL1        0.0745
     15 N           3.9059   -1.1637   18.6101 N.3     1  UNL1       -0.2641
     16 C           3.6468   -0.9346   20.0697 C.3     1  UNL1        0.1147
     17 C           1.7416    1.0781   25.0767 C.ar    1  UNL1        0.0876
     18 C           0.2475    1.0157   24.9596 C.ar    1  UNL1        0.0177
     19 C          -0.6048    2.0018   25.7020 C.ar    1  UNL1        0.0014
     20 C           0.0370    3.0503   26.5616 C.ar    1  UNL1        0.0010
     21 C           1.5311    3.1126   26.6786 C.ar    1  UNL1        0.0127
     22 C           2.3835    2.1266   25.9363 C.ar    1  UNL1        0.0732
     23 CL          3.8776    2.1890   26.0534 Cl      1  UNL1       -0.0809
     24 C           3.1873   -0.2429   17.6691 C.3     1  UNL1        0.0994
     25 C           2.5547    1.0147   18.1873 C.ar    1  UNL1       -0.0061
     26 C           1.0748    1.0666   18.4259 C.ar    1  UNL1       -0.0029
     27 C           0.4423    2.3242   18.9440 C.ar    1  UNL1       -0.0003
     28 C           1.2897    3.5298   19.2236 C.ar    1  UNL1       -0.0000
     29 C           2.7697    3.4779   18.9851 C.ar    1  UNL1       -0.0003
     30 C           3.4023    2.2204   18.4669 C.ar    1  UNL1       -0.0029
@<TRIPOS>BOND
     1     1     2    2
     2     2     3    1
     3     3     4    2
     4     4     5    1
     5     5     6   am
     6     6     7    2
     7     6     8    1
     8     8     9    1
     9     9    10    2
    10    10    11    1
    11    11    17    1
    12    17    18   ar
    13    18    19   ar
    14    19    20   ar
    15    20    21   ar
    16    21    22   ar
    17    22    23    1
    18     5    12    1
    19    12    13    1
    20    13    14    1
    21    14    15    1
    22    15    24    1
    23    24    25    1
    24    25    26   ar
    25    26    27   ar
    26    27    28   ar
    27    28    29   ar
    28    29    30   ar
    29    15    16    1
    30    11     2   am
    31    22    17   ar
    32    30    25   ar
    33     9     3    1
    34    16     4    1
@<TRIPOS>MOLECULE
*****
 30 34 0 0 0
SMALL
GASTEIGER

@<TRIPOS>ATOM
      1 O          -5.7705  -18.0743   23.0548 O.2     1  UNL1       -0.2677
      2 C          -6.1135  -18.5532   21.6754 C.2     1  UNL1        0.2738
      3 C          -7.4955  -18.7893   21.1422 C.2     1  UNL1        0.0820
      4 C          -8.8515  -18.6347   21.7648 C.2     1  UNL1        0.0530
      5 N         -10.0825  -18.9530   20.9693 N.am    1  UNL1       -0.2604
      6 C          -9.9579  -19.4259   19.5513 C.2     1  UNL1        0.2352
      7 O         -11.1892  -19.7442   18.7558 O.2     1  UNL1       -0.2741
      8 C          -8.6020  -19.5805   18.9287 C.3     1  UNL1        0.1330
      9 C          -7.3708  -19.2621   19.7241 C.2     1  UNL1        0.0914
     10 N          -5.9116  -19.3184   19.3809 N.2     1  UNL1       -0.1750
     11 N          -5.1346  -18.8802   20.5868 N.am    1  UNL1       -0.1544
     12 C         -11.5186  -18.8682   21.3944 C.3     1  UNL1        0.0994
     13 C         -12.0780  -18.4442   22.7201 C.3     1  UNL1        0.0392
     14 C         -11.3397  -18.0003   23.9479 C.3     1  UNL1        0.0745
     15 N          -9.8595  -17.8706   24.1535 N.3     1  UNL1       -0.2641
     16 C          -8.7521  -18.1530   23.1819 C.3     1  UNL1        0.1147
     17 C          -3.6409  -18.7857   20.6866 C.ar    1  UNL1        0.0876
     18 C          -2.9218  -19.4479   21.8244 C.ar    1  UNL1        0.0177
     19 C          -1.4281  -19.3533   21.9241 C.ar    1  UNL1        0.0014
     20 C          -0.6535  -18.5966   20.8862 C.ar    1  UNL1        0.0010
     21 C          -1.3726  -17.9344   19.7485 C.ar    1  UNL1        0.0127
     22 C          -2.8663  -18.0289   19.6486 C.ar    1  UNL1        0.0732
     23 CL         -3.5854  -17.3667   18.5109 Cl      1  UNL1       -0.0809
     24 C          -9.4299  -17.3959   25.5099 C.3     1  UNL1        0.0994
     25 C          -8.2117  -16.5320   25.6511 C.ar    1  UNL1       -0.0061
     26 C          -7.6264  -15.8581   24.4457 C.ar    1  UNL1       -0.0029
     27 C          -6.4083  -14.9942   24.5870 C.ar    1  UNL1       -0.0003
     28 C          -5.7756  -14.8043   25.9336 C.ar    1  UNL1       -0.0000
     29 C          -6.3609  -15.4782   27.1391 C.ar    1  UNL1       -0.0003
     30 C          -7.5790  -16.3421   26.9979 C.ar    1  UNL1       -0.0029
@<TRIPOS>BOND
     1     1     2    2
     2     2     3    1
     3     3     4    2
     4     4     5    1
     5     5     6   am
     6     6     7    2
     7     6     8    1
     8     8     9    1
     9     9    10    2
    10    10    11    1
    11    11    17    1
    12    17    18   ar
    13    18    19   ar
    14    19    20   ar
    15    20    21   ar
    16    21    22   ar
    17    22    23    1
    18     5    12    1
    19    12    13    1
    20    13    14    1
    21    14    15    1
    22    15    24    1
    23    24    25    1
    24    25    26   ar
    25    26    27   ar
    26    27    28   ar
    27    28    29   ar
    28    29    30   ar
    29    15    16    1
    30    11     2   am
    31    22    17   ar
    32    30    25   ar
    33     9     3    1
    34    16     4    1
@<TRIPOS>MOLECULE
*****
 30 34 0 0 0
SMALL
GASTEIGER

@<TRIPOS>ATOM
      1 O           0.4254    2.9595   23.0782 O.2     1  UNL1       -0.2677
      2 C          -0.7314    2.9918   22.1239 C.2     1  UNL1        0.2738
      3 C          -2.1596    3.2815   22.4791 C.2     1  UNL1        0.0820
      4 C          -2.8239    3.6020   23.7853 C.2     1  UNL1        0.0530
      5 N          -4.3024    3.8498   23.8337 N.am    1  UNL1       -0.2604
      6 C          -5.1168    3.7773   22.5762 C.2     1  UNL1        0.2352
      7 O          -6.5953    4.0252   22.6248 O.2     1  UNL1       -0.2741
      8 C          -4.4525    3.4568   21.2700 C.3     1  UNL1        0.1330
      9 C          -2.9740    3.2089   21.2214 C.2     1  UNL1        0.0914
     10 N          -2.0490    2.8744   20.0889 N.2     1  UNL1       -0.1750
     11 N          -0.6630    2.7402   20.6467 N.am    1  UNL1       -0.1544
     12 C          -5.1566    4.1818   25.0213 C.3     1  UNL1        0.0994
     13 C          -4.7430    4.3479   26.4537 C.3     1  UNL1        0.0392
     14 C          -3.3734    4.2230   27.0521 C.3     1  UNL1        0.0745
     15 N          -2.0788    3.9012   26.3661 N.3     1  UNL1       -0.2641
     16 C          -1.8342    3.6248   24.9122 C.3     1  UNL1        0.1147
     17 C           0.5742    2.4121   19.8645 C.ar    1  UNL1        0.0876
     18 C           1.3321    3.5028   19.1673 C.ar    1  UNL1        0.0177
     19 C           2.5692    3.1745   18.3852 C.ar    1  UNL1        0.0014
     20 C           3.0485    1.7557   18.3002 C.ar    1  UNL1        0.0010
     21 C           2.2906    0.6651   18.9974 C.ar    1  UNL1        0.0127
     22 C           1.0534    0.9932   19.7795 C.ar    1  UNL1        0.0732
     23 CL          0.2955   -0.0974   20.4767 Cl      1  UNL1       -0.0809
     24 C          -0.8688    3.8489   27.2510 C.3     1  UNL1        0.0994
     25 C          -0.3635    2.5289   27.7534 C.ar    1  UNL1       -0.0061
     26 C           1.0920    2.3548   28.0716 C.ar    1  UNL1       -0.0029
     27 C           1.5972    1.0348   28.5739 C.ar    1  UNL1       -0.0003
     28 C           0.6470   -0.1111   28.7580 C.ar    1  UNL1       -0.0000
     29 C          -0.8084    0.0629   28.4398 C.ar    1  UNL1       -0.0003
     30 C          -1.3138    1.3829   27.9375 C.ar    1  UNL1       -0.0029
@<TRIPOS>BOND
     1     1     2    2
     2     2     3    1
     3     3     4    2
     4     4     5    1
     5     5     6   am
     6     6     7    2
     7     6     8    1
     8     8     9    1
     9     9    10    2
    10    10    11    1
    11    11    17    1
    12    17    18   ar
    13    18    19   ar
    14    19    20   ar
    15    20    21   ar
    16    21    22   ar
    17    22    23    1
    18     5    12    1
    19    12    13    1
    20    13    14    1
    21    14    15    1
    22    15    24    1
    23    24    25    1
    24    25    26   ar
    25    26    27   ar
    26    27    28   ar
    27    28    29   ar
    28    29    30   ar
    29    15    16    1
    30    11     2   am
    31    22    17   ar
    32    30    25   ar
    33     9     3    1
    34    16     4    1
@<TRIPOS>MOLECULE
*****
 30 34 0 0 0
SMALL
GASTEIGER

@<TRIPOS>ATOM
      1 O           5.8609   -2.4878   25.8689 O.2     1  UNL1       -0.2677
      2 C           6.4639   -3.7904   25.4335 C.2     1  UNL1        0.2738
      3 C           7.0311   -4.8450   26.3368 C.2     1  UNL1        0.0820
      4 C           7.1629   -4.9237   27.8290 C.2     1  UNL1        0.0530
      5 N           7.7870   -6.1307   28.4642 N.am    1  UNL1       -0.2604
      6 C           8.2793   -7.2591   27.6074 C.2     1  UNL1        0.2352
      7 O           8.9034   -8.4662   28.2427 O.2     1  UNL1       -0.2741
      8 C           8.1475   -7.1806   26.1152 C.3     1  UNL1        0.1330
      9 C           7.5234   -5.9735   25.4800 C.2     1  UNL1        0.0914
     10 N           7.2604   -5.6163   24.0470 N.2     1  UNL1       -0.1750
     11 N           6.6057   -4.2671   24.0183 N.am    1  UNL1       -0.1544
     12 C           8.0134   -6.4094   29.9206 C.3     1  UNL1        0.0994
     13 C           7.6716   -5.5498   31.1015 C.3     1  UNL1        0.0392
     14 C           7.0191   -4.1994   31.1175 C.3     1  UNL1        0.0745
     15 N           6.5471   -3.3748   29.9568 N.3     1  UNL1       -0.2641
     16 C           6.6111   -3.6972   28.4932 C.3     1  UNL1        0.1147
     17 C           6.1692   -3.5248   22.7901 C.ar    1  UNL1        0.0876
     18 C           4.7661   -3.6755   22.2816 C.ar    1  UNL1        0.0177
     19 C           4.3297   -2.9333   21.0534 C.ar    1  UNL1        0.0014
     20 C           5.2964   -2.0403   20.3335 C.ar    1  UNL1        0.0010
     21 C           6.6995   -1.8897   20.8420 C.ar    1  UNL1        0.0127
     22 C           7.1360   -2.6319   22.0702 C.ar    1  UNL1        0.0732
     23 CL          8.5391   -2.4813   22.5788 Cl      1  UNL1       -0.0809
     24 C           5.9294   -2.0532   30.3057 C.3     1  UNL1        0.0994
     25 C           5.7375   -1.6712   31.7435 C.ar    1  UNL1       -0.0061
     26 C           6.7779   -0.8510   32.4469 C.ar    1  UNL1       -0.0029
     27 C           6.5860   -0.4690   33.8847 C.ar    1  UNL1       -0.0003
     28 C           5.3538   -0.9073   34.6191 C.ar    1  UNL1       -0.0000
     29 C           4.3134   -1.7276   33.9157 C.ar    1  UNL1       -0.0003
     30 C           4.5052   -2.1096   32.4780 C.ar    1  UNL1       -0.0029
@<TRIPOS>BOND
     1     1     2    2
     2     2     3    1
     3     3     4    2
     4     4     5    1
     5     5     6   am
     6     6     7    2
     7     6     8    1
     8     8     9    1
     9     9    10    2
    10    10    11    1
    11    11    17    1
    12    17    18   ar
    13    18    19   ar
    14    19    20   ar
    15    20    21   ar
    16    21    22   ar
    17    22    23    1
    18     5    12    1
    19    12    13    1
    20    13    14    1
    21    14    15    1
    22    15    24    1
    23    24    25    1
    24    25    26   ar
    25    26    27   ar
    26    27    28   ar
    27    28    29   ar
    28    29    30   ar
    29    15    16    1
    30    11     2   am
    31    22    17   ar
    32    30    25   ar
    33     9     3    1
    34    16     4    1
@<TRIPOS>MOLECULE
*****
 30 34 0 0 0
SMALL
GASTEIGER

@<TRIPOS>ATOM
      1 O           6.6091   -3.6305   23.6834 O.2     1  UNL1       -0.2677
      2 C           5.4621   -2.6655   23.7402 C.2     1  UNL1        0.2738
      3 C           4.9639   -1.9594   24.9662 C.2     1  UNL1        0.0820
      4 C           5.4151   -1.9921   26.3965 C.2     1  UNL1        0.0530
      5 N           4.7083   -1.1601   27.4250 N.am    1  UNL1       -0.2604
      6 C           3.5503   -0.2954   27.0236 C.2     1  UNL1        0.2352
      7 O           2.8434    0.5366   28.0523 O.2     1  UNL1       -0.2741
      8 C           3.0990   -0.2626   25.5934 C.3     1  UNL1        0.1330
      9 C           3.8058   -1.0946   24.5648 C.2     1  UNL1        0.0914
     10 N           3.5884   -1.2662   23.0906 N.2     1  UNL1       -0.1750
     11 N           4.6120   -2.2371   22.5810 N.am    1  UNL1       -0.1544
     12 C           4.9939   -1.0465   28.8933 C.3     1  UNL1        0.0994
     13 C           6.0571   -1.7368   29.6953 C.3     1  UNL1        0.0392
     14 C           7.0969   -2.7112   29.2274 C.3     1  UNL1        0.0745
     15 N           7.3307   -3.2360   27.8417 N.3     1  UNL1       -0.2641
     16 C           6.5822   -2.9160   26.5818 C.3     1  UNL1        0.1147
     17 C           4.7596   -2.6985   21.1613 C.ar    1  UNL1        0.0876
     18 C           4.2384   -4.0442   20.7521 C.ar    1  UNL1        0.0177
     19 C           4.3860   -4.5056   19.3325 C.ar    1  UNL1        0.0014
     20 C           5.0548   -3.6214   18.3221 C.ar    1  UNL1        0.0010
     21 C           5.5759   -2.2757   18.7314 C.ar    1  UNL1        0.0127
     22 C           5.4284   -1.8142   20.1510 C.ar    1  UNL1        0.0732
     23 CL          5.9496   -0.4685   20.5603 Cl      1  UNL1       -0.0809
     24 C           8.4625   -4.2096   27.6968 C.3     1  UNL1        0.0994
     25 C           8.3672   -5.3278   26.7016 C.ar    1  UNL1       -0.0061
     26 C           7.4566   -6.4904   26.9647 C.ar    1  UNL1       -0.0029
     27 C           7.3613   -7.6086   25.9695 C.ar    1  UNL1       -0.0003
     28 C           8.1766   -7.5643   24.7112 C.ar    1  UNL1       -0.0000
     29 C           9.0872   -6.4018   24.4481 C.ar    1  UNL1       -0.0003
     30 C           9.1825   -5.2835   25.4432 C.ar    1  UNL1       -0.0029
@<TRIPOS>BOND
     1     1     2    2
     2     2     3    1
     3     3     4    2
     4     4     5    1
     5     5     6   am
     6     6     7    2
     7     6     8    1
     8     8     9    1
     9     9    10    2
    10    10    11    1
    11    11    17    1
    12    17    18   ar
    13    18    19   ar
    14    19    20   ar
    15    20    21   ar
    16    21    22   ar
    17    22    23    1
    18     5    12    1
    19    12    13    1
    20    13    14    1
    21    14    15    1
    22    15    24    1
    23    24    25    1
    24    25    26   ar
    25    26    27   ar
    26    27    28   ar
    27    28    29   ar
    28    29    30   ar
    29    15    16    1
    30    11     2   am
    31    22    17   ar
    32    30    25   ar
    33     9     3    1
    34    16     4    1
