@<TRIPOS>MOLECULE
*****
 31 35 0 0 0
SMALL
GASTEIGER

@<TRIPOS>ATOM
      1 C          -4.3354  -18.8755   21.5093 C.3     1  UNL1        0.2246
      2 C          -3.5826  -17.7161   22.0915 C.2     1  UNL1        0.0438
      3 C          -2.0841  -17.6871   22.0284 C.2     1  UNL1        0.0288
      4 C          -1.3386  -18.8175   21.3832 C.2     1  UNL1        0.0896
      5 N          -2.0914  -19.9770   20.8011 N.am    1  UNL1       -0.1770
      6 C          -3.5898  -20.0059   20.8642 C.2     1  UNL1        0.2627
      7 O          -4.3426  -21.1654   20.2820 O.2     1  UNL1       -0.2719
      8 C          -9.5386  -19.9195   18.8785 C.3     1  UNL1        0.0313
      9 C          -9.4879  -19.4470   20.3012 C.2     1  UNL1        0.0138
     10 C         -10.7602  -19.2359   21.0672 C.2     1  UNL1        0.0138
     11 C         -10.7095  -18.7634   22.4898 C.2     1  UNL1        0.0686
     12 C          -9.3865  -18.5020   23.1467 C.2     1  UNL1        0.0643
     13 C          -8.1142  -18.7131   22.3807 C.2     1  UNL1        0.2248
     14 N          -6.6735  -18.5394   22.7605 N.2     1  UNL1       -0.0377
     15 C          -5.8338  -18.9046   21.5724 C.2     1  UNL1        0.3605
     16 N          -6.7555  -19.3039   20.4584 N.2     1  UNL1       -0.0547
     17 C          -8.1649  -19.1856   20.9580 C.3     1  UNL1        0.2976
     18 N         -11.9819  -18.5523   23.2558 N.ar    1  UNL1       -0.2863
     19 C         -12.2239  -18.9351   24.6858 C.ar    1  UNL1        0.1022
     20 C         -13.6271  -18.5408   25.0400 C.ar    1  UNL1        0.1196
     21 N         -14.2523  -17.9143   23.8290 N.ar    1  UNL1       -0.2220
     22 C         -13.2355  -17.9214   22.7263 C.ar    1  UNL1        0.1828
     23 N          -4.3280  -16.5856   22.7367 N.pl3   1  UNL1       -0.3303
     24 H          -4.8336  -15.9490   22.1814 H       1  UNL1        0.1469
     25 C          -4.3033  -16.4252   24.2278 C.3     1  UNL1        0.1335
     26 C          -5.5530  -16.0374   24.9612 C.ar    1  UNL1        0.0788
     27 C          -5.5425  -15.9319   26.4575 C.ar    1  UNL1        0.0165
     28 C          -6.7923  -15.5441   27.1908 C.ar    1  UNL1        0.0029
     29 C          -8.0526  -15.2617   26.4279 C.ar    1  UNL1        0.0207
     30 C          -8.0630  -15.3672   24.9316 C.ar    1  UNL1        0.0985
     31 N          -6.8133  -15.7550   24.1983 N.ar    1  UNL1       -0.2464
@<TRIPOS>BOND
     1     8     9    1
     2     9    10    2
     3    10    11    1
     4    11    18    1
     5    18    19   ar
     6    19    20   ar
     7    20    21   ar
     8    21    22   ar
     9    11    12    2
    10    12    13    1
    11    13    14    2
    12    14    15    1
    13    15     1    1
    14     1     2    1
    15     2    23    1
    16    23    25    1
    17    25    26    1
    18    26    27   ar
    19    27    28   ar
    20    28    29   ar
    21    29    30   ar
    22    30    31   ar
    23     2     3    2
    24     3     4    1
    25     4     5    2
    26     5     6    1
    27     6     7    2
    28    15    16    2
    29    16    17    1
    30    17     9    1
    31    22    18   ar
    32    17    13    1
    33     6     1    1
    34    31    26   ar
    35    23    24    1
@<TRIPOS>MOLECULE
*****
 31 35 0 0 0
SMALL
GASTEIGER

@<TRIPOS>ATOM
      1 C         -10.3678  -18.2950   21.9077 C.3     1  UNL1        0.2246
      2 C         -10.7451  -18.1800   23.3549 C.2     1  UNL1        0.0438
      3 C         -12.1550  -17.8392   23.7376 C.2     1  UNL1        0.0288
      4 C         -13.1874  -17.6134   22.6731 C.2     1  UNL1        0.0896
      5 N         -12.8100  -17.7284   21.2259 N.am    1  UNL1       -0.1770
      6 C         -11.4002  -18.0692   20.8433 C.2     1  UNL1        0.2627
      7 O         -11.0229  -18.1842   19.3961 O.2     1  UNL1       -0.2719
      8 C          -6.4764  -22.1541   19.6608 C.3     1  UNL1        0.0313
      9 C          -6.0221  -20.8047   20.1327 C.2     1  UNL1        0.0138
     10 C          -4.5741  -20.4251   20.0372 C.2     1  UNL1        0.0138
     11 C          -4.1198  -19.0757   20.5090 C.2     1  UNL1        0.0686
     12 C          -5.1136  -18.1058   21.0765 C.2     1  UNL1        0.0643
     13 C          -6.5616  -18.4854   21.1720 C.2     1  UNL1        0.2248
     14 N          -7.7619  -17.7443   21.6818 N.2     1  UNL1       -0.0377
     15 C          -8.9580  -18.6357   21.5250 C.2     1  UNL1        0.3605
     16 N          -8.4970  -19.9278   20.9183 N.2     1  UNL1       -0.0547
     17 C          -7.0159  -19.8349   20.7001 C.3     1  UNL1        0.2976
     18 N          -2.6717  -18.6961   20.4135 N.ar    1  UNL1       -0.2863
     19 C          -1.9694  -18.2006   19.1842 C.ar    1  UNL1        0.1022
     20 C          -0.5355  -17.9436   19.5415 C.ar    1  UNL1        0.1196
     21 N          -0.3515  -18.2803   20.9915 N.ar    1  UNL1       -0.2220
     22 C          -1.6718  -18.7454   21.5305 C.ar    1  UNL1        0.1828
     23 N          -9.7128  -18.4058   24.4194 N.pl3   1  UNL1       -0.3303
     24 H          -9.0900  -19.1648   24.3480 H       1  UNL1        0.1469
     25 C          -9.6293  -17.4750   25.5928 C.3     1  UNL1        0.1335
     26 C          -8.4043  -16.6339   25.7972 C.ar    1  UNL1        0.0788
     27 C          -7.9558  -16.2872   27.1859 C.ar    1  UNL1        0.0165
     28 C          -6.7307  -15.4460   27.3903 C.ar    1  UNL1        0.0029
     29 C          -5.9542  -14.9517   26.2060 C.ar    1  UNL1        0.0207
     30 C          -6.4028  -15.2985   24.8172 C.ar    1  UNL1        0.0985
     31 N          -7.6278  -16.1396   24.6129 N.ar    1  UNL1       -0.2464
@<TRIPOS>BOND
     1     8     9    1
     2     9    10    2
     3    10    11    1
     4    11    18    1
     5    18    19   ar
     6    19    20   ar
     7    20    21   ar
     8    21    22   ar
     9    11    12    2
    10    12    13    1
    11    13    14    2
    12    14    15    1
    13    15     1    1
    14     1     2    1
    15     2    23    1
    16    23    25    1
    17    25    26    1
    18    26    27   ar
    19    27    28   ar
    20    28    29   ar
    21    29    30   ar
    22    30    31   ar
    23     2     3    2
    24     3     4    1
    25     4     5    2
    26     5     6    1
    27     6     7    2
    28    15    16    2
    29    16    17    1
    30    17     9    1
    31    22    18   ar
    32    17    13    1
    33     6     1    1
    34    31    26   ar
    35    23    24    1
@<TRIPOS>MOLECULE
*****
 31 35 0 0 0
SMALL
GASTEIGER

@<TRIPOS>ATOM
      1 C          -9.1370  -18.7548   23.2346 C.3     1  UNL1        0.2246
      2 C          -9.8860  -17.4645   23.0789 C.2     1  UNL1        0.0438
      3 C         -11.2193  -17.2866   23.7427 C.2     1  UNL1        0.0288
      4 C         -11.8036  -18.3988   24.5622 C.2     1  UNL1        0.0896
      5 N         -11.0546  -19.6890   24.7179 N.am    1  UNL1       -0.1770
      6 C          -9.7213  -19.8670   24.0541 C.2     1  UNL1        0.2627
      7 O          -8.9722  -21.1572   24.2098 O.2     1  UNL1       -0.2719
      8 C          -5.5629  -21.9086   19.7184 C.3     1  UNL1        0.0313
      9 C          -5.0801  -20.6348   20.3464 C.2     1  UNL1        0.0138
     10 C          -3.6841  -20.1521   20.0855 C.2     1  UNL1        0.0138
     11 C          -3.2014  -18.8784   20.7134 C.2     1  UNL1        0.0686
     12 C          -4.1146  -18.0872   21.6024 C.2     1  UNL1        0.0643
     13 C          -5.5106  -18.5699   21.8632 C.2     1  UNL1        0.2248
     14 N          -6.6295  -18.0069   22.6886 N.2     1  UNL1       -0.0377
     15 C          -7.8037  -18.9328   22.5707 C.2     1  UNL1        0.3605
     16 N          -7.4106  -20.0680   21.6725 N.2     1  UNL1       -0.0547
     17 C          -5.9934  -19.8437   21.2352 C.3     1  UNL1        0.2976
     18 N          -1.8052  -18.3956   20.4525 N.ar    1  UNL1       -0.2863
     19 C          -1.3464  -16.9678   20.4807 C.ar    1  UNL1        0.1022
     20 C           0.1195  -16.9458   20.1633 C.ar    1  UNL1        0.1196
     21 N           0.5666  -18.3599   19.9389 N.ar    1  UNL1       -0.2220
     22 C          -0.6230  -19.2560   20.1176 C.ar    1  UNL1        0.1828
     23 N          -9.3018  -16.3523   22.2594 N.pl3   1  UNL1       -0.3303
     24 H          -9.2719  -16.4272   21.2782 H       1  UNL1        0.1469
     25 C          -8.7633  -15.1260   22.9347 C.3     1  UNL1        0.1335
     26 C          -7.9675  -15.2548   24.1997 C.ar    1  UNL1        0.0788
     27 C          -8.6602  -15.5669   25.4931 C.ar    1  UNL1        0.0165
     28 C          -7.8643  -15.6957   26.7580 C.ar    1  UNL1        0.0029
     29 C          -6.3759  -15.5123   26.7296 C.ar    1  UNL1        0.0207
     30 C          -5.6832  -15.2002   25.4362 C.ar    1  UNL1        0.0985
     31 N          -6.4791  -15.0714   24.1713 N.ar    1  UNL1       -0.2464
@<TRIPOS>BOND
     1     8     9    1
     2     9    10    2
     3    10    11    1
     4    11    18    1
     5    18    19   ar
     6    19    20   ar
     7    20    21   ar
     8    21    22   ar
     9    11    12    2
    10    12    13    1
    11    13    14    2
    12    14    15    1
    13    15     1    1
    14     1     2    1
    15     2    23    1
    16    23    25    1
    17    25    26    1
    18    26    27   ar
    19    27    28   ar
    20    28    29   ar
    21    29    30   ar
    22    30    31   ar
    23     2     3    2
    24     3     4    1
    25     4     5    2
    26     5     6    1
    27     6     7    2
    28    15    16    2
    29    16    17    1
    30    17     9    1
    31    22    18   ar
    32    17    13    1
    33     6     1    1
    34    31    26   ar
    35    23    24    1
@<TRIPOS>MOLECULE
*****
 31 35 0 0 0
SMALL
GASTEIGER

@<TRIPOS>ATOM
      1 C           6.8381   -2.9963   20.6386 C.3     1  UNL1        0.2246
      2 C           5.4716   -2.5529   20.2072 C.2     1  UNL1        0.0438
      3 C           5.2815   -1.9045   18.8680 C.2     1  UNL1        0.0288
      4 C           6.4579   -1.6994   17.9601 C.2     1  UNL1        0.0896
      5 N           7.8244   -2.1428   18.3915 N.am    1  UNL1       -0.1770
      6 C           8.0144   -2.7912   19.7308 C.2     1  UNL1        0.2627
      7 O           9.3810   -3.2345   20.1621 O.2     1  UNL1       -0.2719
      8 C           8.7250   -7.5898   23.8671 C.3     1  UNL1        0.0313
      9 C           8.1053   -6.3969   24.5327 C.2     1  UNL1        0.0138
     10 C           7.9602   -6.3620   26.0252 C.2     1  UNL1        0.0138
     11 C           7.3405   -5.1692   26.6908 C.2     1  UNL1        0.0686
     12 C           6.8659   -4.0111   25.8638 C.2     1  UNL1        0.0643
     13 C           7.0111   -4.0460   24.3713 C.2     1  UNL1        0.2248
     14 N           6.6387   -3.0607   23.3034 N.2     1  UNL1       -0.0377
     15 C           7.0283   -3.6447   21.9778 C.2     1  UNL1        0.3605
     16 N           7.6414   -4.9909   22.2264 N.2     1  UNL1       -0.0547
     17 C           7.6308   -5.2389   23.7057 C.3     1  UNL1        0.2976
     18 N           7.1953   -5.1343   28.1834 N.ar    1  UNL1       -0.2863
     19 C           7.6429   -6.2013   29.1379 C.ar    1  UNL1        0.1022
     20 C           7.3013   -5.7527   30.5279 C.ar    1  UNL1        0.1196
     21 N           6.6426   -4.4085   30.4325 N.ar    1  UNL1       -0.2220
     22 C           6.5771   -4.0263   28.9835 C.ar    1  UNL1        0.1828
     23 N           4.2952   -2.7580   21.1149 N.pl3   1  UNL1       -0.3303
     24 H           3.8157   -3.6178   21.1127 H       1  UNL1        0.1469
     25 C           3.8493   -1.6530   22.0260 C.3     1  UNL1        0.1335
     26 C           2.6729   -0.8010   21.6517 C.ar    1  UNL1        0.0788
     27 C           1.9930   -1.0002   20.3295 C.ar    1  UNL1        0.0165
     28 C           0.8166   -0.1481   19.9553 C.ar    1  UNL1        0.0029
     29 C           0.3201    0.9032   20.9031 C.ar    1  UNL1        0.0207
     30 C           1.0000    1.1023   22.2252 C.ar    1  UNL1        0.0985
     31 N           2.1764    0.2503   22.5995 N.ar    1  UNL1       -0.2464
@<TRIPOS>BOND
     1     8     9    1
     2     9    10    2
     3    10    11    1
     4    11    18    1
     5    18    19   ar
     6    19    20   ar
     7    20    21   ar
     8    21    22   ar
     9    11    12    2
    10    12    13    1
    11    13    14    2
    12    14    15    1
    13    15     1    1
    14     1     2    1
    15     2    23    1
    16    23    25    1
    17    25    26    1
    18    26    27   ar
    19    27    28   ar
    20    28    29   ar
    21    29    30   ar
    22    30    31   ar
    23     2     3    2
    24     3     4    1
    25     4     5    2
    26     5     6    1
    27     6     7    2
    28    15    16    2
    29    16    17    1
    30    17     9    1
    31    22    18   ar
    32    17    13    1
    33     6     1    1
    34    31    26   ar
    35    23    24    1
@<TRIPOS>MOLECULE
*****
 31 35 0 0 0
SMALL
GASTEIGER

@<TRIPOS>ATOM
      1 C           7.4406   -5.5155   24.2284 C.3     1  UNL1        0.2246
      2 C           7.4538   -5.9174   25.6735 C.2     1  UNL1        0.0438
      3 C           8.4157   -6.9642   26.1520 C.2     1  UNL1        0.0288
      4 C           9.3643   -7.6092   25.1855 C.2     1  UNL1        0.0896
      5 N           9.3510   -7.2074   23.7404 N.am    1  UNL1       -0.1770
      6 C           8.3892   -6.1605   23.2619 C.2     1  UNL1        0.2627
      7 O           8.3759   -5.7587   21.8168 O.2     1  UNL1       -0.2719
      8 C           3.9239   -0.8945   25.3962 C.3     1  UNL1        0.0313
      9 C           4.0448   -1.4228   23.9975 C.2     1  UNL1        0.0138
     10 C           3.2723   -0.7805   22.8837 C.2     1  UNL1        0.0138
     11 C           3.3932   -1.3088   21.4852 C.2     1  UNL1        0.0686
     12 C           4.2866   -2.4796   21.2002 C.2     1  UNL1        0.0643
     13 C           5.0591   -3.1220   22.3140 C.2     1  UNL1        0.2248
     14 N           6.0112   -4.2808   22.3369 N.2     1  UNL1       -0.0377
     15 C           6.4787   -4.4687   23.7498 C.2     1  UNL1        0.3605
     16 N           5.8156   -3.4259   24.6000 N.2     1  UNL1       -0.0547
     17 C           4.9382   -2.5936   23.7127 C.3     1  UNL1        0.2976
     18 N           2.6206   -0.6663   20.3713 N.ar    1  UNL1       -0.2863
     19 C           3.2043   -0.0509   19.1341 C.ar    1  UNL1        0.1022
     20 C           2.0732    0.4692   18.2974 C.ar    1  UNL1        0.1196
     21 N           0.7906    0.1752   19.0173 N.ar    1  UNL1       -0.2220
     22 C           1.1289   -0.5266   20.2991 C.ar    1  UNL1        0.1828
     23 N           6.5053   -5.2724   26.6400 N.pl3   1  UNL1       -0.3303
     24 H           5.5704   -5.5771   26.6898 H       1  UNL1        0.1469
     25 C           6.9810   -4.1633   27.5308 C.3     1  UNL1        0.1335
     26 C           6.8721   -4.2989   29.0207 C.ar    1  UNL1        0.0788
     27 C           7.1531   -5.6185   29.6762 C.ar    1  UNL1        0.0165
     28 C           7.0442   -5.7540   31.1662 C.ar    1  UNL1        0.0029
     29 C           6.6543   -4.5701   32.0005 C.ar    1  UNL1        0.0207
     30 C           6.3732   -3.2505   31.3449 C.ar    1  UNL1        0.0985
     31 N           6.4822   -3.1150   29.8550 N.ar    1  UNL1       -0.2464
@<TRIPOS>BOND
     1     8     9    1
     2     9    10    2
     3    10    11    1
     4    11    18    1
     5    18    19   ar
     6    19    20   ar
     7    20    21   ar
     8    21    22   ar
     9    11    12    2
    10    12    13    1
    11    13    14    2
    12    14    15    1
    13    15     1    1
    14     1     2    1
    15     2    23    1
    16    23    25    1
    17    25    26    1
    18    26    27   ar
    19    27    28   ar
    20    28    29   ar
    21    29    30   ar
    22    30    31   ar
    23     2     3    2
    24     3     4    1
    25     4     5    2
    26     5     6    1
    27     6     7    2
    28    15    16    2
    29    16    17    1
    30    17     9    1
    31    22    18   ar
    32    17    13    1
    33     6     1    1
    34    31    26   ar
    35    23    24    1
@<TRIPOS>MOLECULE
*****
 31 35 0 0 0
SMALL
GASTEIGER

@<TRIPOS>ATOM
      1 C           7.3339   -4.8664   23.7477 C.3     1  UNL1        0.2246
      2 C           7.3179   -4.9839   25.2430 C.2     1  UNL1        0.0438
      3 C           8.3860   -5.7690   25.9451 C.2     1  UNL1        0.0288
      4 C           9.4701   -6.4365   25.1519 C.2     1  UNL1        0.0896
      5 N           9.4861   -6.3190   23.6566 N.am    1  UNL1       -0.1770
      6 C           8.4180   -5.5339   22.9545 C.2     1  UNL1        0.2627
      7 O           8.4340   -5.4164   21.4593 O.2     1  UNL1       -0.2719
      8 C           4.0011   -3.9429   18.9390 C.3     1  UNL1        0.0313
      9 C           3.8492   -3.0682   20.1480 C.2     1  UNL1        0.0138
     10 C           2.8484   -1.9509   20.1445 C.2     1  UNL1        0.0138
     11 C           2.6965   -1.0762   21.3535 C.2     1  UNL1        0.0686
     12 C           3.5456   -1.3187   22.5661 C.2     1  UNL1        0.0643
     13 C           4.5464   -2.4359   22.5697 C.2     1  UNL1        0.2248
     14 N           5.5153   -2.9122   23.6111 N.2     1  UNL1       -0.0377
     15 C           6.2659   -4.0813   23.0456 C.2     1  UNL1        0.3605
     16 N           5.7610   -4.3276   21.6548 N.2     1  UNL1       -0.0547
     17 C           4.6983   -3.3107   21.3606 C.3     1  UNL1        0.2976
     18 N           1.6956    0.0411   21.3499 N.ar    1  UNL1       -0.2863
     19 C           1.7642    1.2889   22.1795 C.ar    1  UNL1        0.1022
     20 C           0.5614    2.1256   21.8585 C.ar    1  UNL1        0.1196
     21 N          -0.2506    1.3950   20.8305 N.ar    1  UNL1       -0.2220
     22 C           0.4504    0.1066   20.5162 C.ar    1  UNL1        0.1828
     23 N           6.2339   -4.3164   26.0363 N.pl3   1  UNL1       -0.3303
     24 H           5.2913   -4.5517   25.8770 H       1  UNL1        0.1469
     25 C           6.5860   -3.2903   27.0722 C.3     1  UNL1        0.1335
     26 C           6.8820   -3.7164   28.4796 C.ar    1  UNL1        0.0788
     27 C           6.5359   -5.1042   28.9316 C.ar    1  UNL1        0.0165
     28 C           6.8320   -5.5302   30.3390 C.ar    1  UNL1        0.0029
     29 C           7.4741   -4.5685   31.2945 C.ar    1  UNL1        0.0207
     30 C           7.8202   -3.1807   30.8424 C.ar    1  UNL1        0.0985
     31 N           7.5241   -2.7547   29.4350 N.ar    1  UNL1       -0.2464
@<TRIPOS>BOND
     1     8     9    1
     2     9    10    2
     3    10    11    1
     4    11    18    1
     5    18    19   ar
     6    19    20   ar
     7    20    21   ar
     8    21    22   ar
     9    11    12    2
    10    12    13    1
    11    13    14    2
    12    14    15    1
    13    15     1    1
    14     1     2    1
    15     2    23    1
    16    23    25    1
    17    25    26    1
    18    26    27   ar
    19    27    28   ar
    20    28    29   ar
    21    29    30   ar
    22    30    31   ar
    23     2     3    2
    24     3     4    1
    25     4     5    2
    26     5     6    1
    27     6     7    2
    28    15    16    2
    29    16    17    1
    30    17     9    1
    31    22    18   ar
    32    17    13    1
    33     6     1    1
    34    31    26   ar
    35    23    24    1
@<TRIPOS>MOLECULE
*****
 31 35 0 0 0
SMALL
GASTEIGER

@<TRIPOS>ATOM
      1 C           6.7057   -4.2741   24.6095 C.3     1  UNL1        0.2246
      2 C           6.5207   -3.8225   26.0278 C.2     1  UNL1        0.0438
      3 C           7.3945   -4.3796   27.1123 C.2     1  UNL1        0.0288
      4 C           8.4532   -5.3884   26.7785 C.2     1  UNL1        0.0896
      5 N           8.6382   -5.8400   25.3602 N.am    1  UNL1       -0.1770
      6 C           7.7645   -5.2829   24.2757 C.2     1  UNL1        0.2627
      7 O           7.9495   -5.7345   22.8573 O.2     1  UNL1       -0.2719
      8 C           4.3915   -4.7297   19.1761 C.3     1  UNL1        0.0313
      9 C           4.0612   -3.5535   20.0464 C.2     1  UNL1        0.0138
     10 C           3.1394   -2.4830   19.5423 C.2     1  UNL1        0.0138
     11 C           2.8091   -1.3068   20.4125 C.2     1  UNL1        0.0686
     12 C           3.4005   -1.2011   21.7870 C.2     1  UNL1        0.0643
     13 C           4.3224   -2.2717   22.2911 C.2     1  UNL1        0.2248
     14 N           5.0512   -2.4380   23.5915 N.2     1  UNL1       -0.0377
     15 C           5.8320   -3.7170   23.5249 C.2     1  UNL1        0.3605
     16 N           5.5857   -4.3412   22.1834 N.2     1  UNL1       -0.0547
     17 C           4.6527   -3.4479   21.4208 C.3     1  UNL1        0.2976
     18 N           1.8872   -0.2362   19.9084 N.ar    1  UNL1       -0.2863
     19 C           1.9788    0.4519   18.5787 C.ar    1  UNL1        0.1022
     20 C           0.8602    1.4476   18.4940 C.ar    1  UNL1        0.1196
     21 N           0.0772    1.3749   19.7713 N.ar    1  UNL1       -0.2220
     22 C           0.7119    0.3342   20.6454 C.ar    1  UNL1        0.1828
     23 N           5.4620   -2.8137   26.3617 N.pl3   1  UNL1       -0.3303
     24 H           4.5842   -2.8561   25.9179 H       1  UNL1        0.1469
     25 C           5.7406   -1.7403   27.3718 C.3     1  UNL1        0.1335
     26 C           4.6635   -1.3061   28.3211 C.ar    1  UNL1        0.0788
     27 C           4.9974   -1.0243   29.7561 C.ar    1  UNL1        0.0165
     28 C           3.9202   -0.5900   30.7054 C.ar    1  UNL1        0.0029
     29 C           2.5092   -0.4376   30.2198 C.ar    1  UNL1        0.0207
     30 C           2.1754   -0.7194   28.7848 C.ar    1  UNL1        0.0985
     31 N           3.2525   -1.1536   27.8355 N.ar    1  UNL1       -0.2464
@<TRIPOS>BOND
     1     8     9    1
     2     9    10    2
     3    10    11    1
     4    11    18    1
     5    18    19   ar
     6    19    20   ar
     7    20    21   ar
     8    21    22   ar
     9    11    12    2
    10    12    13    1
    11    13    14    2
    12    14    15    1
    13    15     1    1
    14     1     2    1
    15     2    23    1
    16    23    25    1
    17    25    26    1
    18    26    27   ar
    19    27    28   ar
    20    28    29   ar
    21    29    30   ar
    22    30    31   ar
    23     2     3    2
    24     3     4    1
    25     4     5    2
    26     5     6    1
    27     6     7    2
    28    15    16    2
    29    16    17    1
    30    17     9    1
    31    22    18   ar
    32    17    13    1
    33     6     1    1
    34    31    26   ar
    35    23    24    1
@<TRIPOS>MOLECULE
*****
 31 35 0 0 0
SMALL
GASTEIGER

@<TRIPOS>ATOM
      1 C          -1.5626    4.1465   19.0674 C.3     1  UNL1        0.2246
      2 C          -2.9344    4.1005   19.6724 C.2     1  UNL1        0.0438
      3 C          -3.9136    5.2026   19.3953 C.2     1  UNL1        0.0288
      4 C          -3.5210    6.3505   18.5132 C.2     1  UNL1        0.0896
      5 N          -2.1493    6.3965   17.9082 N.am    1  UNL1       -0.1770
      6 C          -1.1701    5.2944   18.1853 C.2     1  UNL1        0.2627
      7 O           0.2017    5.3404   17.5803 O.2     1  UNL1       -0.2719
      8 C           1.3533    0.7640   22.9585 C.3     1  UNL1        0.0313
      9 C           1.5624    0.5792   21.4846 C.2     1  UNL1        0.0138
     10 C           2.5149   -0.4675   20.9877 C.2     1  UNL1        0.0138
     11 C           2.7240   -0.6523   19.5139 C.2     1  UNL1        0.0686
     12 C           1.9805    0.2096   18.5370 C.2     1  UNL1        0.0643
     13 C           1.0279    1.2564   19.0339 C.2     1  UNL1        0.2248
     14 N           0.1613    2.2473   18.3149 N.2     1  UNL1       -0.0377
     15 C          -0.5834    3.0445   19.3444 C.2     1  UNL1        0.3605
     16 N          -0.1770    2.5463   20.6997 N.2     1  UNL1       -0.0547
     17 C           0.8189    1.4411   20.5078 C.3     1  UNL1        0.2976
     18 N           3.6766   -1.6991   19.0169 N.ar    1  UNL1       -0.2863
     19 C           3.6433   -3.1579   19.3646 C.ar    1  UNL1        0.1022
     20 C           4.7758   -3.8312   18.6476 C.ar    1  UNL1        0.1196
     21 N           5.5090   -2.7886   17.8569 N.ar    1  UNL1       -0.2220
     22 C           4.8297   -1.4709   18.0851 C.ar    1  UNL1        0.1828
     23 N          -3.3271    2.9527   20.5545 N.pl3   1  UNL1       -0.3303
     24 H          -2.6584    2.2764   20.8092 H       1  UNL1        0.1469
     25 C          -4.7385    2.8350   21.0486 C.3     1  UNL1        0.1335
     26 C          -5.1042    3.3596   22.4054 C.ar    1  UNL1        0.0788
     27 C          -4.1441    3.2160   23.5489 C.ar    1  UNL1        0.0165
     28 C          -4.5100    3.7407   24.9058 C.ar    1  UNL1        0.0029
     29 C          -5.8359    4.4089   25.1191 C.ar    1  UNL1        0.0207
     30 C          -6.7960    4.5525   23.9755 C.ar    1  UNL1        0.0985
     31 N          -6.4301    4.0279   22.6187 N.ar    1  UNL1       -0.2464
@<TRIPOS>BOND
     1     8     9    1
     2     9    10    2
     3    10    11    1
     4    11    18    1
     5    18    19   ar
     6    19    20   ar
     7    20    21   ar
     8    21    22   ar
     9    11    12    2
    10    12    13    1
    11    13    14    2
    12    14    15    1
    13    15     1    1
    14     1     2    1
    15     2    23    1
    16    23    25    1
    17    25    26    1
    18    26    27   ar
    19    27    28   ar
    20    28    29   ar
    21    29    30   ar
    22    30    31   ar
    23     2     3    2
    24     3     4    1
    25     4     5    2
    26     5     6    1
    27     6     7    2
    28    15    16    2
    29    16    17    1
    30    17     9    1
    31    22    18   ar
    32    17    13    1
    33     6     1    1
    34    31    26   ar
    35    23    24    1
@<TRIPOS>MOLECULE
*****
 31 35 0 0 0
SMALL
GASTEIGER

@<TRIPOS>ATOM
      1 C           3.6382   -0.6045   28.2341 C.3     1  UNL1        0.2246
      2 C           2.3754   -0.5014   29.0370 C.2     1  UNL1        0.0438
      3 C           2.4444   -0.3700   30.5297 C.2     1  UNL1        0.0288
      4 C           3.7761   -0.3418   31.2195 C.2     1  UNL1        0.0896
      5 N           5.0389   -0.4449   30.4166 N.am    1  UNL1       -0.1770
      6 C           4.9699   -0.5763   28.9239 C.2     1  UNL1        0.2627
      7 O           6.2327   -0.6794   28.1210 O.2     1  UNL1       -0.2719
      8 C           5.2364   -3.4236   23.2760 C.3     1  UNL1        0.0313
      9 C           4.3201   -2.2377   23.2140 C.2     1  UNL1        0.0138
     10 C           3.8022   -1.7585   21.8903 C.2     1  UNL1        0.0138
     11 C           2.8859   -0.5726   21.8282 C.2     1  UNL1        0.0686
     12 C           2.4874    0.1342   23.0898 C.2     1  UNL1        0.0643
     13 C           3.0052   -0.3450   24.4135 C.2     1  UNL1        0.2248
     14 N           2.7875    0.1464   25.8139 N.2     1  UNL1       -0.0377
     15 C           3.5693   -0.7358   26.7415 C.2     1  UNL1        0.3605
     16 N           4.2702   -1.7725   25.9144 N.2     1  UNL1       -0.0547
     17 C           3.9215   -1.5310   24.4756 C.3     1  UNL1        0.2976
     18 N           2.3681   -0.0933   20.5044 N.ar    1  UNL1       -0.2863
     19 C           3.2023    0.3579   19.3424 C.ar    1  UNL1        0.1022
     20 C           2.2750    0.7489   18.2301 C.ar    1  UNL1        0.1196
     21 N           0.8676    0.5393   18.7047 N.ar    1  UNL1       -0.2220
     22 C           0.9251    0.0187   20.1103 C.ar    1  UNL1        0.1828
     23 N           1.0437   -0.5296   28.3474 N.pl3   1  UNL1       -0.3303
     24 H           0.8332   -1.2522   27.7127 H       1  UNL1        0.1469
     25 C           0.0326    0.5432   28.6246 C.3     1  UNL1        0.1335
     26 C          -0.1620    1.6617   27.6444 C.ar    1  UNL1        0.0788
     27 C          -0.4753    1.3557   26.2097 C.ar    1  UNL1        0.0165
     28 C          -0.6699    2.4744   25.2295 C.ar    1  UNL1        0.0029
     29 C          -0.5513    3.8990   25.6839 C.ar    1  UNL1        0.0207
     30 C          -0.2380    4.2049   27.1186 C.ar    1  UNL1        0.0985
     31 N          -0.0434    3.0863   28.0988 N.ar    1  UNL1       -0.2464
@<TRIPOS>BOND
     1     8     9    1
     2     9    10    2
     3    10    11    1
     4    11    18    1
     5    18    19   ar
     6    19    20   ar
     7    20    21   ar
     8    21    22   ar
     9    11    12    2
    10    12    13    1
    11    13    14    2
    12    14    15    1
    13    15     1    1
    14     1     2    1
    15     2    23    1
    16    23    25    1
    17    25    26    1
    18    26    27   ar
    19    27    28   ar
    20    28    29   ar
    21    29    30   ar
    22    30    31   ar
    23     2     3    2
    24     3     4    1
    25     4     5    2
    26     5     6    1
    27     6     7    2
    28    15    16    2
    29    16    17    1
    30    17     9    1
    31    22    18   ar
    32    17    13    1
    33     6     1    1
    34    31    26   ar
    35    23    24    1
