@<TRIPOS>MOLECULE
*****
 22 23 0 0 0
SMALL
GASTEIGER

@<TRIPOS>ATOM
      1 C          -8.5487  -16.5072   23.8191 C.3     1  UNL1        0.0728
      2 C          -8.9103  -16.5966   25.2721 C.3     1  UNL1        0.0257
      3 C          -8.2189  -15.4765   25.9916 C.3     1  UNL1        0.0690
      4 N          -7.4301  -14.6950   24.9832 N.3     1  UNL1       -0.2971
      5 C          -7.6339  -15.3320   23.6405 C.3     1  UNL1        0.0759
      6 H          -6.4401  -14.7135   25.2283 H       1  UNL1        0.1233
      7 C          -8.3706  -16.6707   22.3388 C.2     1  UNL1        0.1910
      8 O          -9.0346  -15.7140   21.3933 O.2     1  UNL1       -0.2897
      9 C          -7.5285  -17.7909   21.8038 C.ar    1  UNL1        0.1169
     10 C          -8.0547  -18.6661   20.7051 C.ar    1  UNL1        0.0230
     11 C          -7.2125  -19.7862   20.1702 C.ar    1  UNL1        0.0154
     12 C          -5.8443  -20.0311   20.7340 C.ar    1  UNL1        0.0861
     13 CL         -5.0022  -21.1513   20.1990 Cl      1  UNL1       -0.0798
     14 C          -5.3181  -19.1559   21.8327 C.ar    1  UNL1        0.1488
     15 CL         -3.9499  -19.4009   22.3965 Cl      1  UNL1       -0.0604
     16 N          -6.1602  -18.0358   22.3676 N.ar    1  UNL1       -0.2302
     17 C          -9.4263  -17.7167   23.6882 C.3     1  UNL1        0.0087
     18 C         -10.9163  -17.5764   23.7885 C.3     1  UNL1        0.0005
     19 C         -11.3000  -19.1474   22.4156 C.3     1  UNL1        0.0000
     20 C         -11.7683  -17.7302   22.5635 C.3     1  UNL1        0.0000
     21 C         -12.2367  -16.3128   22.7115 C.3     1  UNL1        0.0000
     22 C         -12.6204  -17.8837   21.3386 C.3     1  UNL1        0.0000
@<TRIPOS>BOND
     1    19    20    1
     2    20    21    1
     3    20    22    1
     4    20    18    1
     5    18    17    1
     6    17     1    1
     7     1     7    1
     8     7     8    2
     9     7     9    1
    10     9    10   ar
    11    10    11   ar
    12    11    12   ar
    13    12    13    1
    14    12    14   ar
    15    14    15    1
    16    14    16   ar
    17     1     2    1
    18     2     3    1
    19     3     4    1
    20     4     5    1
    21     5     1    1
    22    16     9   ar
    23     4     6    1
@<TRIPOS>MOLECULE
*****
 22 23 0 0 0
SMALL
GASTEIGER

@<TRIPOS>ATOM
      1 C          -8.2650  -16.0833   23.9668 C.3     1  UNL1        0.0728
      2 C          -8.8439  -16.1078   25.3504 C.3     1  UNL1        0.0257
      3 C          -7.8518  -15.4729   26.2793 C.3     1  UNL1        0.0690
      4 N          -6.6598  -15.0561   25.4697 N.3     1  UNL1       -0.2971
      5 C          -6.9152  -15.4334   24.0406 C.3     1  UNL1        0.0759
      6 H          -5.8258  -15.5345   25.8103 H       1  UNL1        0.1233
      7 C          -7.9547  -16.1999   22.5039 C.2     1  UNL1        0.1910
      8 O          -8.1069  -15.0068   21.6076 O.2     1  UNL1       -0.2897
      9 C          -7.4923  -17.5095   21.9373 C.ar    1  UNL1        0.1169
     10 C          -6.3083  -18.2094   22.5358 C.ar    1  UNL1        0.0230
     11 C          -5.8459  -19.5190   21.9691 C.ar    1  UNL1        0.0154
     12 C          -6.5676  -20.1287   20.8040 C.ar    1  UNL1        0.0861
     13 CL         -6.1051  -21.4384   20.2374 Cl      1  UNL1       -0.0798
     14 C          -7.7516  -19.4288   20.2055 C.ar    1  UNL1        0.1488
     15 CL         -8.4732  -20.0385   19.0404 Cl      1  UNL1       -0.0604
     16 N          -8.2139  -18.1192   20.7722 N.ar    1  UNL1       -0.2302
     17 C          -9.5500  -16.7576   23.5872 C.3     1  UNL1        0.0087
     18 C          -9.8980  -18.0934   24.1743 C.3     1  UNL1        0.0005
     19 C         -11.4778  -18.2575   22.7682 C.3     1  UNL1        0.0000
     20 C         -10.4233  -19.1867   23.2919 C.3     1  UNL1        0.0000
     21 C          -9.3686  -20.1160   23.8156 C.3     1  UNL1        0.0000
     22 C         -10.9485  -20.2801   22.4095 C.3     1  UNL1        0.0000
@<TRIPOS>BOND
     1    19    20    1
     2    20    21    1
     3    20    22    1
     4    20    18    1
     5    18    17    1
     6    17     1    1
     7     1     7    1
     8     7     8    2
     9     7     9    1
    10     9    10   ar
    11    10    11   ar
    12    11    12   ar
    13    12    13    1
    14    12    14   ar
    15    14    15    1
    16    14    16   ar
    17     1     2    1
    18     2     3    1
    19     3     4    1
    20     4     5    1
    21     5     1    1
    22    16     9   ar
    23     4     6    1
@<TRIPOS>MOLECULE
*****
 22 23 0 0 0
SMALL
GASTEIGER

@<TRIPOS>ATOM
      1 C          -6.7837  -16.5892   23.2232 C.3     1  UNL1        0.0728
      2 C          -5.6766  -16.1894   24.1530 C.3     1  UNL1        0.0257
      3 C          -6.0300  -14.8593   24.7498 C.3     1  UNL1        0.0690
      4 N          -7.3556  -14.4372   24.1888 N.3     1  UNL1       -0.2971
      5 C          -7.8214  -15.5064   23.2454 C.3     1  UNL1        0.0759
      6 H          -7.2544  -13.5542   23.6885 H       1  UNL1        0.1233
      7 C          -7.7145  -17.2441   22.2462 C.2     1  UNL1        0.1910
      8 O          -7.2005  -17.7067   20.9151 O.2     1  UNL1       -0.2897
      9 C          -9.1595  -17.4363   22.6002 C.ar    1  UNL1        0.1169
     10 C          -9.5331  -18.1406   23.8707 C.ar    1  UNL1        0.0230
     11 C         -10.9780  -18.3328   24.2246 C.ar    1  UNL1        0.0154
     12 C         -12.0493  -17.8206   23.3080 C.ar    1  UNL1        0.0861
     13 CL        -13.4942  -18.0128   23.6620 Cl      1  UNL1       -0.0798
     14 C         -11.6756  -17.1162   22.0375 C.ar    1  UNL1        0.1488
     15 CL        -12.7469  -16.6040   21.1209 Cl      1  UNL1       -0.0604
     16 N         -10.2307  -16.9241   21.6836 N.ar    1  UNL1       -0.2302
     17 C          -5.9406  -17.8090   22.9968 C.3     1  UNL1        0.0087
     18 C          -4.4538  -17.7381   23.1824 C.3     1  UNL1        0.0005
     19 C          -4.6808  -19.6410   22.2727 C.3     1  UNL1        0.0000
     20 C          -3.5565  -18.6574   22.4079 C.3     1  UNL1        0.0000
     21 C          -2.4321  -17.6737   22.5431 C.3     1  UNL1        0.0000
     22 C          -2.6591  -19.5766   21.6335 C.3     1  UNL1        0.0000
@<TRIPOS>BOND
     1    19    20    1
     2    20    21    1
     3    20    22    1
     4    20    18    1
     5    18    17    1
     6    17     1    1
     7     1     7    1
     8     7     8    2
     9     7     9    1
    10     9    10   ar
    11    10    11   ar
    12    11    12   ar
    13    12    13    1
    14    12    14   ar
    15    14    15    1
    16    14    16   ar
    17     1     2    1
    18     2     3    1
    19     3     4    1
    20     4     5    1
    21     5     1    1
    22    16     9   ar
    23     4     6    1
@<TRIPOS>MOLECULE
*****
 22 23 0 0 0
SMALL
GASTEIGER

@<TRIPOS>ATOM
      1 C          -9.1008  -18.0730   23.4663 C.3     1  UNL1        0.0728
      2 C          -9.7487  -18.1759   24.8152 C.3     1  UNL1        0.0257
      3 C         -10.2661  -19.5747   24.9755 C.3     1  UNL1        0.0690
      4 N          -9.9379  -20.3364   23.7257 N.3     1  UNL1       -0.2971
      5 C          -9.2177  -19.4083   22.7929 C.3     1  UNL1        0.0759
      6 H         -10.7968  -20.6695   23.2878 H       1  UNL1        0.1233
      7 C          -8.3978  -17.6736   22.2029 C.2     1  UNL1        0.1910
      8 O          -9.0375  -16.6914   21.2669 O.2     1  UNL1       -0.2897
      9 C          -7.0549  -18.2564   21.8754 C.ar    1  UNL1        0.1169
     10 C          -6.9073  -19.1941   20.7140 C.ar    1  UNL1        0.0230
     11 C          -5.5644  -19.7768   20.3866 C.ar    1  UNL1        0.0154
     12 C          -4.3693  -19.4219   21.2207 C.ar    1  UNL1        0.0861
     13 CL         -3.0264  -20.0047   20.8932 Cl      1  UNL1       -0.0798
     14 C          -4.5169  -18.4842   22.3821 C.ar    1  UNL1        0.1488
     15 CL         -3.3218  -18.1293   23.2161 Cl      1  UNL1       -0.0604
     16 N          -5.8597  -17.9015   22.7095 N.ar    1  UNL1       -0.2302
     17 C          -8.8369  -16.6543   23.8755 C.3     1  UNL1        0.0087
     18 C          -8.8489  -16.2780   25.3274 C.3     1  UNL1        0.0005
     19 C          -8.0643  -16.2557   27.2982 C.3     1  UNL1        0.0000
     20 C          -7.6103  -15.7274   25.9699 C.3     1  UNL1        0.0000
     21 C          -7.1563  -15.1989   24.6414 C.3     1  UNL1        0.0000
     22 C          -6.3717  -15.1767   26.6122 C.3     1  UNL1        0.0000
@<TRIPOS>BOND
     1    19    20    1
     2    20    21    1
     3    20    22    1
     4    20    18    1
     5    18    17    1
     6    17     1    1
     7     1     7    1
     8     7     8    2
     9     7     9    1
    10     9    10   ar
    11    10    11   ar
    12    11    12   ar
    13    12    13    1
    14    12    14   ar
    15    14    15    1
    16    14    16   ar
    17     1     2    1
    18     2     3    1
    19     3     4    1
    20     4     5    1
    21     5     1    1
    22    16     9   ar
    23     4     6    1
@<TRIPOS>MOLECULE
*****
 22 23 0 0 0
SMALL
GASTEIGER

@<TRIPOS>ATOM
      1 C          -7.9187  -16.0588   24.7424 C.3     1  UNL1        0.0728
      2 C          -8.8081  -16.2750   25.9307 C.3     1  UNL1        0.0257
      3 C          -8.1316  -15.6804   27.1304 C.3     1  UNL1        0.0690
      4 N          -6.8241  -15.0968   26.6833 N.3     1  UNL1       -0.2971
      5 C          -6.6925  -15.3306   25.2075 C.3     1  UNL1        0.0759
      6 H          -6.0555  -15.5519   27.1758 H       1  UNL1        0.1233
      7 C          -7.2567  -15.9918   23.3981 C.2     1  UNL1        0.1910
      8 O          -7.6893  -14.9595   22.3996 O.2     1  UNL1       -0.2897
      9 C          -6.1619  -16.9573   23.0522 C.ar    1  UNL1        0.1169
     10 C          -4.7764  -16.7424   23.5851 C.ar    1  UNL1        0.0230
     11 C          -3.6817  -17.7078   23.2392 C.ar    1  UNL1        0.0154
     12 C          -3.9727  -18.8881   22.3605 C.ar    1  UNL1        0.0861
     13 CL         -2.8779  -19.8536   22.0147 Cl      1  UNL1       -0.0798
     14 C          -5.3582  -19.1030   21.8276 C.ar    1  UNL1        0.1488
     15 CL         -5.6491  -20.2834   20.9489 Cl      1  UNL1       -0.0604
     16 N          -6.4529  -18.1376   22.1735 N.ar    1  UNL1       -0.2302
     17 C          -9.0064  -16.7729   23.9962 C.3     1  UNL1        0.0087
     18 C          -9.4900  -18.1102   24.4735 C.3     1  UNL1        0.0005
     19 C          -9.1573  -20.0418   23.6623 C.3     1  UNL1        0.0000
     20 C         -10.2417  -19.0127   23.5406 C.3     1  UNL1        0.0000
     21 C         -11.3262  -17.9836   23.4189 C.3     1  UNL1        0.0000
     22 C         -10.9935  -19.9152   22.6076 C.3     1  UNL1        0.0000
@<TRIPOS>BOND
     1    19    20    1
     2    20    21    1
     3    20    22    1
     4    20    18    1
     5    18    17    1
     6    17     1    1
     7     1     7    1
     8     7     8    2
     9     7     9    1
    10     9    10   ar
    11    10    11   ar
    12    11    12   ar
    13    12    13    1
    14    12    14   ar
    15    14    15    1
    16    14    16   ar
    17     1     2    1
    18     2     3    1
    19     3     4    1
    20     4     5    1
    21     5     1    1
    22    16     9   ar
    23     4     6    1
@<TRIPOS>MOLECULE
*****
 22 23 0 0 0
SMALL
GASTEIGER

@<TRIPOS>ATOM
      1 C          -6.4252  -16.0590   23.7773 C.3     1  UNL1        0.0728
      2 C          -5.2809  -16.3035   24.7158 C.3     1  UNL1        0.0257
      3 C          -5.4164  -15.3541   25.8693 C.3     1  UNL1        0.0690
      4 N          -6.6444  -14.5229   25.6436 N.3     1  UNL1       -0.2971
      5 C          -7.2679  -14.9585   24.3507 C.3     1  UNL1        0.0759
      6 H          -6.3898  -13.5367   25.5901 H       1  UNL1        0.1233
      7 C          -7.4376  -16.0438   22.6706 C.2     1  UNL1        0.1910
      8 O          -7.5028  -14.8775   21.7297 O.2     1  UNL1       -0.2897
      9 C          -8.3847  -17.1952   22.5048 C.ar    1  UNL1        0.1169
     10 C          -9.0675  -17.7834   23.7038 C.ar    1  UNL1        0.0230
     11 C         -10.0146  -18.9346   23.5379 C.ar    1  UNL1        0.0154
     12 C         -10.2789  -19.4977   22.1730 C.ar    1  UNL1        0.0861
     13 CL        -11.2261  -20.6490   22.0071 Cl      1  UNL1       -0.0798
     14 C          -9.5962  -18.9094   20.9739 C.ar    1  UNL1        0.1488
     15 CL         -9.8605  -19.4725   19.6089 Cl      1  UNL1       -0.0604
     16 N          -8.6491  -17.7582   21.1398 N.ar    1  UNL1       -0.2302
     17 C          -5.7941  -17.1563   22.9725 C.3     1  UNL1        0.0087
     18 C          -4.3816  -17.5753   23.2536 C.3     1  UNL1        0.0005
     19 C          -2.4027  -17.9346   22.5791 C.3     1  UNL1        0.0000
     20 C          -3.7250  -18.6197   22.4003 C.3     1  UNL1        0.0000
     21 C          -5.0475  -19.3048   22.2215 C.3     1  UNL1        0.0000
     22 C          -3.0686  -19.6641   21.5469 C.3     1  UNL1        0.0000
@<TRIPOS>BOND
     1    19    20    1
     2    20    21    1
     3    20    22    1
     4    20    18    1
     5    18    17    1
     6    17     1    1
     7     1     7    1
     8     7     8    2
     9     7     9    1
    10     9    10   ar
    11    10    11   ar
    12    11    12   ar
    13    12    13    1
    14    12    14   ar
    15    14    15    1
    16    14    16   ar
    17     1     2    1
    18     2     3    1
    19     3     4    1
    20     4     5    1
    21     5     1    1
    22    16     9   ar
    23     4     6    1
@<TRIPOS>MOLECULE
*****
 22 23 0 0 0
SMALL
GASTEIGER

@<TRIPOS>ATOM
      1 C          -6.2987  -17.5611   22.8481 C.3     1  UNL1        0.0728
      2 C          -5.2667  -16.9845   23.7714 C.3     1  UNL1        0.0257
      3 C          -4.0122  -17.7944   23.6281 C.3     1  UNL1        0.0690
      4 N          -4.2690  -18.8714   22.6162 N.3     1  UNL1       -0.2971
      5 C          -5.6821  -18.7273   22.1341 C.3     1  UNL1        0.0759
      6 H          -4.1417  -19.7877   23.0460 H       1  UNL1        0.1233
      7 C          -7.5126  -17.9091   22.0387 C.2     1  UNL1        0.1910
      8 O          -7.3979  -18.0886   20.5539 O.2     1  UNL1       -0.2897
      9 C          -8.8414  -18.0775   22.7141 C.ar    1  UNL1        0.1169
     10 C          -9.0085  -19.1037   23.7952 C.ar    1  UNL1        0.0230
     11 C         -10.3372  -19.2722   24.4705 C.ar    1  UNL1        0.0154
     12 C         -11.4989  -18.4144   24.0646 C.ar    1  UNL1        0.0861
     13 CL        -12.8277  -18.5829   24.7400 Cl      1  UNL1       -0.0798
     14 C         -11.3318  -17.3882   22.9835 C.ar    1  UNL1        0.1488
     15 CL        -12.4935  -16.5305   22.5776 Cl      1  UNL1       -0.0604
     16 N         -10.0031  -17.2198   22.3082 N.ar    1  UNL1       -0.2302
     17 C          -7.1691  -16.4677   23.3929 C.3     1  UNL1        0.0087
     18 C          -6.6802  -15.6136   24.5249 C.3     1  UNL1        0.0005
     19 C          -6.2035  -15.5329   26.5904 C.3     1  UNL1        0.0000
     20 C          -7.4746  -15.5237   25.7941 C.3     1  UNL1        0.0000
     21 C          -8.7458  -15.5145   24.9977 C.3     1  UNL1        0.0000
     22 C          -8.2691  -15.4338   27.0632 C.3     1  UNL1        0.0000
@<TRIPOS>BOND
     1    19    20    1
     2    20    21    1
     3    20    22    1
     4    20    18    1
     5    18    17    1
     6    17     1    1
     7     1     7    1
     8     7     8    2
     9     7     9    1
    10     9    10   ar
    11    10    11   ar
    12    11    12   ar
    13    12    13    1
    14    12    14   ar
    15    14    15    1
    16    14    16   ar
    17     1     2    1
    18     2     3    1
    19     3     4    1
    20     4     5    1
    21     5     1    1
    22    16     9   ar
    23     4     6    1
@<TRIPOS>MOLECULE
*****
 22 23 0 0 0
SMALL
GASTEIGER

@<TRIPOS>ATOM
      1 C          -9.3109  -19.2077   22.6833 C.3     1  UNL1        0.0728
      2 C         -10.5305  -18.9056   23.5027 C.3     1  UNL1        0.0257
      3 C         -10.5687  -19.8709   24.6503 C.3     1  UNL1        0.0690
      4 N          -9.3727  -20.7694   24.5401 N.3     1  UNL1       -0.2971
      5 C          -8.5953  -20.3596   23.3245 C.3     1  UNL1        0.0759
      6 H          -9.6756  -21.7389   24.4467 H       1  UNL1        0.1233
      7 C          -8.1920  -19.2717   21.6864 C.2     1  UNL1        0.1910
      8 O          -8.4639  -19.7222   20.2817 O.2     1  UNL1       -0.2897
      9 C          -6.8011  -18.8852   22.0941 C.ar    1  UNL1        0.1169
     10 C          -5.6529  -19.8079   21.8109 C.ar    1  UNL1        0.0230
     11 C          -4.2621  -19.4214   22.2186 C.ar    1  UNL1        0.0154
     12 C          -4.0195  -18.1123   22.9095 C.ar    1  UNL1        0.0861
     13 CL         -2.6286  -17.7258   23.3172 Cl      1  UNL1       -0.0798
     14 C          -5.1678  -17.1896   23.1927 C.ar    1  UNL1        0.1488
     15 CL         -4.9252  -15.8805   23.8836 Cl      1  UNL1       -0.0604
     16 N          -6.5585  -17.5761   22.7850 N.ar    1  UNL1       -0.2302
     17 C          -9.7925  -18.0692   21.8337 C.3     1  UNL1        0.0087
     18 C         -11.2627  -17.8048   21.6973 C.3     1  UNL1        0.0005
     19 C         -11.1779  -17.6483   19.5835 C.3     1  UNL1        0.0000
     20 C         -11.7557  -16.8122   20.6866 C.3     1  UNL1        0.0000
     21 C         -12.3336  -15.9760   21.7898 C.3     1  UNL1        0.0000
     22 C         -12.2488  -15.8194   19.6760 C.3     1  UNL1        0.0000
@<TRIPOS>BOND
     1    19    20    1
     2    20    21    1
     3    20    22    1
     4    20    18    1
     5    18    17    1
     6    17     1    1
     7     1     7    1
     8     7     8    2
     9     7     9    1
    10     9    10   ar
    11    10    11   ar
    12    11    12   ar
    13    12    13    1
    14    12    14   ar
    15    14    15    1
    16    14    16   ar
    17     1     2    1
    18     2     3    1
    19     3     4    1
    20     4     5    1
    21     5     1    1
    22    16     9   ar
    23     4     6    1
@<TRIPOS>MOLECULE
*****
 22 23 0 0 0
SMALL
GASTEIGER

@<TRIPOS>ATOM
      1 C         -10.2465  -17.4790   22.7796 C.3     1  UNL1        0.0728
      2 C         -10.9599  -16.1786   22.5555 C.3     1  UNL1        0.0257
      3 C         -12.3402  -16.4872   22.0558 C.3     1  UNL1        0.0690
      4 N         -12.4798  -17.9783   21.9710 N.3     1  UNL1       -0.2971
      5 C         -11.1858  -18.5912   22.4183 C.3     1  UNL1        0.0759
      6 H         -12.6787  -18.2532   21.0091 H       1  UNL1        0.1233
      7 C          -9.2952  -18.5955   23.0928 C.2     1  UNL1        0.1910
      8 O          -9.5614  -19.5033   24.2570 O.2     1  UNL1       -0.2897
      9 C          -8.0776  -18.8045   22.2420 C.ar    1  UNL1        0.1169
     10 C          -8.2275  -19.1441   20.7886 C.ar    1  UNL1        0.0230
     11 C          -7.0100  -19.3530   19.9379 C.ar    1  UNL1        0.0154
     12 C          -5.6426  -19.2223   20.5404 C.ar    1  UNL1        0.0861
     13 CL         -4.4250  -19.4312   19.6895 Cl      1  UNL1       -0.0798
     14 C          -5.4927  -18.8827   21.9937 C.ar    1  UNL1        0.1488
     15 CL         -4.1252  -18.7521   22.5962 Cl      1  UNL1       -0.0604
     16 N          -6.7102  -18.6738   22.8445 N.ar    1  UNL1       -0.2302
     17 C          -9.1083  -16.6001   23.2063 C.3     1  UNL1        0.0087
     18 C          -9.0969  -16.0030   24.5823 C.3     1  UNL1        0.0005
     19 C          -8.3600  -16.2304   26.5584 C.3     1  UNL1        0.0000
     20 C          -7.7923  -15.7210   25.2668 C.3     1  UNL1        0.0000
     21 C          -7.2247  -15.2117   23.9751 C.3     1  UNL1        0.0000
     22 C          -6.4877  -15.4391   25.9513 C.3     1  UNL1        0.0000
@<TRIPOS>BOND
     1    19    20    1
     2    20    21    1
     3    20    22    1
     4    20    18    1
     5    18    17    1
     6    17     1    1
     7     1     7    1
     8     7     8    2
     9     7     9    1
    10     9    10   ar
    11    10    11   ar
    12    11    12   ar
    13    12    13    1
    14    12    14   ar
    15    14    15    1
    16    14    16   ar
    17     1     2    1
    18     2     3    1
    19     3     4    1
    20     4     5    1
    21     5     1    1
    22    16     9   ar
    23     4     6    1
