@<TRIPOS>MOLECULE
*****
 22 24 0 0 0
SMALL
GASTEIGER

@<TRIPOS>ATOM
      1 C          -7.6593  -18.4089   22.1808 C.3     1  UNL1        0.0604
      2 C          -8.3183  -19.6683   21.7017 C.3     1  UNL1        0.0100
      3 C          -9.8077  -19.7172   21.5307 C.3     1  UNL1        0.0263
      4 C         -10.6382  -18.5065   21.8387 C.ar    1  UNL1       -0.0228
      5 C         -12.1275  -18.5554   21.6676 C.ar    1  UNL1       -0.0045
      6 C         -12.9579  -17.3448   21.9757 C.ar    1  UNL1       -0.0003
      7 C         -12.2989  -16.0854   22.4548 C.ar    1  UNL1       -0.0002
      8 C         -10.8095  -16.0365   22.6259 C.ar    1  UNL1       -0.0011
      9 C          -9.9791  -17.2471   22.3178 C.ar    1  UNL1        0.0133
     10 C          -8.4897  -17.1983   22.4889 C.3     1  UNL1        0.1890
     11 C          -6.1698  -18.3602   22.3519 C.3     1  UNL1        0.0725
     12 C          -4.2501  -19.6325   21.1496 C.3     1  UNL1        0.0859
     13 N          -5.2723  -18.5348   21.1629 N.3     1  UNL1       -0.2962
     14 H          -5.8781  -18.6869   20.3565 H       1  UNL1        0.1233
     15 O          -7.8306  -15.9389   22.9680 O.3     1  UNL1       -0.4750
     16 C          -7.4960  -15.7735   24.4209 C.ar    1  UNL1        0.1348
     17 C          -8.5703  -15.9125   25.4585 C.ar    1  UNL1        0.0366
     18 C          -8.2357  -15.7471   26.9112 C.ar    1  UNL1        0.0031
     19 C          -6.8268  -15.4425   27.3264 C.ar    1  UNL1       -0.0001
     20 C          -5.7526  -15.3035   26.2889 C.ar    1  UNL1       -0.0013
     21 C          -6.0872  -15.4689   24.8361 C.ar    1  UNL1        0.0121
     22 C          -5.0129  -15.3298   23.7984 C.3     1  UNL1        0.0342
@<TRIPOS>BOND
     1    12    13    1
     2    13    11    1
     3     1    11    1
     4     1     2    1
     5     2     3    1
     6     3     4    1
     7     4     5   ar
     8     5     6   ar
     9     6     7   ar
    10     7     8   ar
    11     8     9   ar
    12     9    10    1
    13    10    15    1
    14    15    16    1
    15    16    17   ar
    16    17    18   ar
    17    18    19   ar
    18    19    20   ar
    19    20    21   ar
    20    21    22    1
    21    10     1    1
    22    21    16   ar
    23     9     4   ar
    24    13    14    1
@<TRIPOS>MOLECULE
*****
 22 24 0 0 0
SMALL
GASTEIGER

@<TRIPOS>ATOM
      1 C          -6.3086  -16.2660   23.6717 C.3     1  UNL1        0.0604
      2 C          -4.8994  -16.7337   23.8846 C.3     1  UNL1        0.0100
      3 C          -4.3846  -17.9282   23.1375 C.3     1  UNL1        0.0263
      4 C          -5.2790  -18.6550   22.1774 C.ar    1  UNL1       -0.0228
      5 C          -4.7643  -19.8494   21.4302 C.ar    1  UNL1       -0.0045
      6 C          -5.6587  -20.5761   20.4702 C.ar    1  UNL1       -0.0003
      7 C          -7.0679  -20.1084   20.2572 C.ar    1  UNL1       -0.0002
      8 C          -7.5827  -18.9140   21.0043 C.ar    1  UNL1       -0.0011
      9 C          -6.6882  -18.1872   21.9644 C.ar    1  UNL1        0.0133
     10 C          -7.2030  -16.9927   22.7116 C.3     1  UNL1        0.1890
     11 C          -6.8234  -15.0715   24.4188 C.3     1  UNL1        0.0725
     12 C          -6.5157  -15.3439   26.9842 C.3     1  UNL1        0.0859
     13 N          -6.1687  -14.6494   25.7008 N.3     1  UNL1       -0.2962
     14 H          -5.1634  -14.7602   25.5684 H       1  UNL1        0.1233
     15 O          -8.6122  -16.5250   22.4986 O.3     1  UNL1       -0.4750
     16 C          -9.7519  -17.2629   23.1365 C.ar    1  UNL1        0.1348
     17 C          -9.4927  -18.2016   24.2774 C.ar    1  UNL1        0.0366
     18 C         -10.6323  -18.9394   24.9152 C.ar    1  UNL1        0.0031
     19 C         -12.0311  -18.7386   24.4122 C.ar    1  UNL1       -0.0001
     20 C         -12.2902  -17.7998   23.2713 C.ar    1  UNL1       -0.0013
     21 C         -11.1507  -17.0620   22.6335 C.ar    1  UNL1        0.0121
     22 C         -11.4098  -16.1232   21.4926 C.3     1  UNL1        0.0342
@<TRIPOS>BOND
     1    12    13    1
     2    13    11    1
     3     1    11    1
     4     1     2    1
     5     2     3    1
     6     3     4    1
     7     4     5   ar
     8     5     6   ar
     9     6     7   ar
    10     7     8   ar
    11     8     9   ar
    12     9    10    1
    13    10    15    1
    14    15    16    1
    15    16    17   ar
    16    17    18   ar
    17    18    19   ar
    18    19    20   ar
    19    20    21   ar
    20    21    22    1
    21    10     1    1
    22    21    16   ar
    23     9     4   ar
    24    13    14    1
@<TRIPOS>MOLECULE
*****
 22 24 0 0 0
SMALL
GASTEIGER

@<TRIPOS>ATOM
      1 C          -7.1692  -18.8120   21.2584 C.3     1  UNL1        0.0604
      2 C          -5.7594  -19.2202   21.5681 C.3     1  UNL1        0.0100
      3 C          -4.9612  -18.4522   22.5795 C.3     1  UNL1        0.0263
      4 C          -5.5728  -17.2759   23.2813 C.ar    1  UNL1       -0.0228
      5 C          -4.7746  -16.5079   24.2927 C.ar    1  UNL1       -0.0045
      6 C          -5.3861  -15.3317   24.9944 C.ar    1  UNL1       -0.0003
      7 C          -6.7959  -14.9235   24.6847 C.ar    1  UNL1       -0.0002
      8 C          -7.5941  -15.6915   23.6733 C.ar    1  UNL1       -0.0011
      9 C          -6.9825  -16.8677   22.9716 C.ar    1  UNL1        0.0133
     10 C          -7.7807  -17.6358   21.9601 C.3     1  UNL1        0.1890
     11 C          -7.9674  -19.5801   20.2469 C.3     1  UNL1        0.0725
     12 C         -10.3696  -19.4043   19.2730 C.3     1  UNL1        0.0859
     13 N          -8.9727  -18.8704   19.3891 N.3     1  UNL1       -0.2962
     14 H          -9.0499  -17.9199   19.7510 H       1  UNL1        0.1233
     15 O          -9.1905  -17.2276   21.6504 O.3     1  UNL1       -0.4750
     16 C         -10.3145  -17.6840   22.5327 C.ar    1  UNL1        0.1348
     17 C         -10.0323  -18.5731   23.7073 C.ar    1  UNL1        0.0366
     18 C         -11.1563  -19.0295   24.5895 C.ar    1  UNL1        0.0031
     19 C         -12.5624  -18.5968   24.2971 C.ar    1  UNL1       -0.0001
     20 C         -12.8446  -17.7077   23.1225 C.ar    1  UNL1       -0.0013
     21 C         -11.7207  -17.2513   22.2403 C.ar    1  UNL1        0.0121
     22 C         -12.0028  -16.3621   21.0656 C.3     1  UNL1        0.0342
@<TRIPOS>BOND
     1    12    13    1
     2    13    11    1
     3     1    11    1
     4     1     2    1
     5     2     3    1
     6     3     4    1
     7     4     5   ar
     8     5     6   ar
     9     6     7   ar
    10     7     8   ar
    11     8     9   ar
    12     9    10    1
    13    10    15    1
    14    15    16    1
    15    16    17   ar
    16    17    18   ar
    17    18    19   ar
    18    19    20   ar
    19    20    21   ar
    20    21    22    1
    21    10     1    1
    22    21    16   ar
    23     9     4   ar
    24    13    14    1
@<TRIPOS>MOLECULE
*****
 22 24 0 0 0
SMALL
GASTEIGER

@<TRIPOS>ATOM
      1 C         -10.5055  -18.2145   20.6506 C.3     1  UNL1        0.0604
      2 C         -10.3559  -19.3532   19.6858 C.3     1  UNL1        0.0100
      3 C          -9.0385  -20.0586   19.5566 C.3     1  UNL1        0.0263
      4 C          -7.8705  -19.6253   20.3922 C.ar    1  UNL1       -0.0228
      5 C          -6.5531  -20.3307   20.2630 C.ar    1  UNL1       -0.0045
      6 C          -5.3853  -19.8973   21.0986 C.ar    1  UNL1       -0.0003
      7 C          -5.5348  -18.7585   22.0634 C.ar    1  UNL1       -0.0002
      8 C          -6.8523  -18.0531   22.1926 C.ar    1  UNL1       -0.0011
      9 C          -8.0201  -18.4865   21.3570 C.ar    1  UNL1        0.0133
     10 C          -9.3376  -17.7811   21.4862 C.3     1  UNL1        0.1890
     11 C         -11.8230  -17.5091   20.7797 C.3     1  UNL1        0.0725
     12 C         -11.5118  -15.5314   19.1238 C.3     1  UNL1        0.0859
     13 N         -11.9228  -16.0443   20.4721 N.3     1  UNL1       -0.2962
     14 H         -12.9001  -15.7822   20.6015 H       1  UNL1        0.1233
     15 O          -9.4872  -16.6423   22.4510 O.3     1  UNL1       -0.4750
     16 C          -9.2980  -16.8748   23.9208 C.ar    1  UNL1        0.1348
     17 C          -9.9573  -18.0465   24.5858 C.ar    1  UNL1        0.0366
     18 C          -9.7681  -18.2790   26.0555 C.ar    1  UNL1        0.0031
     19 C          -8.9195  -17.3397   26.8602 C.ar    1  UNL1       -0.0001
     20 C          -8.2601  -16.1679   26.1952 C.ar    1  UNL1       -0.0013
     21 C          -8.4494  -15.9355   24.7255 C.ar    1  UNL1        0.0121
     22 C          -7.7900  -14.7637   24.0604 C.3     1  UNL1        0.0342
@<TRIPOS>BOND
     1    12    13    1
     2    13    11    1
     3     1    11    1
     4     1     2    1
     5     2     3    1
     6     3     4    1
     7     4     5   ar
     8     5     6   ar
     9     6     7   ar
    10     7     8   ar
    11     8     9   ar
    12     9    10    1
    13    10    15    1
    14    15    16    1
    15    16    17   ar
    16    17    18   ar
    17    18    19   ar
    18    19    20   ar
    19    20    21   ar
    20    21    22    1
    21    10     1    1
    22    21    16   ar
    23     9     4   ar
    24    13    14    1
@<TRIPOS>MOLECULE
*****
 22 24 0 0 0
SMALL
GASTEIGER

@<TRIPOS>ATOM
      1 C          -7.0207  -16.4630   23.9159 C.3     1  UNL1        0.0604
      2 C          -5.5514  -16.1645   23.9587 C.3     1  UNL1        0.0100
      3 C          -4.5878  -17.0303   23.2025 C.3     1  UNL1        0.0263
      4 C          -5.0936  -18.1948   22.4035 C.ar    1  UNL1       -0.0228
      5 C          -4.1300  -19.0606   21.6473 C.ar    1  UNL1       -0.0045
      6 C          -4.6358  -20.2250   20.8484 C.ar    1  UNL1       -0.0003
      7 C          -6.1052  -20.5235   20.8056 C.ar    1  UNL1       -0.0002
      8 C          -7.0688  -19.6577   21.5617 C.ar    1  UNL1       -0.0011
      9 C          -6.5630  -18.4933   22.3607 C.ar    1  UNL1        0.0133
     10 C          -7.5265  -17.6274   23.1169 C.3     1  UNL1        0.1890
     11 C          -7.9843  -15.5971   24.6721 C.3     1  UNL1        0.0725
     12 C          -7.4555  -15.5413   27.2152 C.3     1  UNL1        0.0859
     13 N          -8.3548  -15.9431   26.0839 N.3     1  UNL1       -0.2962
     14 H          -9.2630  -15.5149   26.2633 H       1  UNL1        0.1233
     15 O          -8.9959  -17.9259   23.0741 O.3     1  UNL1       -0.4750
     16 C          -9.8315  -17.4184   21.9365 C.ar    1  UNL1        0.1348
     17 C          -9.8065  -15.9618   21.5790 C.ar    1  UNL1        0.0366
     18 C         -10.6421  -15.4544   20.4414 C.ar    1  UNL1        0.0031
     19 C         -11.5027  -16.4034   19.6612 C.ar    1  UNL1       -0.0001
     20 C         -11.5277  -17.8600   20.0187 C.ar    1  UNL1       -0.0013
     21 C         -10.6921  -18.3674   21.1563 C.ar    1  UNL1        0.0121
     22 C         -10.7171  -19.8241   21.5138 C.3     1  UNL1        0.0342
@<TRIPOS>BOND
     1    12    13    1
     2    13    11    1
     3     1    11    1
     4     1     2    1
     5     2     3    1
     6     3     4    1
     7     4     5   ar
     8     5     6   ar
     9     6     7   ar
    10     7     8   ar
    11     8     9   ar
    12     9    10    1
    13    10    15    1
    14    15    16    1
    15    16    17   ar
    16    17    18   ar
    17    18    19   ar
    18    19    20   ar
    19    20    21   ar
    20    21    22    1
    21    10     1    1
    22    21    16   ar
    23     9     4   ar
    24    13    14    1
@<TRIPOS>MOLECULE
*****
 22 24 0 0 0
SMALL
GASTEIGER

@<TRIPOS>ATOM
      1 C          -7.6519  -16.3161   23.9692 C.3     1  UNL1        0.0604
      2 C          -8.4186  -16.2555   25.2571 C.3     1  UNL1        0.0100
      3 C          -9.5526  -17.2067   25.5003 C.3     1  UNL1        0.0263
      4 C          -9.9200  -18.2186   24.4557 C.ar    1  UNL1       -0.0228
      5 C         -11.0540  -19.1698   24.6989 C.ar    1  UNL1       -0.0045
      6 C         -11.4214  -20.1815   23.6542 C.ar    1  UNL1       -0.0003
      7 C         -10.6547  -20.2421   22.3664 C.ar    1  UNL1       -0.0002
      8 C          -9.5207  -19.2909   22.1232 C.ar    1  UNL1       -0.0011
      9 C          -9.1534  -18.2792   23.1678 C.ar    1  UNL1        0.0133
     10 C          -8.0193  -17.3279   22.9246 C.3     1  UNL1        0.1890
     11 C          -6.5179  -15.3649   23.7260 C.3     1  UNL1        0.0725
     12 C          -5.1818  -15.2504   25.9513 C.3     1  UNL1        0.0859
     13 N          -5.9530  -14.5651   24.8624 N.3     1  UNL1       -0.2962
     14 H          -5.3290  -13.8704   24.4520 H       1  UNL1        0.1233
     15 O          -7.2527  -17.3885   21.6367 O.3     1  UNL1       -0.4750
     16 C          -6.1315  -18.3721   21.4769 C.ar    1  UNL1        0.1348
     17 C          -4.9618  -18.3351   22.4152 C.ar    1  UNL1        0.0366
     18 C          -3.8407  -19.3187   22.2553 C.ar    1  UNL1        0.0031
     19 C          -3.8893  -20.3393   21.1571 C.ar    1  UNL1       -0.0001
     20 C          -5.0589  -20.3763   20.2188 C.ar    1  UNL1       -0.0013
     21 C          -6.1800  -19.3927   20.3787 C.ar    1  UNL1        0.0121
     22 C          -7.3498  -19.4296   19.4403 C.3     1  UNL1        0.0342
@<TRIPOS>BOND
     1    12    13    1
     2    13    11    1
     3     1    11    1
     4     1     2    1
     5     2     3    1
     6     3     4    1
     7     4     5   ar
     8     5     6   ar
     9     6     7   ar
    10     7     8   ar
    11     8     9   ar
    12     9    10    1
    13    10    15    1
    14    15    16    1
    15    16    17   ar
    16    17    18   ar
    17    18    19   ar
    18    19    20   ar
    19    20    21   ar
    20    21    22    1
    21    10     1    1
    22    21    16   ar
    23     9     4   ar
    24    13    14    1
@<TRIPOS>MOLECULE
*****
 22 24 0 0 0
SMALL
GASTEIGER

@<TRIPOS>ATOM
      1 C          -4.8111  -19.1434   21.8639 C.3     1  UNL1        0.0604
      2 C          -3.6560  -18.7229   22.7234 C.3     1  UNL1        0.0100
      3 C          -3.8087  -17.5739   23.6754 C.3     1  UNL1        0.0263
      4 C          -5.1167  -16.8452   23.7679 C.ar    1  UNL1       -0.0228
      5 C          -5.2694  -15.6962   24.7199 C.ar    1  UNL1       -0.0045
      6 C          -6.5773  -14.9676   24.8124 C.ar    1  UNL1       -0.0003
      7 C          -7.7324  -15.3881   23.9528 C.ar    1  UNL1       -0.0002
      8 C          -7.5797  -16.5371   23.0008 C.ar    1  UNL1       -0.0011
      9 C          -6.2718  -17.2657   22.9084 C.ar    1  UNL1        0.0133
     10 C          -6.1190  -18.4148   21.9563 C.3     1  UNL1        0.1890
     11 C          -4.6584  -20.2925   20.9118 C.3     1  UNL1        0.0725
     12 C          -3.0643  -18.9263   19.3813 C.3     1  UNL1        0.0859
     13 N          -4.0009  -20.0809   19.5803 N.3     1  UNL1       -0.2962
     14 H          -3.4714  -20.9282   19.3754 H       1  UNL1        0.1233
     15 O          -7.2742  -18.8353   21.0968 O.3     1  UNL1       -0.4750
     16 C          -8.5293  -19.3580   21.7304 C.ar    1  UNL1        0.1348
     17 C          -8.4977  -19.8832   23.1351 C.ar    1  UNL1        0.0366
     18 C          -9.7528  -20.4059   23.7687 C.ar    1  UNL1        0.0031
     19 C         -11.0394  -20.4035   22.9976 C.ar    1  UNL1       -0.0001
     20 C         -11.0710  -19.8784   21.5929 C.ar    1  UNL1       -0.0013
     21 C          -9.8159  -19.3556   20.9594 C.ar    1  UNL1        0.0121
     22 C          -9.8474  -18.8304   19.5546 C.3     1  UNL1        0.0342
@<TRIPOS>BOND
     1    12    13    1
     2    13    11    1
     3     1    11    1
     4     1     2    1
     5     2     3    1
     6     3     4    1
     7     4     5   ar
     8     5     6   ar
     9     6     7   ar
    10     7     8   ar
    11     8     9   ar
    12     9    10    1
    13    10    15    1
    14    15    16    1
    15    16    17   ar
    16    17    18   ar
    17    18    19   ar
    18    19    20   ar
    19    20    21   ar
    20    21    22    1
    21    10     1    1
    22    21    16   ar
    23     9     4   ar
    24    13    14    1
@<TRIPOS>MOLECULE
*****
 22 24 0 0 0
SMALL
GASTEIGER

@<TRIPOS>ATOM
      1 C          -9.3860  -18.0074   24.8084 C.3     1  UNL1        0.0604
      2 C         -10.5481  -18.9361   25.0011 C.3     1  UNL1        0.0100
      3 C         -11.1663  -19.6195   23.8176 C.3     1  UNL1        0.0263
      4 C         -10.6224  -19.3743   22.4413 C.ar    1  UNL1       -0.0228
      5 C         -11.2407  -20.0577   21.2578 C.ar    1  UNL1       -0.0045
      6 C         -10.6968  -19.8125   19.8816 C.ar    1  UNL1       -0.0003
      7 C          -9.5347  -18.8838   19.6888 C.ar    1  UNL1       -0.0002
      8 C          -8.9165  -18.2004   20.8723 C.ar    1  UNL1       -0.0011
      9 C          -9.4604  -18.4456   22.2486 C.ar    1  UNL1        0.0133
     10 C          -8.8422  -17.7622   23.4321 C.3     1  UNL1        0.1890
     11 C          -8.7678  -17.3240   25.9919 C.3     1  UNL1        0.0725
     12 C          -8.0589  -15.1373   27.2027 C.3     1  UNL1        0.0859
     13 N          -8.5504  -15.8400   25.9720 N.3     1  UNL1       -0.2962
     14 H          -7.8714  -15.6517   25.2344 H       1  UNL1        0.1233
     15 O          -7.6801  -16.8335   23.2394 O.3     1  UNL1       -0.4750
     16 C          -6.2933  -17.3871   23.0961 C.ar    1  UNL1        0.1348
     17 C          -6.0726  -18.6759   22.3611 C.ar    1  UNL1        0.0366
     18 C          -4.6859  -19.2295   22.2177 C.ar    1  UNL1        0.0031
     19 C          -3.5199  -18.4943   22.8094 C.ar    1  UNL1       -0.0001
     20 C          -3.7407  -17.2055   23.5444 C.ar    1  UNL1       -0.0013
     21 C          -5.1274  -16.6519   23.6877 C.ar    1  UNL1        0.0121
     22 C          -5.3482  -15.3631   24.4227 C.3     1  UNL1        0.0342
@<TRIPOS>BOND
     1    12    13    1
     2    13    11    1
     3     1    11    1
     4     1     2    1
     5     2     3    1
     6     3     4    1
     7     4     5   ar
     8     5     6   ar
     9     6     7   ar
    10     7     8   ar
    11     8     9   ar
    12     9    10    1
    13    10    15    1
    14    15    16    1
    15    16    17   ar
    16    17    18   ar
    17    18    19   ar
    18    19    20   ar
    19    20    21   ar
    20    21    22    1
    21    10     1    1
    22    21    16   ar
    23     9     4   ar
    24    13    14    1
@<TRIPOS>MOLECULE
*****
 22 24 0 0 0
SMALL
GASTEIGER

@<TRIPOS>ATOM
      1 C         -14.2930   -4.7591   19.9752 C.3     1  UNL1        0.0604
      2 C         -15.7736   -4.5467   20.0872 C.3     1  UNL1        0.0100
      3 C         -16.7213   -5.6195   19.6388 C.3     1  UNL1        0.0263
      4 C         -16.1883   -6.9048   19.0784 C.ar    1  UNL1       -0.0228
      5 C         -17.1359   -7.9776   18.6301 C.ar    1  UNL1       -0.0045
      6 C         -16.6029   -9.2628   18.0697 C.ar    1  UNL1       -0.0003
      7 C         -15.1222   -9.4752   17.9577 C.ar    1  UNL1       -0.0002
      8 C         -14.1746   -8.4025   18.4061 C.ar    1  UNL1       -0.0011
      9 C         -14.7076   -7.1172   18.9664 C.ar    1  UNL1        0.0133
     10 C         -13.7600   -6.0444   19.4148 C.3     1  UNL1        0.1890
     11 C         -13.3453   -3.6863   20.4236 C.3     1  UNL1        0.0725
     12 C         -11.8757   -1.9847   19.1218 C.3     1  UNL1        0.0859
     13 N         -13.2180   -2.4190   19.6312 N.3     1  UNL1       -0.2962
     14 H         -13.8238   -2.5189   18.8167 H       1  UNL1        0.1233
     15 O         -12.2793   -6.2568   19.3028 O.3     1  UNL1       -0.4750
     16 C         -11.5036   -5.5728   18.2163 C.ar    1  UNL1        0.1348
     17 C         -12.2263   -4.9251   17.0726 C.ar    1  UNL1        0.0366
     18 C         -11.4505   -4.2411   15.9862 C.ar    1  UNL1        0.0031
     19 C          -9.9521   -4.2048   16.0435 C.ar    1  UNL1       -0.0001
     20 C          -9.2293   -4.8525   17.1872 C.ar    1  UNL1       -0.0013
     21 C         -10.0051   -5.5365   18.2736 C.ar    1  UNL1        0.0121
     22 C          -9.2824   -6.1842   19.4174 C.3     1  UNL1        0.0342
@<TRIPOS>BOND
     1    12    13    1
     2    13    11    1
     3     1    11    1
     4     1     2    1
     5     2     3    1
     6     3     4    1
     7     4     5   ar
     8     5     6   ar
     9     6     7   ar
    10     7     8   ar
    11     8     9   ar
    12     9    10    1
    13    10    15    1
    14    15    16    1
    15    16    17   ar
    16    17    18   ar
    17    18    19   ar
    18    19    20   ar
    19    20    21   ar
    20    21    22    1
    21    10     1    1
    22    21    16   ar
    23     9     4   ar
    24    13    14    1
