@<TRIPOS>MOLECULE
*****
 19 20 0 0 0
SMALL
GASTEIGER

@<TRIPOS>ATOM
      1 C          -8.6364  -19.3962   22.9279 C.ar    1  UNL1        0.0413
      2 C          -9.1884  -20.4189   23.8762 C.ar    1  UNL1        0.0082
      3 C         -10.5667  -20.2491   24.4433 C.ar    1  UNL1        0.0003
      4 C         -11.3929  -19.0567   24.0621 C.ar    1  UNL1       -0.0038
      5 C         -10.8409  -18.0340   23.1138 C.ar    1  UNL1       -0.0156
      6 C          -9.4626  -18.2037   22.5468 C.ar    1  UNL1        0.0044
      7 C          -5.8798  -19.7356   21.7938 C.1     1  UNL1       -0.0884
      8 C          -7.2581  -19.5659   22.3609 C.1     1  UNL1       -0.0644
      9 C          -5.0666  -20.7108   20.0945 C.3     1  UNL1        0.0130
     10 C          -4.5016  -19.9054   21.2267 C.3     1  UNL1        0.0544
     11 C          -3.9365  -19.0999   22.3590 C.3     1  UNL1        0.0130
     12 C          -3.1233  -20.0751   20.6597 C.3     1  UNL1        0.0130
     13 C         -11.6671  -16.8414   22.7326 C.3     1  UNL1        0.0715
     14 C         -11.5626  -16.2674   21.3508 C.ar    1  UNL1        0.0586
     15 C         -10.3968  -15.5007   20.8004 C.ar    1  UNL1        0.1134
     16 N         -10.7193  -15.1187   19.3861 N.ar    1  UNL1       -0.2229
     17 C         -12.0845  -15.6493   19.0625 C.ar    1  UNL1        0.1748
     18 N         -12.6057  -16.3592   20.2767 N.ar    1  UNL1       -0.3379
     19 H         -13.4790  -16.8069   20.3550 H       1  UNL1        0.1672
@<TRIPOS>BOND
     1     9    10    1
     2    10    11    1
     3    10    12    1
     4    10     7    1
     5     7     8    3
     6     8     1    1
     7     1     2   ar
     8     2     3   ar
     9     3     4   ar
    10     4     5   ar
    11     5    13    1
    12    13    14    1
    13    14    15   ar
    14    15    16   ar
    15    16    17   ar
    16    17    18   ar
    17     5     6   ar
    18     6     1   ar
    19    18    14   ar
    20    18    19    1
@<TRIPOS>MOLECULE
*****
 19 20 0 0 0
SMALL
GASTEIGER

@<TRIPOS>ATOM
      1 C          -8.3878  -19.0037   21.4676 C.ar    1  UNL1        0.0413
      2 C          -8.2803  -19.5106   20.0600 C.ar    1  UNL1        0.0082
      3 C          -6.9317  -19.7778   19.4600 C.ar    1  UNL1        0.0003
      4 C          -5.6907  -19.5379   20.2675 C.ar    1  UNL1       -0.0038
      5 C          -5.7982  -19.0310   21.6751 C.ar    1  UNL1       -0.0156
      6 C          -7.1468  -18.7638   22.2751 C.ar    1  UNL1        0.0044
      7 C         -11.0850  -18.4694   22.6676 C.1     1  UNL1       -0.0884
      8 C          -9.7364  -18.7365   22.0676 C.1     1  UNL1       -0.0644
      9 C         -11.9415  -18.6990   24.5947 C.3     1  UNL1        0.0130
     10 C         -12.4335  -18.2023   23.2676 C.3     1  UNL1        0.0544
     11 C         -12.9256  -17.7056   21.9405 C.3     1  UNL1        0.0130
     12 C         -13.7821  -17.9352   23.8676 C.3     1  UNL1        0.0130
     13 C          -4.5572  -18.7911   22.4828 C.3     1  UNL1        0.0715
     14 C          -3.2630  -18.4753   21.7934 C.ar    1  UNL1        0.0586
     15 C          -2.2086  -19.4671   21.4002 C.ar    1  UNL1        0.1134
     16 N          -1.0899  -18.7171   20.7399 N.ar    1  UNL1       -0.2229
     17 C          -1.4530  -17.2618   20.7248 C.ar    1  UNL1        0.1748
     18 N          -2.7960  -17.1124   21.3759 N.ar    1  UNL1       -0.3379
     19 H          -3.2851  -16.2680   21.5064 H       1  UNL1        0.1672
@<TRIPOS>BOND
     1     9    10    1
     2    10    11    1
     3    10    12    1
     4    10     7    1
     5     7     8    3
     6     8     1    1
     7     1     2   ar
     8     2     3   ar
     9     3     4   ar
    10     4     5   ar
    11     5    13    1
    12    13    14    1
    13    14    15   ar
    14    15    16   ar
    15    16    17   ar
    16    17    18   ar
    17     5     6   ar
    18     6     1   ar
    19    18    14   ar
    20    18    19    1
@<TRIPOS>MOLECULE
*****
 19 20 0 0 0
SMALL
GASTEIGER

@<TRIPOS>ATOM
      1 C          -7.0860  -17.3277   22.8712 C.ar    1  UNL1        0.0413
      2 C          -6.5913  -16.2189   23.7520 C.ar    1  UNL1        0.0082
      3 C          -5.1298  -16.1103   24.0716 C.ar    1  UNL1        0.0003
      4 C          -4.1630  -17.1105   23.5106 C.ar    1  UNL1       -0.0038
      5 C          -4.6577  -18.2193   22.6298 C.ar    1  UNL1       -0.0156
      6 C          -6.1192  -18.3279   22.3102 C.ar    1  UNL1        0.0044
      7 C         -10.0090  -17.5448   22.2319 C.1     1  UNL1       -0.0884
      8 C          -8.5475  -17.4363   22.5516 C.1     1  UNL1       -0.0644
      9 C         -11.2505  -19.0369   21.3759 C.3     1  UNL1        0.0130
     10 C         -11.4706  -17.6534   21.9122 C.3     1  UNL1        0.0544
     11 C         -11.6906  -16.2700   22.4486 C.3     1  UNL1        0.0130
     12 C         -12.9321  -17.7620   21.5926 C.3     1  UNL1        0.0130
     13 C          -3.6909  -19.2196   22.0687 C.3     1  UNL1        0.0715
     14 C          -2.6810  -18.7938   21.0447 C.ar    1  UNL1        0.0586
     15 C          -2.8403  -18.8894   19.5563 C.ar    1  UNL1        0.1134
     16 N          -1.5922  -18.3522   18.9210 N.ar    1  UNL1       -0.2229
     17 C          -0.6614  -17.9246   20.0168 C.ar    1  UNL1        0.1748
     18 N          -1.3343  -18.1975   21.3293 N.ar    1  UNL1       -0.3379
     19 H          -0.9582  -18.0170   22.2211 H       1  UNL1        0.1672
@<TRIPOS>BOND
     1     9    10    1
     2    10    11    1
     3    10    12    1
     4    10     7    1
     5     7     8    3
     6     8     1    1
     7     1     2   ar
     8     2     3   ar
     9     3     4   ar
    10     4     5   ar
    11     5    13    1
    12    13    14    1
    13    14    15   ar
    14    15    16   ar
    15    16    17   ar
    16    17    18   ar
    17     5     6   ar
    18     6     1   ar
    19    18    14   ar
    20    18    19    1
@<TRIPOS>MOLECULE
*****
 19 20 0 0 0
SMALL
GASTEIGER

@<TRIPOS>ATOM
      1 C          -5.4813  -16.2900   24.3913 C.ar    1  UNL1        0.0413
      2 C          -5.1626  -15.7845   25.7671 C.ar    1  UNL1        0.0082
      3 C          -6.2684  -15.3375   26.6768 C.ar    1  UNL1        0.0003
      4 C          -7.6929  -15.3960   26.2106 C.ar    1  UNL1       -0.0038
      5 C          -8.0116  -15.9015   24.8349 C.ar    1  UNL1       -0.0156
      6 C          -6.9058  -16.3485   23.9252 C.ar    1  UNL1        0.0044
      7 C          -3.2698  -17.1839   22.5720 C.1     1  UNL1       -0.0884
      8 C          -4.3756  -16.7370   23.4817 C.1     1  UNL1       -0.0644
      9 C          -1.7727  -16.2008   21.4353 C.3     1  UNL1        0.0130
     10 C          -2.1640  -17.6309   21.6623 C.3     1  UNL1        0.0544
     11 C          -2.5554  -19.0611   21.8894 C.3     1  UNL1        0.0130
     12 C          -1.0583  -18.0779   20.7527 C.3     1  UNL1        0.0130
     13 C          -9.4362  -15.9600   24.3687 C.3     1  UNL1        0.0715
     14 C         -10.0869  -17.2866   24.1104 C.ar    1  UNL1        0.0586
     15 C          -9.9607  -18.5120   24.9662 C.ar    1  UNL1        0.1134
     16 N         -10.7738  -19.6034   24.3357 N.ar    1  UNL1       -0.2229
     17 C         -11.4027  -19.0525   23.0902 C.ar    1  UNL1        0.1748
     18 N         -10.9781  -17.6206   22.9510 N.ar    1  UNL1       -0.3379
     19 H         -11.2386  -17.0077   22.2259 H       1  UNL1        0.1672
@<TRIPOS>BOND
     1     9    10    1
     2    10    11    1
     3    10    12    1
     4    10     7    1
     5     7     8    3
     6     8     1    1
     7     1     2   ar
     8     2     3   ar
     9     3     4   ar
    10     4     5   ar
    11     5    13    1
    12    13    14    1
    13    14    15   ar
    14    15    16   ar
    15    16    17   ar
    16    17    18   ar
    17     5     6   ar
    18     6     1   ar
    19    18    14   ar
    20    18    19    1
@<TRIPOS>MOLECULE
*****
 19 20 0 0 0
SMALL
GASTEIGER

@<TRIPOS>ATOM
      1 C          -7.6032  -19.1881   20.2459 C.ar    1  UNL1        0.0413
      2 C          -8.3182  -19.8516   19.1065 C.ar    1  UNL1        0.0082
      3 C          -9.8160  -19.9330   19.1064 C.ar    1  UNL1        0.0003
      4 C         -10.5987  -19.3508   20.2458 C.ar    1  UNL1       -0.0038
      5 C          -9.8837  -18.6872   21.3853 C.ar    1  UNL1       -0.0156
      6 C          -8.3859  -18.6059   21.3853 C.ar    1  UNL1        0.0044
      7 C          -4.6076  -19.0254   20.2460 C.1     1  UNL1       -0.0884
      8 C          -6.1054  -19.1067   20.2459 C.1     1  UNL1       -0.0644
      9 C          -3.0618  -19.8287   21.4564 C.3     1  UNL1        0.0130
     10 C          -3.1098  -18.9440   20.2460 C.3     1  UNL1        0.0544
     11 C          -3.1578  -18.0593   19.0356 C.3     1  UNL1        0.0130
     12 C          -1.6120  -18.8627   20.2460 C.3     1  UNL1        0.0130
     13 C         -10.6664  -18.1049   22.5248 C.3     1  UNL1        0.0715
     14 C          -9.9597  -17.3532   23.6134 C.ar    1  UNL1        0.0586
     15 C          -9.5437  -17.9100   24.9426 C.ar    1  UNL1        0.1134
     16 N          -8.8717  -16.8135   25.7147 N.ar    1  UNL1       -0.2229
     17 C          -8.8724  -15.5789   24.8627 C.ar    1  UNL1        0.1748
     18 N          -9.5448  -15.9125   23.5640 N.ar    1  UNL1       -0.3379
     19 H          -9.6886  -15.2944   22.8114 H       1  UNL1        0.1672
@<TRIPOS>BOND
     1     9    10    1
     2    10    11    1
     3    10    12    1
     4    10     7    1
     5     7     8    3
     6     8     1    1
     7     1     2   ar
     8     2     3   ar
     9     3     4   ar
    10     4     5   ar
    11     5    13    1
    12    13    14    1
    13    14    15   ar
    14    15    16   ar
    15    16    17   ar
    16    17    18   ar
    17     5     6   ar
    18     6     1   ar
    19    18    14   ar
    20    18    19    1
@<TRIPOS>MOLECULE
*****
 19 20 0 0 0
SMALL
GASTEIGER

@<TRIPOS>ATOM
      1 C          -7.0156  -19.2400   20.2456 C.ar    1  UNL1        0.0413
      2 C          -7.7911  -19.6492   19.0286 C.ar    1  UNL1        0.0082
      3 C          -9.2784  -19.8256   19.1112 C.ar    1  UNL1        0.0003
      4 C          -9.9902  -19.5928   20.4108 C.ar    1  UNL1       -0.0038
      5 C          -9.2148  -19.1836   21.6278 C.ar    1  UNL1       -0.0156
      6 C          -7.7275  -19.0072   21.5452 C.ar    1  UNL1        0.0044
      7 C          -4.0410  -18.8872   20.0805 C.1     1  UNL1       -0.0884
      8 C          -5.5283  -19.0636   20.1631 C.1     1  UNL1       -0.0644
      9 C          -2.7346  -17.6967   18.9076 C.3     1  UNL1        0.0130
     10 C          -2.5537  -18.7108   19.9979 C.3     1  UNL1        0.0544
     11 C          -2.3729  -19.7249   21.0883 C.3     1  UNL1        0.0130
     12 C          -1.0664  -18.5344   19.9154 C.3     1  UNL1        0.0130
     13 C          -9.9267  -18.9508   22.9275 C.3     1  UNL1        0.0715
     14 C         -11.1292  -18.0555   22.9741 C.ar    1  UNL1        0.0586
     15 C         -12.4378  -18.3705   23.6360 C.ar    1  UNL1        0.1134
     16 N         -13.3517  -17.1976   23.4380 N.ar    1  UNL1       -0.2229
     17 C         -12.6078  -16.1576   22.6536 C.ar    1  UNL1        0.1748
     18 N         -11.2342  -16.6879   22.3669 N.ar    1  UNL1       -0.3379
     19 H         -10.5260  -16.2204   21.8678 H       1  UNL1        0.1672
@<TRIPOS>BOND
     1     9    10    1
     2    10    11    1
     3    10    12    1
     4    10     7    1
     5     7     8    3
     6     8     1    1
     7     1     2   ar
     8     2     3   ar
     9     3     4   ar
    10     4     5   ar
    11     5    13    1
    12    13    14    1
    13    14    15   ar
    14    15    16   ar
    15    16    17   ar
    16    17    18   ar
    17     5     6   ar
    18     6     1   ar
    19    18    14   ar
    20    18    19    1
@<TRIPOS>MOLECULE
*****
 19 20 0 0 0
SMALL
GASTEIGER

@<TRIPOS>ATOM
      1 C          -7.0940  -18.0264   22.4400 C.ar    1  UNL1        0.0413
      2 C          -5.8984  -18.7725   21.9265 C.ar    1  UNL1        0.0082
      3 C          -6.0125  -19.6110   20.6880 C.ar    1  UNL1        0.0003
      4 C          -7.3224  -19.7033   19.9629 C.ar    1  UNL1       -0.0038
      5 C          -8.5180  -18.9572   20.4764 C.ar    1  UNL1       -0.0156
      6 C          -8.4038  -18.1187   21.7149 C.ar    1  UNL1        0.0044
      7 C          -6.8656  -16.3494   24.9170 C.1     1  UNL1       -0.0884
      8 C          -6.9798  -17.1879   23.6785 C.1     1  UNL1       -0.0644
      9 C          -5.3164  -15.2224   25.8279 C.3     1  UNL1        0.0130
     10 C          -6.7515  -15.5109   26.1555 C.3     1  UNL1        0.0544
     11 C          -8.1865  -15.7994   26.4831 C.3     1  UNL1        0.0130
     12 C          -6.6373  -14.6725   27.3940 C.3     1  UNL1        0.0130
     13 C          -9.8279  -19.0495   19.7513 C.3     1  UNL1        0.0715
     14 C         -11.0097  -18.2622   20.2344 C.ar    1  UNL1        0.0586
     15 C         -11.4473  -16.9231   19.7192 C.ar    1  UNL1        0.1134
     16 N         -12.6695  -16.5090   20.4840 N.ar    1  UNL1       -0.2229
     17 C         -12.9872  -17.5921   21.4719 C.ar    1  UNL1        0.1748
     18 N         -11.9614  -18.6756   21.3177 N.ar    1  UNL1       -0.3379
     19 H         -11.9200  -19.5114   21.8364 H       1  UNL1        0.1672
@<TRIPOS>BOND
     1     9    10    1
     2    10    11    1
     3    10    12    1
     4    10     7    1
     5     7     8    3
     6     8     1    1
     7     1     2   ar
     8     2     3   ar
     9     3     4   ar
    10     4     5   ar
    11     5    13    1
    12    13    14    1
    13    14    15   ar
    14    15    16   ar
    15    16    17   ar
    16    17    18   ar
    17     5     6   ar
    18     6     1   ar
    19    18    14   ar
    20    18    19    1
@<TRIPOS>MOLECULE
*****
 19 20 0 0 0
SMALL
GASTEIGER

@<TRIPOS>ATOM
      1 C         -12.8986   -6.8432   18.5288 C.ar    1  UNL1        0.0413
      2 C         -12.1286   -7.8286   17.7005 C.ar    1  UNL1        0.0082
      3 C         -10.7148   -7.5281   17.2994 C.ar    1  UNL1        0.0003
      4 C         -10.0711   -6.2424   17.7264 C.ar    1  UNL1       -0.0038
      5 C         -10.8411   -5.2571   18.5547 C.ar    1  UNL1       -0.0156
      6 C         -12.2549   -5.5575   18.9559 C.ar    1  UNL1        0.0044
      7 C         -15.7262   -7.4441   19.3312 C.1     1  UNL1       -0.0884
      8 C         -14.3124   -7.1436   18.9300 C.1     1  UNL1       -0.0644
      9 C         -16.7371   -9.1398   20.1074 C.3     1  UNL1        0.0130
     10 C         -17.1400   -7.7445   19.7323 C.3     1  UNL1        0.0544
     11 C         -17.5429   -6.3491   19.3573 C.3     1  UNL1        0.0130
     12 C         -18.5538   -8.0449   20.1335 C.3     1  UNL1        0.0130
     13 C         -10.1974   -3.9712   18.9818 C.3     1  UNL1        0.0715
     14 C         -10.5887   -2.6816   18.3232 C.ar    1  UNL1        0.0586
     15 C         -11.5911   -1.6945   18.8436 C.ar    1  UNL1        0.1134
     16 N         -11.6683   -0.5555   17.8706 N.ar    1  UNL1       -0.2229
     17 C         -10.7135   -0.8387   16.7488 C.ar    1  UNL1        0.1748
     18 N         -10.0464   -2.1527   17.0286 N.ar    1  UNL1       -0.3379
     19 H          -9.3711   -2.5910   16.4619 H       1  UNL1        0.1672
@<TRIPOS>BOND
     1     9    10    1
     2    10    11    1
     3    10    12    1
     4    10     7    1
     5     7     8    3
     6     8     1    1
     7     1     2   ar
     8     2     3   ar
     9     3     4   ar
    10     4     5   ar
    11     5    13    1
    12    13    14    1
    13    14    15   ar
    14    15    16   ar
    15    16    17   ar
    16    17    18   ar
    17     5     6   ar
    18     6     1   ar
    19    18    14   ar
    20    18    19    1
@<TRIPOS>MOLECULE
*****
 19 20 0 0 0
SMALL
GASTEIGER

@<TRIPOS>ATOM
      1 C         -14.8172   -4.9821   19.6814 C.ar    1  UNL1        0.0413
      2 C         -15.1535   -3.5668   20.0471 C.ar    1  UNL1        0.0082
      3 C         -14.0855   -2.5137   20.0298 C.ar    1  UNL1        0.0003
      4 C         -12.6812   -2.8759   19.6468 C.ar    1  UNL1       -0.0038
      5 C         -12.3449   -4.2912   19.2812 C.ar    1  UNL1       -0.0156
      6 C         -13.4129   -5.3443   19.2984 C.ar    1  UNL1        0.0044
      7 C         -16.9532   -7.0884   19.7160 C.1     1  UNL1       -0.0884
      8 C         -15.8852   -6.0352   19.6987 C.1     1  UNL1       -0.0644
      9 C         -16.9702   -9.2055   19.8483 C.3     1  UNL1        0.0130
     10 C         -18.0212   -8.1415   19.7333 C.3     1  UNL1        0.0544
     11 C         -19.0722   -7.0775   19.6182 C.3     1  UNL1        0.0130
     12 C         -19.0892   -9.1946   19.7506 C.3     1  UNL1        0.0130
     13 C         -10.9405   -4.6534   18.8981 C.3     1  UNL1        0.0715
     14 C         -10.6301   -6.0362   18.4068 C.ar    1  UNL1        0.0586
     15 C          -9.6624   -6.9972   19.0313 C.ar    1  UNL1        0.1134
     16 N          -9.6671   -8.2558   18.2152 N.ar    1  UNL1       -0.2229
     17 C         -10.6378   -8.0726   17.0863 C.ar    1  UNL1        0.1748
     18 N         -11.2329   -6.7009   17.2048 N.ar    1  UNL1       -0.3379
     19 H         -11.9018   -6.3061   16.5998 H       1  UNL1        0.1672
@<TRIPOS>BOND
     1     9    10    1
     2    10    11    1
     3    10    12    1
     4    10     7    1
     5     7     8    3
     6     8     1    1
     7     1     2   ar
     8     2     3   ar
     9     3     4   ar
    10     4     5   ar
    11     5    13    1
    12    13    14    1
    13    14    15   ar
    14    15    16   ar
    15    16    17   ar
    16    17    18   ar
    17     5     6   ar
    18     6     1   ar
    19    18    14   ar
    20    18    19    1
