@<TRIPOS>MOLECULE
*****
 44 48 0 0 0
SMALL
GASTEIGER

@<TRIPOS>ATOM
      1 N           8.3336   -4.8456   28.3255 N.am    1  UNL1       -0.2733
      2 C           7.8901   -4.9879   29.7514 C.2     1  UNL1        0.2462
      3 O           8.3510   -6.1594   30.5669 O.2     1  UNL1       -0.2730
      4 C           6.9857   -3.9586   30.3618 C.3     1  UNL1        0.1759
      5 N           6.5247   -2.7870   29.5464 N.am    1  UNL1       -0.2951
      6 C           6.9682   -2.6447   28.1206 C.2     1  UNL1        0.2390
      7 O           6.5073   -1.4731   27.3051 O.2     1  UNL1       -0.2734
      8 C           7.8727   -3.6740   27.5101 C.3     1  UNL1        0.1314
      9 C           8.7771   -4.7032   26.8997 C.3     1  UNL1        0.0445
     10 C           9.2206   -4.5609   25.4739 C.3     1  UNL1        0.0745
     11 N           8.7597   -3.3893   24.6585 N.3     1  UNL1       -0.2688
     12 C           7.8552   -2.3600   25.2689 C.3     1  UNL1        0.0745
     13 C           7.4118   -2.5024   26.6947 C.3     1  UNL1        0.0445
     14 H           5.9311   -2.1115   29.9470 H       1  UNL1        0.1499
     15 C           6.5421   -4.1009   31.7877 C.3     1  UNL1        0.1372
     16 O           6.4742   -5.4594   32.4200 O.3     1  UNL1       -0.3823
     17 H           6.7479   -6.1303   31.7750 H       1  UNL1        0.2104
     18 C           6.1665   -2.8847   32.5813 C.3     1  UNL1        0.0291
     19 C           7.2042   -1.8516   32.9067 C.3     1  UNL1        0.0025
     20 C           6.8286   -0.6354   33.7003 C.3     1  UNL1        0.0001
     21 C           5.4153   -0.4523   34.1684 C.3     1  UNL1        0.0000
     22 C           4.3776   -1.4854   33.8429 C.3     1  UNL1        0.0001
     23 C           4.7533   -2.7016   33.0493 C.3     1  UNL1        0.0025
     24 C           9.2380   -5.8748   27.7152 C.3     1  UNL1        0.0938
     25 C           8.9477   -7.3344   27.9030 C.3     1  UNL1        0.0215
     26 C           7.2509   -7.9332   26.0289 C.3     1  UNL1        0.0001
     27 C           8.5558   -8.1786   26.7267 C.3     1  UNL1        0.0018
     28 C           9.2032   -3.2470   23.2326 C.3     1  UNL1        0.0992
     29 C           8.1841   -3.1334   22.1379 C.ar    1  UNL1       -0.0059
     30 C           6.9452   -3.9783   22.1758 C.ar    1  UNL1        0.0002
     31 C           5.9261   -3.8646   21.0811 C.ar    1  UNL1        0.0372
     32 C           6.1457   -2.9060   19.9485 C.ar    1  UNL1        0.1453
     33 C           7.3845   -2.0611   19.9105 C.ar    1  UNL1        0.0372
     34 C           8.4037   -2.1747   21.0052 C.ar    1  UNL1        0.0002
     35 O           5.1266   -2.7924   18.8538 O.3     1  UNL1       -0.4535
     36 C           3.9930   -1.8185   18.9825 C.ar    1  UNL1        0.1453
     37 C           3.8377   -0.7118   17.9820 C.ar    1  UNL1        0.0375
     38 C           2.7042    0.2621   18.1107 C.ar    1  UNL1        0.0043
     39 C           1.7259    0.1294   19.2400 C.ar    1  UNL1        0.0142
     40 C           1.8812   -0.9773   20.2406 C.ar    1  UNL1        0.0043
     41 C           3.0147   -1.9513   20.1119 C.ar    1  UNL1        0.0375
     42 C           0.5924    1.1033   19.3687 C.2     1  UNL1        0.0729
     43 O          -0.3491    1.0088   20.5327 O.co2   1  UNL1       -0.5446
     44 O           0.4003    2.1716   18.3336 O.co2   1  UNL1       -0.5446
@<TRIPOS>UNITY_ATOM_ATTR
43 1
charge -1
@<TRIPOS>BOND
     1    26    27    1
     2    27    25    1
     3    25    24    1
     4    24     1    1
     5     1     2   am
     6     2     3    2
     7     2     4    1
     8     4    15    1
     9    15    16    1
    10    15    18    1
    11    18    19    1
    12    19    20    1
    13    20    21    1
    14    21    22    1
    15    22    23    1
    16     4     5    1
    17     5     6   am
    18     6     7    2
    19     6     8    1
    20     8     9    1
    21     9    10    1
    22    10    11    1
    23    11    28    1
    24    28    29    1
    25    29    30   ar
    26    30    31   ar
    27    31    32   ar
    28    32    35    1
    29    35    36    1
    30    36    37   ar
    31    37    38   ar
    32    38    39   ar
    33    39    42    1
    34    42    43   ar
    35    42    44   ar
    36    39    40   ar
    37    40    41   ar
    38    32    33   ar
    39    33    34   ar
    40    11    12    1
    41    12    13    1
    42     8     1    1
    43    34    29   ar
    44    23    18    1
    45    13     8    1
    46    41    36   ar
    47    16    17    1
    48     5    14    1
@<TRIPOS>MOLECULE
*****
 44 48 0 0 0
SMALL
GASTEIGER

@<TRIPOS>ATOM
      1 N           5.2554   -2.9307   20.5342 N.am    1  UNL1       -0.2733
      2 C           4.3162   -2.1936   19.6259 C.2     1  UNL1        0.2462
      3 O           2.8555   -2.1188   19.9585 O.2     1  UNL1       -0.2730
      4 C           4.8379   -1.5315   18.3852 C.3     1  UNL1        0.1759
      5 N           6.2986   -1.6063   18.0527 N.am    1  UNL1       -0.2951
      6 C           7.2378   -2.3433   18.9608 C.2     1  UNL1        0.2390
      7 O           8.6985   -2.4181   18.6283 O.2     1  UNL1       -0.2734
      8 C           6.7162   -3.0055   20.2016 C.3     1  UNL1        0.1314
      9 C           6.1945   -3.6677   21.4423 C.3     1  UNL1        0.0445
     10 C           7.1337   -4.4047   22.3505 C.3     1  UNL1        0.0745
     11 N           8.5944   -4.4795   22.0179 N.3     1  UNL1       -0.2688
     12 C           9.1161   -3.8173   20.7772 C.3     1  UNL1        0.0745
     13 C           8.1769   -3.0803   19.8691 C.3     1  UNL1        0.0445
     14 H           6.6410   -1.1716   17.2383 H       1  UNL1        0.1499
     15 C           3.8987   -0.7944   17.4770 C.3     1  UNL1        0.1372
     16 O           3.6044   -1.3307   16.1074 O.3     1  UNL1       -0.3823
     17 H           4.0985   -2.1540   15.9695 H       1  UNL1        0.2104
     18 C           3.2540    0.4789   17.9383 C.3     1  UNL1        0.0291
     19 C           1.7657    0.5454   18.1135 C.3     1  UNL1        0.0025
     20 C           1.1209    1.8187   18.5749 C.3     1  UNL1        0.0001
     21 C           1.9644    3.0257   18.8610 C.3     1  UNL1        0.0000
     22 C           3.4527    2.9592   18.6858 C.3     1  UNL1        0.0001
     23 C           4.0974    1.6858   18.2245 C.3     1  UNL1        0.0025
     24 C           4.7338   -3.5929   21.7749 C.3     1  UNL1        0.0938
     25 C           4.2681   -2.7585   22.9311 C.3     1  UNL1        0.0215
     26 C           3.3076   -0.3451   22.8790 C.3     1  UNL1        0.0001
     27 C           4.4844   -1.2743   22.9202 C.3     1  UNL1        0.0018
     28 C           9.5336   -5.2166   22.9262 C.3     1  UNL1        0.0992
     29 C           9.0866   -5.6195   24.3001 C.ar    1  UNL1       -0.0059
     30 C           8.3460   -6.9086   24.4999 C.ar    1  UNL1        0.0002
     31 C           7.8990   -7.3116   25.8739 C.ar    1  UNL1        0.0372
     32 C           8.1925   -6.4255   27.0480 C.ar    1  UNL1        0.1453
     33 C           8.9330   -5.1364   26.8482 C.ar    1  UNL1        0.0372
     34 C           9.3800   -4.7334   25.4743 C.ar    1  UNL1        0.0002
     35 O           7.7454   -6.8285   28.4220 O.3     1  UNL1       -0.4535
     36 C           7.3312   -5.7815   29.4131 C.ar    1  UNL1        0.1453
     37 C           6.6545   -4.5285   28.9418 C.ar    1  UNL1        0.0375
     38 C           6.2403   -3.4816   29.9329 C.ar    1  UNL1        0.0043
     39 C           6.5026   -3.6876   31.3953 C.ar    1  UNL1        0.0142
     40 C           7.1793   -4.9406   31.8666 C.ar    1  UNL1        0.0043
     41 C           7.5936   -5.9876   30.8755 C.ar    1  UNL1        0.0375
     42 C           6.0883   -2.6407   32.3864 C.2     1  UNL1        0.0729
     43 O           6.9903   -1.4756   32.6677 O.co2   1  UNL1       -0.5446
     44 O           4.7722   -2.7588   33.0961 O.co2   1  UNL1       -0.5446
@<TRIPOS>UNITY_ATOM_ATTR
43 1
charge -1
@<TRIPOS>BOND
     1    26    27    1
     2    27    25    1
     3    25    24    1
     4    24     1    1
     5     1     2   am
     6     2     3    2
     7     2     4    1
     8     4    15    1
     9    15    16    1
    10    15    18    1
    11    18    19    1
    12    19    20    1
    13    20    21    1
    14    21    22    1
    15    22    23    1
    16     4     5    1
    17     5     6   am
    18     6     7    2
    19     6     8    1
    20     8     9    1
    21     9    10    1
    22    10    11    1
    23    11    28    1
    24    28    29    1
    25    29    30   ar
    26    30    31   ar
    27    31    32   ar
    28    32    35    1
    29    35    36    1
    30    36    37   ar
    31    37    38   ar
    32    38    39   ar
    33    39    42    1
    34    42    43   ar
    35    42    44   ar
    36    39    40   ar
    37    40    41   ar
    38    32    33   ar
    39    33    34   ar
    40    11    12    1
    41    12    13    1
    42     8     1    1
    43    34    29   ar
    44    23    18    1
    45    13     8    1
    46    41    36   ar
    47    16    17    1
    48     5    14    1
@<TRIPOS>MOLECULE
*****
 44 48 0 0 0
SMALL
GASTEIGER

@<TRIPOS>ATOM
      1 N           7.1714   -4.8432   25.3564 N.am    1  UNL1       -0.2733
      2 C           7.2483   -4.6107   23.8765 C.2     1  UNL1        0.2462
      3 O           7.5727   -5.7486   22.9544 O.2     1  UNL1       -0.2730
      4 C           7.0009   -3.2405   23.3186 C.3     1  UNL1        0.1759
      5 N           6.6765   -2.1027   24.2407 N.am    1  UNL1       -0.2951
      6 C           6.5996   -2.3351   25.7205 C.2     1  UNL1        0.2390
      7 O           6.2752   -1.1973   26.6425 O.2     1  UNL1       -0.2734
      8 C           6.8471   -3.7054   26.2784 C.3     1  UNL1        0.1314
      9 C           7.0945   -5.0756   26.8363 C.3     1  UNL1        0.0445
     10 C           7.0176   -5.3080   28.3161 C.3     1  UNL1        0.0745
     11 N           6.6933   -4.1701   29.2381 N.3     1  UNL1       -0.2688
     12 C           6.4458   -2.7999   28.6803 C.3     1  UNL1        0.0745
     13 C           6.5227   -2.5675   27.2004 C.3     1  UNL1        0.0445
     14 H           6.5141   -1.2034   23.8745 H       1  UNL1        0.1499
     15 C           7.0778   -3.0081   21.8387 C.3     1  UNL1        0.1372
     16 O           8.3962   -2.6928   21.1965 O.3     1  UNL1       -0.3823
     17 H           9.0903   -2.6775   21.8739 H       1  UNL1        0.2104
     18 C           5.8363   -3.0910   21.0010 C.3     1  UNL1        0.0291
     19 C           5.6770   -4.2001   20.0038 C.3     1  UNL1        0.0025
     20 C           4.4356   -4.2830   19.1661 C.3     1  UNL1        0.0001
     21 C           3.3532   -3.2567   19.3255 C.3     1  UNL1        0.0000
     22 C           3.5125   -2.1475   20.3227 C.3     1  UNL1        0.0001
     23 C           4.7541   -2.0647   21.1605 C.3     1  UNL1        0.0025
     24 C           7.4189   -6.2134   25.9142 C.3     1  UNL1        0.0938
     25 C           8.7684   -6.8512   25.7656 C.3     1  UNL1        0.0215
     26 C           8.3201   -8.8137   27.4080 C.3     1  UNL1        0.0001
     27 C           8.9691   -8.2833   26.1640 C.3     1  UNL1        0.0018
     28 C           6.6164   -4.4026   30.7181 C.3     1  UNL1        0.0992
     29 C           6.7825   -3.2532   31.6674 C.ar    1  UNL1       -0.0059
     30 C           8.1556   -2.7577   32.0122 C.ar    1  UNL1        0.0002
     31 C           8.3217   -1.6082   32.9616 C.ar    1  UNL1        0.0372
     32 C           7.1146   -0.9544   33.5662 C.ar    1  UNL1        0.1453
     33 C           5.7415   -1.4500   33.2214 C.ar    1  UNL1        0.0372
     34 C           5.5754   -2.5993   32.2720 C.ar    1  UNL1        0.0002
     35 O           7.2808    0.1950   34.5155 O.3     1  UNL1       -0.4535
     36 C           6.1102    0.6797   35.3185 C.ar    1  UNL1        0.1453
     37 C           5.3123    1.8583   34.8450 C.ar    1  UNL1        0.0375
     38 C           4.1417    2.3430   35.6480 C.ar    1  UNL1        0.0043
     39 C           3.7690    1.6491   36.9245 C.ar    1  UNL1        0.0142
     40 C           4.5669    0.4705   37.3981 C.ar    1  UNL1        0.0043
     41 C           5.7375   -0.0143   36.5951 C.ar    1  UNL1        0.0375
     42 C           2.5984    2.1338   37.7275 C.2     1  UNL1        0.0729
     43 O           1.6220    3.0986   37.1226 O.co2   1  UNL1       -0.5446
     44 O           2.4043    1.6538   39.1353 O.co2   1  UNL1       -0.5446
@<TRIPOS>UNITY_ATOM_ATTR
43 1
charge -1
@<TRIPOS>BOND
     1    26    27    1
     2    27    25    1
     3    25    24    1
     4    24     1    1
     5     1     2   am
     6     2     3    2
     7     2     4    1
     8     4    15    1
     9    15    16    1
    10    15    18    1
    11    18    19    1
    12    19    20    1
    13    20    21    1
    14    21    22    1
    15    22    23    1
    16     4     5    1
    17     5     6   am
    18     6     7    2
    19     6     8    1
    20     8     9    1
    21     9    10    1
    22    10    11    1
    23    11    28    1
    24    28    29    1
    25    29    30   ar
    26    30    31   ar
    27    31    32   ar
    28    32    35    1
    29    35    36    1
    30    36    37   ar
    31    37    38   ar
    32    38    39   ar
    33    39    42    1
    34    42    43   ar
    35    42    44   ar
    36    39    40   ar
    37    40    41   ar
    38    32    33   ar
    39    33    34   ar
    40    11    12    1
    41    12    13    1
    42     8     1    1
    43    34    29   ar
    44    23    18    1
    45    13     8    1
    46    41    36   ar
    47    16    17    1
    48     5    14    1
@<TRIPOS>MOLECULE
*****
 44 48 0 0 0
SMALL
GASTEIGER

@<TRIPOS>ATOM
      1 N           2.3990   -0.3698   20.3952 N.am    1  UNL1       -0.2733
      2 C           3.2521   -1.2780   19.5599 C.2     1  UNL1        0.2462
      3 O           3.1018   -1.2853   18.0675 O.2     1  UNL1       -0.2730
      4 C           4.2553   -2.1789   20.2171 C.3     1  UNL1        0.1759
      5 N           4.4055   -2.1716   21.7095 N.am    1  UNL1       -0.2951
      6 C           3.5526   -1.2635   22.5448 C.2     1  UNL1        0.2390
      7 O           3.7028   -1.2562   24.0372 O.2     1  UNL1       -0.2734
      8 C           2.5493   -0.3625   21.8876 C.3     1  UNL1        0.1314
      9 C           1.5461    0.5384   21.2304 C.3     1  UNL1        0.0445
     10 C           0.6931    1.4465   22.0657 C.3     1  UNL1        0.0745
     11 N           0.8434    1.4538   23.5581 N.3     1  UNL1       -0.2688
     12 C           1.8466    0.5529   24.2153 C.3     1  UNL1        0.0745
     13 C           2.6996   -0.3553   23.3800 C.3     1  UNL1        0.0445
     14 H           5.0640   -2.7629   22.1409 H       1  UNL1        0.1499
     15 C           5.1083   -3.0871   19.3818 C.3     1  UNL1        0.1372
     16 O           4.4855   -3.9088   18.2924 O.3     1  UNL1       -0.3823
     17 H           3.5315   -3.7358   18.2621 H       1  UNL1        0.2104
     18 C           6.5840   -3.1735   19.6360 C.3     1  UNL1        0.0291
     19 C           7.1108   -4.1062   20.6861 C.3     1  UNL1        0.0025
     20 C           8.5866   -4.1926   20.9403 C.3     1  UNL1        0.0001
     21 C           9.5356   -3.3464   20.1444 C.3     1  UNL1        0.0000
     22 C           9.0088   -2.4138   19.0943 C.3     1  UNL1        0.0001
     23 C           7.5330   -2.3274   18.8402 C.3     1  UNL1        0.0025
     24 C           1.3958    0.5311   19.7380 C.3     1  UNL1        0.0938
     25 C           1.7791    1.3181   18.5199 C.3     1  UNL1        0.0215
     26 C           4.2245    2.1956   18.5080 C.3     1  UNL1        0.0001
     27 C           2.7524    2.4535   18.6361 C.3     1  UNL1        0.0018
     28 C          -0.0096    2.3620   24.3934 C.3     1  UNL1        0.0992
     29 C           0.1590    2.3886   25.8836 C.ar    1  UNL1       -0.0059
     30 C          -0.6622    1.4780   26.7477 C.ar    1  UNL1        0.0002
     31 C          -0.4935    1.5047   28.2380 C.ar    1  UNL1        0.0372
     32 C           0.4963    2.4418   28.8641 C.ar    1  UNL1        0.1453
     33 C           1.3174    3.3523   28.0000 C.ar    1  UNL1        0.0372
     34 C           1.1488    3.3257   26.5098 C.ar    1  UNL1        0.0002
     35 O           0.6649    2.4684   30.3543 O.3     1  UNL1       -0.4535
     36 C           1.6093    1.5115   31.0195 C.ar    1  UNL1        0.1453
     37 C           2.1427    1.8138   32.3884 C.ar    1  UNL1        0.0375
     38 C           3.0872    0.8569   33.0535 C.ar    1  UNL1        0.0043
     39 C           3.4982   -0.4023   32.3497 C.ar    1  UNL1        0.0142
     40 C           2.9648   -0.7047   30.9807 C.ar    1  UNL1        0.0043
     41 C           2.0204    0.2522   30.3156 C.ar    1  UNL1        0.0375
     42 C           4.4427   -1.3592   33.0149 C.2     1  UNL1        0.0729
     43 O           5.9180   -1.0882   33.0013 O.co2   1  UNL1       -0.5446
     44 O           3.9119   -2.5870   33.6935 O.co2   1  UNL1       -0.5446
@<TRIPOS>UNITY_ATOM_ATTR
43 1
charge -1
@<TRIPOS>BOND
     1    26    27    1
     2    27    25    1
     3    25    24    1
     4    24     1    1
     5     1     2   am
     6     2     3    2
     7     2     4    1
     8     4    15    1
     9    15    16    1
    10    15    18    1
    11    18    19    1
    12    19    20    1
    13    20    21    1
    14    21    22    1
    15    22    23    1
    16     4     5    1
    17     5     6   am
    18     6     7    2
    19     6     8    1
    20     8     9    1
    21     9    10    1
    22    10    11    1
    23    11    28    1
    24    28    29    1
    25    29    30   ar
    26    30    31   ar
    27    31    32   ar
    28    32    35    1
    29    35    36    1
    30    36    37   ar
    31    37    38   ar
    32    38    39   ar
    33    39    42    1
    34    42    43   ar
    35    42    44   ar
    36    39    40   ar
    37    40    41   ar
    38    32    33   ar
    39    33    34   ar
    40    11    12    1
    41    12    13    1
    42     8     1    1
    43    34    29   ar
    44    23    18    1
    45    13     8    1
    46    41    36   ar
    47    16    17    1
    48     5    14    1
@<TRIPOS>MOLECULE
*****
 44 48 0 0 0
SMALL
GASTEIGER

@<TRIPOS>ATOM
      1 N           4.4180   -2.0025   20.6538 N.am    1  UNL1       -0.2733
      2 C           3.3119   -1.1683   20.0787 C.2     1  UNL1        0.2462
      3 O           3.1623   -1.0434   18.5914 O.2     1  UNL1       -0.2730
      4 C           2.3554   -0.4589   20.9908 C.3     1  UNL1        0.1759
      5 N           2.5050   -0.5838   22.4781 N.am    1  UNL1       -0.2951
      6 C           3.6110   -1.4179   23.0533 C.2     1  UNL1        0.2390
      7 O           3.7606   -1.5427   24.5406 O.2     1  UNL1       -0.2734
      8 C           4.5675   -2.1273   22.1411 C.3     1  UNL1        0.1314
      9 C           5.5240   -2.8367   21.2290 C.3     1  UNL1        0.0445
     10 C           6.6300   -3.6708   21.8041 C.3     1  UNL1        0.0745
     11 N           6.7796   -3.7956   23.2914 N.3     1  UNL1       -0.2688
     12 C           5.8232   -3.0863   24.2036 C.3     1  UNL1        0.0745
     13 C           4.7171   -2.2521   23.6284 C.3     1  UNL1        0.0445
     14 H           1.8773   -0.1182   23.0768 H       1  UNL1        0.1499
     15 C           1.2493    0.3753   20.4157 C.3     1  UNL1        0.1372
     16 O          -0.1662   -0.1182   20.4662 O.3     1  UNL1       -0.3823
     17 H          -0.1910   -0.9856   20.8998 H       1  UNL1        0.2104
     18 C           1.5589    1.7029   19.7900 C.3     1  UNL1        0.0291
     19 C           2.8063    2.4412   20.1757 C.3     1  UNL1        0.0025
     20 C           3.1159    3.7689   19.5501 C.3     1  UNL1        0.0001
     21 C           2.1779    4.3584   18.5387 C.3     1  UNL1        0.0000
     22 C           0.9304    3.6201   18.1530 C.3     1  UNL1        0.0001
     23 C           0.6209    2.2923   18.7787 C.3     1  UNL1        0.0025
     24 C           5.3744   -2.7118   19.7417 C.3     1  UNL1        0.0938
     25 C           4.8520   -3.5654   18.6244 C.3     1  UNL1        0.0215
     26 C           3.3294   -5.3808   19.6903 C.3     1  UNL1        0.0001
     27 C           4.5300   -5.0095   18.8713 C.3     1  UNL1        0.0018
     28 C           7.8857   -4.6299   23.8666 C.3     1  UNL1        0.0992
     29 C           8.1780   -4.5772   25.3368 C.ar    1  UNL1       -0.0059
     30 C           7.5683   -5.5906   26.2595 C.ar    1  UNL1        0.0002
     31 C           7.8606   -5.5380   27.7298 C.ar    1  UNL1        0.0372
     32 C           8.7626   -4.4720   28.2775 C.ar    1  UNL1        0.1453
     33 C           9.3723   -3.4586   27.3548 C.ar    1  UNL1        0.0372
     34 C           9.0800   -3.5112   25.8845 C.ar    1  UNL1        0.0002
     35 O           9.0549   -4.4193   29.7477 O.3     1  UNL1       -0.4535
     36 C           8.0968   -3.7376   30.6790 C.ar    1  UNL1        0.1453
     37 C           7.1470   -4.5522   31.5061 C.ar    1  UNL1        0.0375
     38 C           6.1888   -3.8705   32.4374 C.ar    1  UNL1        0.0043
     39 C           6.1805   -2.3742   32.5415 C.ar    1  UNL1        0.0142
     40 C           7.1304   -1.5595   31.7143 C.ar    1  UNL1        0.0043
     41 C           8.0885   -2.2412   30.7831 C.ar    1  UNL1        0.0375
     42 C           5.2224   -1.6924   33.4727 C.2     1  UNL1        0.0729
     43 O           5.5364   -0.3247   34.0026 O.co2   1  UNL1       -0.5446
     44 O           3.9503   -2.3784   33.8741 O.co2   1  UNL1       -0.5446
@<TRIPOS>UNITY_ATOM_ATTR
43 1
charge -1
@<TRIPOS>BOND
     1    26    27    1
     2    27    25    1
     3    25    24    1
     4    24     1    1
     5     1     2   am
     6     2     3    2
     7     2     4    1
     8     4    15    1
     9    15    16    1
    10    15    18    1
    11    18    19    1
    12    19    20    1
    13    20    21    1
    14    21    22    1
    15    22    23    1
    16     4     5    1
    17     5     6   am
    18     6     7    2
    19     6     8    1
    20     8     9    1
    21     9    10    1
    22    10    11    1
    23    11    28    1
    24    28    29    1
    25    29    30   ar
    26    30    31   ar
    27    31    32   ar
    28    32    35    1
    29    35    36    1
    30    36    37   ar
    31    37    38   ar
    32    38    39   ar
    33    39    42    1
    34    42    43   ar
    35    42    44   ar
    36    39    40   ar
    37    40    41   ar
    38    32    33   ar
    39    33    34   ar
    40    11    12    1
    41    12    13    1
    42     8     1    1
    43    34    29   ar
    44    23    18    1
    45    13     8    1
    46    41    36   ar
    47    16    17    1
    48     5    14    1
@<TRIPOS>MOLECULE
*****
 44 48 0 0 0
SMALL
GASTEIGER

@<TRIPOS>ATOM
      1 N           5.1730   -1.4568   29.2587 N.am    1  UNL1       -0.2733
      2 C           4.6997   -1.4120   30.6814 C.2     1  UNL1        0.2462
      3 O           3.6098   -0.4614   31.0796 O.2     1  UNL1       -0.2730
      4 C           5.3162   -2.3177   31.7058 C.3     1  UNL1        0.1759
      5 N           6.4061   -3.2682   31.3076 N.am    1  UNL1       -0.2951
      6 C           6.8794   -3.3131   29.8850 C.2     1  UNL1        0.2390
      7 O           7.9693   -4.2637   29.4868 O.2     1  UNL1       -0.2734
      8 C           6.2628   -2.4074   28.8605 C.3     1  UNL1        0.1314
      9 C           5.6463   -1.5017   27.8360 C.3     1  UNL1        0.0445
     10 C           6.1196   -1.5465   26.4134 C.3     1  UNL1        0.0745
     11 N           7.2095   -2.4971   26.0152 N.3     1  UNL1       -0.2688
     12 C           7.8260   -3.4028   27.0396 C.3     1  UNL1        0.0745
     13 C           7.3527   -3.3579   28.4623 C.3     1  UNL1        0.0445
     14 H           6.8108   -3.8627   31.9800 H       1  UNL1        0.1499
     15 C           4.8429   -2.2728   33.1285 C.3     1  UNL1        0.1372
     16 O           3.7859   -3.2281   33.5977 O.3     1  UNL1       -0.3823
     17 H           3.5192   -3.8018   32.8625 H       1  UNL1        0.2104
     18 C           5.4266   -1.2727   34.0820 C.3     1  UNL1        0.0291
     19 C           6.7731   -0.6715   33.8070 C.3     1  UNL1        0.0025
     20 C           7.3568    0.3285   34.7604 C.3     1  UNL1        0.0001
     21 C           6.5941    0.7275   35.9889 C.3     1  UNL1        0.0000
     22 C           5.2476    0.1263   36.2639 C.3     1  UNL1        0.0001
     23 C           4.6639   -0.8739   35.3104 C.3     1  UNL1        0.0025
     24 C           4.5564   -0.5511   28.2342 C.3     1  UNL1        0.0938
     25 C           3.1438   -0.7794   27.7844 C.3     1  UNL1        0.0215
     26 C           0.8596   -0.0608   28.7923 C.3     1  UNL1        0.0001
     27 C           2.1019    0.2734   28.0209 C.3     1  UNL1        0.0018
     28 C           7.6828   -2.5419   24.5925 C.3     1  UNL1        0.0992
     29 C           6.6877   -2.5271   23.4702 C.ar    1  UNL1       -0.0059
     30 C           6.7368   -1.4393   22.4386 C.ar    1  UNL1        0.0002
     31 C           5.7416   -1.4245   21.3163 C.ar    1  UNL1        0.0372
     32 C           4.6974   -2.4975   21.2256 C.ar    1  UNL1        0.1453
     33 C           4.6483   -3.5853   22.2572 C.ar    1  UNL1        0.0372
     34 C           5.6434   -3.6002   23.3795 C.ar    1  UNL1        0.0002
     35 O           3.7023   -2.4826   20.1034 O.3     1  UNL1       -0.4535
     36 C           2.8334   -1.2792   19.8873 C.ar    1  UNL1        0.1453
     37 C           2.9244   -0.5092   18.6032 C.ar    1  UNL1        0.0375
     38 C           2.0555    0.6942   18.3872 C.ar    1  UNL1        0.0043
     39 C           1.0956    1.1277   19.4551 C.ar    1  UNL1        0.0142
     40 C           1.0046    0.3577   20.7393 C.ar    1  UNL1        0.0043
     41 C           1.8735   -0.8457   20.9554 C.ar    1  UNL1        0.0375
     42 C           0.2267    2.3312   19.2391 C.2     1  UNL1        0.0729
     43 O           0.1914    2.9994   17.8966 O.co2   1  UNL1       -0.5446
     44 O          -0.6069    2.8663   20.3654 O.co2   1  UNL1       -0.5446
@<TRIPOS>UNITY_ATOM_ATTR
43 1
charge -1
@<TRIPOS>BOND
     1    26    27    1
     2    27    25    1
     3    25    24    1
     4    24     1    1
     5     1     2   am
     6     2     3    2
     7     2     4    1
     8     4    15    1
     9    15    16    1
    10    15    18    1
    11    18    19    1
    12    19    20    1
    13    20    21    1
    14    21    22    1
    15    22    23    1
    16     4     5    1
    17     5     6   am
    18     6     7    2
    19     6     8    1
    20     8     9    1
    21     9    10    1
    22    10    11    1
    23    11    28    1
    24    28    29    1
    25    29    30   ar
    26    30    31   ar
    27    31    32   ar
    28    32    35    1
    29    35    36    1
    30    36    37   ar
    31    37    38   ar
    32    38    39   ar
    33    39    42    1
    34    42    43   ar
    35    42    44   ar
    36    39    40   ar
    37    40    41   ar
    38    32    33   ar
    39    33    34   ar
    40    11    12    1
    41    12    13    1
    42     8     1    1
    43    34    29   ar
    44    23    18    1
    45    13     8    1
    46    41    36   ar
    47    16    17    1
    48     5    14    1
@<TRIPOS>MOLECULE
*****
 44 48 0 0 0
SMALL
GASTEIGER

@<TRIPOS>ATOM
      1 N           6.7737   -2.6753   19.7625 N.am    1  UNL1       -0.2733
      2 C           6.0239   -1.9797   18.6651 C.2     1  UNL1        0.2462
      3 O           6.6898   -1.7270   17.3450 O.2     1  UNL1       -0.2730
      4 C           4.6082   -1.5368   18.8879 C.3     1  UNL1        0.1759
      5 N           3.9423   -1.7894   20.2081 N.am    1  UNL1       -0.2951
      6 C           4.6920   -2.4849   21.3054 C.2     1  UNL1        0.2390
      7 O           4.0260   -2.7376   22.6255 O.2     1  UNL1       -0.2734
      8 C           6.1077   -2.9279   21.0826 C.3     1  UNL1        0.1314
      9 C           7.5234   -3.3708   20.8598 C.3     1  UNL1        0.0445
     10 C           8.2731   -4.0663   21.9571 C.3     1  UNL1        0.0745
     11 N           7.6071   -4.3190   23.2772 N.3     1  UNL1       -0.2688
     12 C           6.1914   -3.8761   23.5000 C.3     1  UNL1        0.0745
     13 C           5.4417   -3.1805   22.4027 C.3     1  UNL1        0.0445
     14 H           3.0131   -1.4987   20.3543 H       1  UNL1        0.1499
     15 C           3.8584   -0.8412   17.7906 C.3     1  UNL1        0.1372
     16 O           3.8510   -1.4169   16.4055 O.3     1  UNL1       -0.3823
     17 H           4.3746   -2.2333   16.3919 H       1  UNL1        0.2104
     18 C           3.1161    0.4301   18.0784 C.3     1  UNL1        0.0291
     19 C           3.8667    1.7207   18.2223 C.3     1  UNL1        0.0025
     20 C           3.1244    2.9920   18.5101 C.3     1  UNL1        0.0001
     21 C           1.6314    2.9726   18.6540 C.3     1  UNL1        0.0000
     22 C           0.8808    1.6819   18.5101 C.3     1  UNL1        0.0001
     23 C           1.6232    0.4106   18.2223 C.3     1  UNL1        0.0025
     24 C           8.1893   -3.1182   19.5397 C.3     1  UNL1        0.0938
     25 C           9.2407   -2.1132   19.1727 C.3     1  UNL1        0.0215
     26 C           8.9731    0.4623   18.9602 C.3     1  UNL1        0.0001
     27 C           9.2295   -0.7520   19.8027 C.3     1  UNL1        0.0018
     28 C           8.3569   -5.0145   24.3745 C.3     1  UNL1        0.0992
     29 C           7.8939   -4.8890   25.7957 C.ar    1  UNL1       -0.0059
     30 C           8.5174   -3.8678   26.7003 C.ar    1  UNL1        0.0002
     31 C           8.0543   -3.7423   28.1215 C.ar    1  UNL1        0.0372
     32 C           6.9677   -4.6380   28.6381 C.ar    1  UNL1        0.1453
     33 C           6.3442   -5.6593   27.7336 C.ar    1  UNL1        0.0372
     34 C           6.8072   -5.7848   26.3124 C.ar    1  UNL1        0.0002
     35 O           6.5047   -4.5125   30.0593 O.3     1  UNL1       -0.4535
     36 C           6.7462   -3.2408   30.8173 C.ar    1  UNL1        0.1453
     37 C           5.9853   -1.9986   30.4599 C.ar    1  UNL1        0.0375
     38 C           6.2268   -0.7270   31.2179 C.ar    1  UNL1        0.0043
     39 C           7.2293   -0.6975   32.3333 C.ar    1  UNL1        0.0142
     40 C           7.9903   -1.9398   32.6907 C.ar    1  UNL1        0.0043
     41 C           7.7488   -3.2114   31.9327 C.ar    1  UNL1        0.0375
     42 C           7.4708    0.5742   33.0912 C.2     1  UNL1        0.0729
     43 O           6.3268    1.4962   33.3930 O.co2   1  UNL1       -0.5446
     44 O           8.8563    0.9238   33.5474 O.co2   1  UNL1       -0.5446
@<TRIPOS>UNITY_ATOM_ATTR
43 1
charge -1
@<TRIPOS>BOND
     1    26    27    1
     2    27    25    1
     3    25    24    1
     4    24     1    1
     5     1     2   am
     6     2     3    2
     7     2     4    1
     8     4    15    1
     9    15    16    1
    10    15    18    1
    11    18    19    1
    12    19    20    1
    13    20    21    1
    14    21    22    1
    15    22    23    1
    16     4     5    1
    17     5     6   am
    18     6     7    2
    19     6     8    1
    20     8     9    1
    21     9    10    1
    22    10    11    1
    23    11    28    1
    24    28    29    1
    25    29    30   ar
    26    30    31   ar
    27    31    32   ar
    28    32    35    1
    29    35    36    1
    30    36    37   ar
    31    37    38   ar
    32    38    39   ar
    33    39    42    1
    34    42    43   ar
    35    42    44   ar
    36    39    40   ar
    37    40    41   ar
    38    32    33   ar
    39    33    34   ar
    40    11    12    1
    41    12    13    1
    42     8     1    1
    43    34    29   ar
    44    23    18    1
    45    13     8    1
    46    41    36   ar
    47    16    17    1
    48     5    14    1
@<TRIPOS>MOLECULE
*****
 44 48 0 0 0
SMALL
GASTEIGER

@<TRIPOS>ATOM
      1 N           3.9302    0.1012   33.3743 N.am    1  UNL1       -0.2733
      2 C           4.1620    0.5657   34.7817 C.2     1  UNL1        0.2462
      3 O           5.1988   -0.1065   35.6322 O.2     1  UNL1       -0.2730
      4 C           3.3570    1.7022   35.3386 C.3     1  UNL1        0.1759
      5 N           2.3202    2.3744   34.4881 N.am    1  UNL1       -0.2951
      6 C           2.0884    1.9100   33.0808 C.2     1  UNL1        0.2390
      7 O           1.0517    2.5822   32.2304 O.2     1  UNL1       -0.2734
      8 C           2.8935    0.7734   32.5239 C.3     1  UNL1        0.1314
      9 C           3.6984   -0.3632   31.9670 C.3     1  UNL1        0.0445
     10 C           3.4666   -0.8276   30.5597 C.3     1  UNL1        0.0745
     11 N           2.4299   -0.1554   29.7093 N.3     1  UNL1       -0.2688
     12 C           1.6249    0.9812   30.2661 C.3     1  UNL1        0.0745
     13 C           1.8567    1.4456   31.6734 C.3     1  UNL1        0.0445
     14 H           1.7919    3.1204   34.8536 H       1  UNL1        0.1499
     15 C           3.5888    2.1667   36.7460 C.3     1  UNL1        0.1372
     16 O           4.8683    2.8622   37.1051 O.3     1  UNL1       -0.3823
     17 H           5.4314    2.9300   36.3181 H       1  UNL1        0.2104
     18 C           2.5410    1.9356   37.7941 C.3     1  UNL1        0.0291
     19 C           2.4830    0.6244   38.5203 C.3     1  UNL1        0.0025
     20 C           1.4352    0.3933   39.5685 C.3     1  UNL1        0.0001
     21 C           0.4454    1.4735   39.8906 C.3     1  UNL1        0.0000
     22 C           0.5035    2.7847   39.1644 C.3     1  UNL1        0.0001
     23 C           1.5513    3.0157   38.1162 C.3     1  UNL1        0.0025
     24 C           4.7352   -1.0354   32.8175 C.3     1  UNL1        0.0938
     25 C           6.2310   -0.9381   32.7610 C.3     1  UNL1        0.0215
     26 C           6.3775   -3.4738   32.2146 C.3     1  UNL1        0.0001
     27 C           7.0489   -2.1484   32.4200 C.3     1  UNL1        0.0018
     28 C           2.1981   -0.6198   28.3019 C.3     1  UNL1        0.0992
     29 C           3.3090   -0.5497   27.2964 C.ar    1  UNL1       -0.0059
     30 C           4.3104   -1.6628   27.2063 C.ar    1  UNL1        0.0002
     31 C           5.4213   -1.5925   26.2007 C.ar    1  UNL1        0.0372
     32 C           5.5307   -0.4093   25.2854 C.ar    1  UNL1        0.1453
     33 C           4.5293    0.7038   25.3755 C.ar    1  UNL1        0.0372
     34 C           3.4184    0.6336   26.3810 C.ar    1  UNL1        0.0002
     35 O           6.6416   -0.3391   24.2799 O.3     1  UNL1       -0.4535
     36 C           6.4529   -0.9245   22.9118 C.ar    1  UNL1        0.1453
     37 C           6.0002   -0.0521   21.7787 C.ar    1  UNL1        0.0375
     38 C           5.8116   -0.6375   20.4106 C.ar    1  UNL1        0.0043
     39 C           6.0757   -2.0952   20.1755 C.ar    1  UNL1        0.0142
     40 C           6.5285   -2.9676   21.3087 C.ar    1  UNL1        0.0043
     41 C           6.7171   -2.3823   22.6768 C.ar    1  UNL1        0.0375
     42 C           5.8871   -2.6805   18.8074 C.2     1  UNL1        0.0729
     43 O           4.8283   -3.7174   18.5747 O.co2   1  UNL1       -0.5446
     44 O           6.7571   -2.2291   17.6720 O.co2   1  UNL1       -0.5446
@<TRIPOS>UNITY_ATOM_ATTR
43 1
charge -1
@<TRIPOS>BOND
     1    26    27    1
     2    27    25    1
     3    25    24    1
     4    24     1    1
     5     1     2   am
     6     2     3    2
     7     2     4    1
     8     4    15    1
     9    15    16    1
    10    15    18    1
    11    18    19    1
    12    19    20    1
    13    20    21    1
    14    21    22    1
    15    22    23    1
    16     4     5    1
    17     5     6   am
    18     6     7    2
    19     6     8    1
    20     8     9    1
    21     9    10    1
    22    10    11    1
    23    11    28    1
    24    28    29    1
    25    29    30   ar
    26    30    31   ar
    27    31    32   ar
    28    32    35    1
    29    35    36    1
    30    36    37   ar
    31    37    38   ar
    32    38    39   ar
    33    39    42    1
    34    42    43   ar
    35    42    44   ar
    36    39    40   ar
    37    40    41   ar
    38    32    33   ar
    39    33    34   ar
    40    11    12    1
    41    12    13    1
    42     8     1    1
    43    34    29   ar
    44    23    18    1
    45    13     8    1
    46    41    36   ar
    47    16    17    1
    48     5    14    1
@<TRIPOS>MOLECULE
*****
 44 48 0 0 0
SMALL
GASTEIGER

@<TRIPOS>ATOM
      1 N           2.1623    0.5030   24.4145 N.am    1  UNL1       -0.2733
      2 C           1.7515    0.4766   22.9720 C.2     1  UNL1        0.2462
      3 O           0.6898    1.4137   22.4773 O.2     1  UNL1       -0.2730
      4 C           2.4024   -0.4869   22.0244 C.3     1  UNL1        0.1759
      5 N           3.4641   -1.4239   22.5192 N.am    1  UNL1       -0.2951
      6 C           3.8748   -1.3975   23.9615 C.2     1  UNL1        0.2390
      7 O           4.9365   -2.3346   24.4563 O.2     1  UNL1       -0.2734
      8 C           3.2240   -0.4340   24.9093 C.3     1  UNL1        0.1314
      9 C           2.5731    0.5295   25.8569 C.3     1  UNL1        0.0445
     10 C           2.9839    0.5559   27.2992 C.3     1  UNL1        0.0745
     11 N           4.0455   -0.3812   27.7940 N.3     1  UNL1       -0.2688
     12 C           4.6964   -1.3447   26.8464 C.3     1  UNL1        0.0745
     13 C           4.2856   -1.3711   25.4040 C.3     1  UNL1        0.0445
     14 H           3.8912   -2.0563   21.8972 H       1  UNL1        0.1499
     15 C           1.9916   -0.5133   20.5819 C.3     1  UNL1        0.1372
     16 O           0.5413   -0.6297   20.2172 O.3     1  UNL1       -0.3823
     17 H           0.0074   -0.6771   21.0256 H       1  UNL1        0.2104
     18 C           3.0311   -0.4234   19.5043 C.3     1  UNL1        0.0291
     19 C           3.5253    0.9177   19.0489 C.3     1  UNL1        0.0025
     20 C           4.5648    1.0076   17.9713 C.3     1  UNL1        0.0001
     21 C           5.1102   -0.2436   17.3490 C.3     1  UNL1        0.0000
     22 C           4.6160   -1.5846   17.8044 C.3     1  UNL1        0.0001
     23 C           3.5765   -1.6745   18.8821 C.3     1  UNL1        0.0025
     24 C           1.5114    1.4665   25.3621 C.3     1  UNL1        0.0938
     25 C           0.0666    1.2979   25.7284 C.3     1  UNL1        0.0215
     26 C          -1.5924    3.0501   26.6913 C.3     1  UNL1        0.0001
     27 C          -0.8975    2.4273   25.5169 C.3     1  UNL1        0.0018
     28 C           4.4563   -0.3547   29.2365 C.3     1  UNL1        0.0992
     29 C           3.8300    0.6320   30.1767 C.ar    1  UNL1       -0.0059
     30 C           4.5662    1.8847   30.5490 C.ar    1  UNL1        0.0002
     31 C           3.9398    2.8715   31.4893 C.ar    1  UNL1        0.0372
     32 C           2.5772    2.6054   32.0572 C.ar    1  UNL1        0.1453
     33 C           1.8409    1.3527   31.6848 C.ar    1  UNL1        0.0372
     34 C           2.4673    0.3660   30.7446 C.ar    1  UNL1        0.0002
     35 O           1.9508    3.5922   32.9974 O.3     1  UNL1       -0.4535
     36 C           2.0939    3.4109   34.4795 C.ar    1  UNL1        0.1453
     37 C           1.4889    4.4112   35.4193 C.ar    1  UNL1        0.0375
     38 C           1.6320    4.2299   36.9014 C.ar    1  UNL1        0.0043
     39 C           2.3800    3.0483   37.4437 C.ar    1  UNL1        0.0142
     40 C           2.9850    2.0479   36.5039 C.ar    1  UNL1        0.0043
     41 C           2.8420    2.2291   35.0218 C.ar    1  UNL1        0.0375
     42 C           2.5231    2.8670   38.9258 C.2     1  UNL1        0.0729
     43 O           1.4009    2.2666   39.7198 O.co2   1  UNL1       -0.5446
     44 O           3.7883    3.2861   39.6140 O.co2   1  UNL1       -0.5446
@<TRIPOS>UNITY_ATOM_ATTR
43 1
charge -1
@<TRIPOS>BOND
     1    26    27    1
     2    27    25    1
     3    25    24    1
     4    24     1    1
     5     1     2   am
     6     2     3    2
     7     2     4    1
     8     4    15    1
     9    15    16    1
    10    15    18    1
    11    18    19    1
    12    19    20    1
    13    20    21    1
    14    21    22    1
    15    22    23    1
    16     4     5    1
    17     5     6   am
    18     6     7    2
    19     6     8    1
    20     8     9    1
    21     9    10    1
    22    10    11    1
    23    11    28    1
    24    28    29    1
    25    29    30   ar
    26    30    31   ar
    27    31    32   ar
    28    32    35    1
    29    35    36    1
    30    36    37   ar
    31    37    38   ar
    32    38    39   ar
    33    39    42    1
    34    42    43   ar
    35    42    44   ar
    36    39    40   ar
    37    40    41   ar
    38    32    33   ar
    39    33    34   ar
    40    11    12    1
    41    12    13    1
    42     8     1    1
    43    34    29   ar
    44    23    18    1
    45    13     8    1
    46    41    36   ar
    47    16    17    1
    48     5    14    1
