@<TRIPOS>MOLECULE
*****
 24 25 0 0 0
SMALL
GASTEIGER

@<TRIPOS>ATOM
      1 C          -8.3317  -18.5353   22.2736 C.ar    1  UNL1        0.0874
      2 C          -9.2115  -17.4241   21.7826 C.ar    1  UNL1        0.0063
      3 C         -10.6927  -17.4834   22.0115 C.ar    1  UNL1        0.0115
      4 C         -11.2941  -18.6539   22.7314 C.ar    1  UNL1        0.1326
      5 O         -12.7754  -18.7131   22.9603 O.3     1  UNL1       -0.5057
      6 C         -10.4143  -19.7651   23.2224 C.ar    1  UNL1        0.0730
      7 C          -8.9331  -19.7058   22.9935 C.ar    1  UNL1        0.1410
      8 O          -8.0532  -20.8170   23.4845 O.3     1  UNL1       -0.5053
      9 H         -13.3250  -18.0190   22.6536 H       1  UNL1        0.2922
     10 H          -8.4289  -21.5482   23.9342 H       1  UNL1        0.2922
     11 N          -6.2176  -19.3461   20.9995 N.am    1  UNL1       -0.2536
     12 C          -6.8504  -18.4760   22.0448 C.2     1  UNL1        0.2557
     13 O          -6.0019  -17.5467   22.8612 O.2     1  UNL1       -0.2695
     14 C          -4.7363  -19.2868   20.7707 C.ar    1  UNL1        0.0733
     15 C          -4.1955  -18.6685   19.5156 C.ar    1  UNL1        0.0181
     16 C          -2.7143  -18.6092   19.2867 C.ar    1  UNL1        0.0220
     17 C          -1.7739  -19.1683   20.3129 C.ar    1  UNL1        0.0990
     18 N          -2.3147  -19.7866   21.5679 N.ar    1  UNL1       -0.2410
     19 C          -3.7959  -19.8459   21.7968 C.ar    1  UNL1        0.1137
     20 C          -7.9979  -19.7235   19.1453 C.3     1  UNL1        0.0237
     21 C          -7.0660  -20.2754   20.1831 C.3     1  UNL1        0.0986
     22 C         -11.5726  -16.3721   21.5205 C.3     1  UNL1        0.0253
     23 C         -11.6304  -16.0526   20.0561 C.3     1  UNL1        0.0048
     24 C         -12.3946  -15.5805   22.4939 C.3     1  UNL1        0.0048
@<TRIPOS>BOND
     1    20    21    1
     2    21    11    1
     3    11    12   am
     4    12    13    2
     5    12     1    1
     6     1     2   ar
     7     2     3   ar
     8     3    22    1
     9    22    23    1
    10    22    24    1
    11     3     4   ar
    12     4     5    1
    13     4     6   ar
    14     6     7   ar
    15     7     8    1
    16    11    14    1
    17    14    15   ar
    18    15    16   ar
    19    16    17   ar
    20    17    18   ar
    21    18    19   ar
    22     7     1   ar
    23    19    14   ar
    24     5     9    1
    25     8    10    1
@<TRIPOS>MOLECULE
*****
 24 25 0 0 0
SMALL
GASTEIGER

@<TRIPOS>ATOM
      1 C          -7.1923  -17.6098   22.6108 C.ar    1  UNL1        0.0874
      2 C          -8.0025  -18.8661   22.7343 C.ar    1  UNL1        0.0063
      3 C          -9.4624  -18.7871   23.0695 C.ar    1  UNL1        0.0115
      4 C         -10.1121  -17.4517   23.2812 C.ar    1  UNL1        0.1326
      5 O         -11.5721  -17.3728   23.6164 O.3     1  UNL1       -0.5057
      6 C          -9.3019  -16.1955   23.1577 C.ar    1  UNL1        0.0730
      7 C          -7.8420  -16.2745   22.8225 C.ar    1  UNL1        0.1410
      8 O          -7.0318  -15.0182   22.6990 O.3     1  UNL1       -0.5053
      9 H         -12.0782  -18.1575   23.6936 H       1  UNL1        0.2922
     10 H          -7.4376  -14.1840   22.8313 H       1  UNL1        0.2922
     11 N          -5.2652  -18.5815   21.1644 N.am    1  UNL1       -0.2536
     12 C          -5.7324  -17.6888   22.2756 C.2     1  UNL1        0.2557
     13 O          -4.7396  -16.8751   23.0516 O.2     1  UNL1       -0.2695
     14 C          -3.8052  -18.6604   20.8291 C.ar    1  UNL1        0.0733
     15 C          -3.3163  -18.1894   19.4916 C.ar    1  UNL1        0.0181
     16 C          -1.8564  -18.2684   19.1563 C.ar    1  UNL1        0.0220
     17 C          -0.8855  -18.8184   20.1586 C.ar    1  UNL1        0.0990
     18 N          -1.3744  -19.2894   21.4962 N.ar    1  UNL1       -0.2410
     19 C          -2.8343  -19.2104   21.8315 C.ar    1  UNL1        0.1137
     20 C          -6.0819  -20.8802   20.2704 C.3     1  UNL1        0.0237
     21 C          -6.2580  -19.3952   20.3883 C.3     1  UNL1        0.0986
     22 C         -10.2727  -20.0434   23.1930 C.3     1  UNL1        0.0253
     23 C         -11.1689  -20.4713   22.0688 C.3     1  UNL1        0.0048
     24 C         -10.1868  -20.8717   24.4406 C.3     1  UNL1        0.0048
@<TRIPOS>BOND
     1    20    21    1
     2    21    11    1
     3    11    12   am
     4    12    13    2
     5    12     1    1
     6     1     2   ar
     7     2     3   ar
     8     3    22    1
     9    22    23    1
    10    22    24    1
    11     3     4   ar
    12     4     5    1
    13     4     6   ar
    14     6     7   ar
    15     7     8    1
    16    11    14    1
    17    14    15   ar
    18    15    16   ar
    19    16    17   ar
    20    17    18   ar
    21    18    19   ar
    22     7     1   ar
    23    19    14   ar
    24     5     9    1
    25     8    10    1
@<TRIPOS>MOLECULE
*****
 24 25 0 0 0
SMALL
GASTEIGER

@<TRIPOS>ATOM
      1 C          -6.4481  -19.3974   20.9919 C.ar    1  UNL1        0.0874
      2 C          -5.5901  -18.4578   21.7862 C.ar    1  UNL1        0.0063
      3 C          -4.1141  -18.7008   21.8956 C.ar    1  UNL1        0.0115
      4 C          -3.4959  -19.8836   21.2107 C.ar    1  UNL1        0.1326
      5 O          -2.0197  -20.1266   21.3202 O.3     1  UNL1       -0.5057
      6 C          -4.3538  -20.8232   20.4165 C.ar    1  UNL1        0.0730
      7 C          -5.8299  -20.5802   20.3071 C.ar    1  UNL1        0.1410
      8 O          -6.6880  -21.5199   19.5128 O.3     1  UNL1       -0.5053
      9 H          -1.4838  -19.5396   21.8164 H       1  UNL1        0.2922
     10 H          -6.3018  -22.2587   19.0850 H       1  UNL1        0.2922
     11 N          -8.6250  -18.3181   21.9117 N.am    1  UNL1       -0.2536
     12 C          -7.9243  -19.1544   20.8825 C.2     1  UNL1        0.2557
     13 O          -8.6996  -19.7478   19.7437 O.2     1  UNL1       -0.2695
     14 C         -10.1012  -18.0750   21.8023 C.ar    1  UNL1        0.0733
     15 C         -11.0144  -18.4910   22.9172 C.ar    1  UNL1        0.0181
     16 C         -12.4905  -18.2480   22.8078 C.ar    1  UNL1        0.0220
     17 C         -13.0534  -17.5890   21.5835 C.ar    1  UNL1        0.0990
     18 N         -12.1402  -17.1731   20.4686 N.ar    1  UNL1       -0.2410
     19 C         -10.6641  -17.4161   20.5780 C.ar    1  UNL1        0.1137
     20 C          -8.0406  -16.2827   23.4171 C.3     1  UNL1        0.0237
     21 C          -7.8497  -17.7247   23.0505 C.3     1  UNL1        0.0986
     22 C          -3.2560  -17.7611   22.6899 C.3     1  UNL1        0.0253
     23 C          -2.3200  -16.8238   21.9862 C.3     1  UNL1        0.0048
     24 C          -3.3341  -17.7588   24.1878 C.3     1  UNL1        0.0048
@<TRIPOS>BOND
     1    20    21    1
     2    21    11    1
     3    11    12   am
     4    12    13    2
     5    12     1    1
     6     1     2   ar
     7     2     3   ar
     8     3    22    1
     9    22    23    1
    10    22    24    1
    11     3     4   ar
    12     4     5    1
    13     4     6   ar
    14     6     7   ar
    15     7     8    1
    16    11    14    1
    17    14    15   ar
    18    15    16   ar
    19    16    17   ar
    20    17    18   ar
    21    18    19   ar
    22     7     1   ar
    23    19    14   ar
    24     5     9    1
    25     8    10    1
@<TRIPOS>MOLECULE
*****
 24 25 0 0 0
SMALL
GASTEIGER

@<TRIPOS>ATOM
      1 C          -6.5286  -17.4775   22.5264 C.ar    1  UNL1        0.0874
      2 C          -5.7976  -18.4705   21.6723 C.ar    1  UNL1        0.0063
      3 C          -4.3292  -18.6980   21.8766 C.ar    1  UNL1        0.0115
      4 C          -3.5916  -17.9324   22.9349 C.ar    1  UNL1        0.1326
      5 O          -2.1231  -18.1600   23.1391 O.3     1  UNL1       -0.5057
      6 C          -4.3226  -16.9393   23.7889 C.ar    1  UNL1        0.0730
      7 C          -5.7911  -16.7119   23.5846 C.ar    1  UNL1        0.1410
      8 O          -6.5222  -15.7187   24.4387 O.3     1  UNL1       -0.5053
      9 H          -1.6665  -18.7803   22.6056 H       1  UNL1        0.2922
     10 H          -6.0615  -15.2405   25.0997 H       1  UNL1        0.2922
     11 N          -8.9680  -18.3715   22.5448 N.am    1  UNL1       -0.2536
     12 C          -7.9972  -17.2499   22.3221 C.2     1  UNL1        0.2557
     13 O          -8.4948  -15.9008   21.8953 O.2     1  UNL1       -0.2695
     14 C         -10.4365  -18.1440   22.3405 C.ar    1  UNL1        0.0733
     15 C         -11.3441  -17.9940   23.5254 C.ar    1  UNL1        0.0181
     16 C         -12.8126  -17.7665   23.3212 C.ar    1  UNL1        0.0220
     17 C         -13.3735  -17.6889   21.9322 C.ar    1  UNL1        0.0990
     18 N         -12.4659  -17.8389   20.7474 N.ar    1  UNL1       -0.2410
     19 C         -10.9974  -18.0664   20.9516 C.ar    1  UNL1        0.1137
     20 C          -9.2749  -20.5481   23.9297 C.3     1  UNL1        0.0237
     21 C          -8.4703  -19.7206   22.9716 C.3     1  UNL1        0.0986
     22 C          -3.5981  -19.6912   21.0225 C.3     1  UNL1        0.0253
     23 C          -4.3667  -20.6835   20.2012 C.3     1  UNL1        0.0048
     24 C          -2.0985  -19.6920   20.9898 C.3     1  UNL1        0.0048
@<TRIPOS>BOND
     1    20    21    1
     2    21    11    1
     3    11    12   am
     4    12    13    2
     5    12     1    1
     6     1     2   ar
     7     2     3   ar
     8     3    22    1
     9    22    23    1
    10    22    24    1
    11     3     4   ar
    12     4     5    1
    13     4     6   ar
    14     6     7   ar
    15     7     8    1
    16    11    14    1
    17    14    15   ar
    18    15    16   ar
    19    16    17   ar
    20    17    18   ar
    21    18    19   ar
    22     7     1   ar
    23    19    14   ar
    24     5     9    1
    25     8    10    1
@<TRIPOS>MOLECULE
*****
 24 25 0 0 0
SMALL
GASTEIGER

@<TRIPOS>ATOM
      1 C          -8.9788  -19.0788   22.8148 C.ar    1  UNL1        0.0874
      2 C          -9.6895  -17.9448   22.1376 C.ar    1  UNL1        0.0063
      3 C         -11.1393  -17.6896   22.4253 C.ar    1  UNL1        0.0115
      4 C         -11.8784  -18.5685   23.3903 C.ar    1  UNL1        0.1326
      5 O         -13.3284  -18.3133   23.6780 O.3     1  UNL1       -0.5057
      6 C         -11.1677  -19.7026   24.0676 C.ar    1  UNL1        0.0730
      7 C          -9.7179  -19.9577   23.7798 C.ar    1  UNL1        0.1410
      8 O          -9.0071  -21.0919   24.4571 O.3     1  UNL1       -0.5053
      9 H         -13.7723  -17.6049   23.2550 H       1  UNL1        0.2922
     10 H          -9.4688  -21.6409   25.0599 H       1  UNL1        0.2922
     11 N          -6.5605  -18.1894   22.4818 N.am    1  UNL1       -0.2536
     12 C          -7.5289  -19.3340   22.5271 C.2     1  UNL1        0.2557
     13 O          -7.0474  -20.7338   22.2847 O.2     1  UNL1       -0.2695
     14 C          -5.1106  -18.4446   22.1941 C.ar    1  UNL1        0.0733
     15 C          -4.0599  -17.9598   23.1486 C.ar    1  UNL1        0.0181
     16 C          -2.6101  -18.2150   22.8609 C.ar    1  UNL1        0.0220
     17 C          -2.2109  -18.9549   21.6187 C.ar    1  UNL1        0.0990
     18 N          -3.2615  -19.4397   20.6642 N.ar    1  UNL1       -0.2410
     19 C          -4.7114  -19.1846   20.9519 C.ar    1  UNL1        0.1137
     20 C          -6.9699  -16.1996   24.1014 C.3     1  UNL1        0.0237
     21 C          -7.0419  -16.7896   22.7242 C.3     1  UNL1        0.0986
     22 C         -11.8501  -16.5555   21.7481 C.3     1  UNL1        0.0253
     23 C         -12.5101  -15.4872   22.5685 C.3     1  UNL1        0.0048
     24 C         -11.9010  -16.4897   20.2504 C.3     1  UNL1        0.0048
@<TRIPOS>BOND
     1    20    21    1
     2    21    11    1
     3    11    12   am
     4    12    13    2
     5    12     1    1
     6     1     2   ar
     7     2     3   ar
     8     3    22    1
     9    22    23    1
    10    22    24    1
    11     3     4   ar
    12     4     5    1
    13     4     6   ar
    14     6     7   ar
    15     7     8    1
    16    11    14    1
    17    14    15   ar
    18    15    16   ar
    19    16    17   ar
    20    17    18   ar
    21    18    19   ar
    22     7     1   ar
    23    19    14   ar
    24     5     9    1
    25     8    10    1
@<TRIPOS>MOLECULE
*****
 24 25 0 0 0
SMALL
GASTEIGER

@<TRIPOS>ATOM
      1 C         -15.4699   -6.8445   18.7323 C.ar    1  UNL1        0.0874
      2 C         -16.6172   -5.8790   18.7673 C.ar    1  UNL1        0.0063
      3 C         -17.9169   -6.2812   19.3991 C.ar    1  UNL1        0.0115
      4 C         -18.0691   -7.6489   19.9958 C.ar    1  UNL1        0.1326
      5 O         -19.3689   -8.0511   20.6276 O.3     1  UNL1       -0.5057
      6 C         -16.9218   -8.6144   19.9608 C.ar    1  UNL1        0.0730
      7 C         -15.6222   -8.2123   19.3291 C.ar    1  UNL1        0.1410
      8 O         -14.4747   -9.1778   19.2941 O.3     1  UNL1       -0.5053
      9 H         -20.0856   -7.4479   20.6495 H       1  UNL1        0.2922
     10 H         -14.5699  -10.0322   19.6668 H       1  UNL1        0.2922
     11 N         -13.2112   -5.5660   18.8504 N.am    1  UNL1       -0.2536
     12 C         -14.1702   -6.4424   18.1006 C.2     1  UNL1        0.2557
     13 O         -13.8294   -6.9167   16.7189 O.2     1  UNL1       -0.2695
     14 C         -11.9115   -5.1638   18.2187 C.ar    1  UNL1        0.0733
     15 C         -10.6741   -5.9742   18.4678 C.ar    1  UNL1        0.0181
     16 C          -9.3744   -5.5721   17.8361 C.ar    1  UNL1        0.0220
     17 C          -9.3122   -4.3596   16.9552 C.ar    1  UNL1        0.0990
     18 N         -10.5496   -3.5492   16.7061 N.ar    1  UNL1       -0.2410
     19 C         -11.8493   -3.9513   17.3378 C.ar    1  UNL1        0.1137
     20 C         -13.7263   -3.6261   20.5002 C.3     1  UNL1        0.0237
     21 C         -13.5520   -5.0917   20.2321 C.3     1  UNL1        0.0986
     22 C         -19.0643   -5.3156   19.4341 C.3     1  UNL1        0.0253
     23 C         -20.3734   -5.6832   18.8007 C.3     1  UNL1        0.0048
     24 C         -18.9026   -3.9825   20.1025 C.3     1  UNL1        0.0048
@<TRIPOS>BOND
     1    20    21    1
     2    21    11    1
     3    11    12   am
     4    12    13    2
     5    12     1    1
     6     1     2   ar
     7     2     3   ar
     8     3    22    1
     9    22    23    1
    10    22    24    1
    11     3     4   ar
    12     4     5    1
    13     4     6   ar
    14     6     7   ar
    15     7     8    1
    16    11    14    1
    17    14    15   ar
    18    15    16   ar
    19    16    17   ar
    20    17    18   ar
    21    18    19   ar
    22     7     1   ar
    23    19    14   ar
    24     5     9    1
    25     8    10    1
@<TRIPOS>MOLECULE
*****
 24 25 0 0 0
SMALL
GASTEIGER

@<TRIPOS>ATOM
      1 C           2.0792   -0.2897   20.0223 C.ar    1  UNL1        0.0874
      2 C           2.6732   -1.6258   20.3567 C.ar    1  UNL1        0.0063
      3 C           3.6411   -2.2739   19.4116 C.ar    1  UNL1        0.0115
      4 C           4.0150   -1.5859   18.1322 C.ar    1  UNL1        0.1326
      5 O           4.9829   -2.2341   17.1872 O.3     1  UNL1       -0.5057
      6 C           3.4209   -0.2498   17.7979 C.ar    1  UNL1        0.0730
      7 C           2.4530    0.3983   18.7429 C.ar    1  UNL1        0.1410
      8 O           1.8590    1.7345   18.4085 O.3     1  UNL1       -0.5053
      9 H           5.3540   -3.0687   17.3961 H       1  UNL1        0.2922
     10 H           2.0925    2.1643   17.6093 H       1  UNL1        0.2922
     11 N           1.6197    1.1640   22.1260 N.am    1  UNL1       -0.2536
     12 C           1.1113    0.3585   20.9673 C.2     1  UNL1        0.2557
     13 O          -0.3651    0.2011   20.7536 O.2     1  UNL1       -0.2695
     14 C           0.6517    1.8122   23.0711 C.ar    1  UNL1        0.0733
     15 C           0.4429    1.2384   24.4412 C.ar    1  UNL1        0.0181
     16 C          -0.5249    1.8865   25.3862 C.ar    1  UNL1        0.0220
     17 C          -1.2840    3.1084   24.9611 C.ar    1  UNL1        0.0990
     18 N          -1.0753    3.6822   23.5910 N.ar    1  UNL1       -0.2410
     19 C          -0.1074    3.0340   22.6460 C.ar    1  UNL1        0.1137
     20 C           3.8208    0.3997   23.2754 C.3     1  UNL1        0.0237
     21 C           3.0960    1.3214   22.3398 C.3     1  UNL1        0.0986
     22 C           4.2352   -3.6101   19.7460 C.3     1  UNL1        0.0253
     23 C           5.5663   -3.6883   20.4330 C.3     1  UNL1        0.0048
     24 C           3.4982   -4.8680   19.3933 C.3     1  UNL1        0.0048
@<TRIPOS>BOND
     1    20    21    1
     2    21    11    1
     3    11    12   am
     4    12    13    2
     5    12     1    1
     6     1     2   ar
     7     2     3   ar
     8     3    22    1
     9    22    23    1
    10    22    24    1
    11     3     4   ar
    12     4     5    1
    13     4     6   ar
    14     6     7   ar
    15     7     8    1
    16    11    14    1
    17    14    15   ar
    18    15    16   ar
    19    16    17   ar
    20    17    18   ar
    21    18    19   ar
    22     7     1   ar
    23    19    14   ar
    24     5     9    1
    25     8    10    1
@<TRIPOS>MOLECULE
*****
 24 25 0 0 0
SMALL
GASTEIGER

@<TRIPOS>ATOM
      1 C         -12.8168   -6.1842   18.1353 C.ar    1  UNL1        0.0874
      2 C         -13.0971   -4.7115   18.1846 C.ar    1  UNL1        0.0063
      3 C         -12.0100   -3.7538   18.5730 C.ar    1  UNL1        0.0115
      4 C         -10.6426   -4.2687   18.9123 C.ar    1  UNL1        0.1326
      5 O          -9.5556   -3.3109   19.3007 O.3     1  UNL1       -0.5057
      6 C         -10.3623   -5.7414   18.8631 C.ar    1  UNL1        0.0730
      7 C         -11.4494   -6.6992   18.4746 C.ar    1  UNL1        0.1410
      8 O         -11.1691   -8.1720   18.4254 O.3     1  UNL1       -0.5053
      9 H          -9.7307   -2.3909   19.3315 H       1  UNL1        0.2922
     10 H         -10.3149   -8.4937   18.6373 H       1  UNL1        0.2922
     11 N         -15.1740   -7.1979   18.5428 N.am    1  UNL1       -0.2536
     12 C         -13.9039   -7.1421   17.7469 C.2     1  UNL1        0.2557
     13 O         -13.7207   -8.0441   16.5624 O.2     1  UNL1       -0.2695
     14 C         -16.2611   -8.1558   18.1543 C.ar    1  UNL1        0.0733
     15 C         -16.3448   -9.5017   18.8112 C.ar    1  UNL1        0.0181
     16 C         -17.4318  -10.4595   18.4228 C.ar    1  UNL1        0.0220
     17 C         -18.4351  -10.0715   17.3775 C.ar    1  UNL1        0.0990
     18 N         -18.3514   -8.7256   16.7206 N.ar    1  UNL1       -0.2410
     19 C         -17.2644   -7.7677   17.1090 C.ar    1  UNL1        0.1137
     20 C         -16.3974   -5.2158   19.6936 C.3     1  UNL1        0.0237
     21 C         -15.3571   -6.2960   19.7272 C.3     1  UNL1        0.0986
     22 C         -12.2903   -2.2810   18.6222 C.3     1  UNL1        0.0253
     23 C         -11.3817   -1.3205   17.9138 C.3     1  UNL1        0.0048
     24 C         -13.4792   -1.7687   19.3799 C.3     1  UNL1        0.0048
@<TRIPOS>BOND
     1    20    21    1
     2    21    11    1
     3    11    12   am
     4    12    13    2
     5    12     1    1
     6     1     2   ar
     7     2     3   ar
     8     3    22    1
     9    22    23    1
    10    22    24    1
    11     3     4   ar
    12     4     5    1
    13     4     6   ar
    14     6     7   ar
    15     7     8    1
    16    11    14    1
    17    14    15   ar
    18    15    16   ar
    19    16    17   ar
    20    17    18   ar
    21    18    19   ar
    22     7     1   ar
    23    19    14   ar
    24     5     9    1
    25     8    10    1
@<TRIPOS>MOLECULE
*****
 24 25 0 0 0
SMALL
GASTEIGER

@<TRIPOS>ATOM
      1 C           2.2829   -0.6985   20.9099 C.ar    1  UNL1        0.0874
      2 C           2.8039   -1.6504   19.8744 C.ar    1  UNL1        0.0063
      3 C           3.8454   -2.6645   20.2443 C.ar    1  UNL1        0.0115
      4 C           4.3659   -2.7267   21.6497 C.ar    1  UNL1        0.1326
      5 O           5.4074   -3.7409   22.0196 O.3     1  UNL1       -0.5057
      6 C           3.8449   -1.7747   22.6852 C.ar    1  UNL1        0.0730
      7 C           2.8034   -0.7607   22.3153 C.ar    1  UNL1        0.1410
      8 O           2.2823    0.1914   23.3508 O.3     1  UNL1       -0.5053
      9 H           5.7329   -4.3355   21.3728 H       1  UNL1        0.2922
     10 H           2.6074    0.1525   24.2288 H       1  UNL1        0.2922
     11 N           1.6552    1.6601   20.0193 N.am    1  UNL1       -0.2536
     12 C           1.2414    0.3157   20.5400 C.2     1  UNL1        0.2557
     13 O          -0.2140   -0.0147   20.6908 O.2     1  UNL1       -0.2695
     14 C           0.6137    2.6743   19.6494 C.ar    1  UNL1        0.0733
     15 C           0.1637    2.8016   18.2242 C.ar    1  UNL1        0.0181
     16 C          -0.8778    3.8157   17.8542 C.ar    1  UNL1        0.0220
     17 C          -1.4692    4.7025   18.9096 C.ar    1  UNL1        0.0990
     18 N          -1.0192    4.5752   20.3348 N.ar    1  UNL1       -0.2410
     19 C           0.0222    3.5611   20.7047 C.ar    1  UNL1        0.1137
     20 C           3.7966    1.7732   18.5523 C.3     1  UNL1        0.0237
     21 C           3.1106    1.9905   19.8685 C.3     1  UNL1        0.0986
     22 C           4.3665   -3.6165   19.2088 C.3     1  UNL1        0.0253
     23 C           5.4111   -3.1640   18.2320 C.3     1  UNL1        0.0048
     24 C           3.8429   -5.0209   19.1500 C.3     1  UNL1        0.0048
@<TRIPOS>BOND
     1    20    21    1
     2    21    11    1
     3    11    12   am
     4    12    13    2
     5    12     1    1
     6     1     2   ar
     7     2     3   ar
     8     3    22    1
     9    22    23    1
    10    22    24    1
    11     3     4   ar
    12     4     5    1
    13     4     6   ar
    14     6     7   ar
    15     7     8    1
    16    11    14    1
    17    14    15   ar
    18    15    16   ar
    19    16    17   ar
    20    17    18   ar
    21    18    19   ar
    22     7     1   ar
    23    19    14   ar
    24     5     9    1
    25     8    10    1
