@<TRIPOS>MOLECULE
*****
 34 37 0 0 0
SMALL
GASTEIGER

@<TRIPOS>ATOM
      1 N           4.5515    1.0069   28.2754 N.am    1  UNL1       -0.2533
      2 C           4.3642    0.0864   27.1060 C.2     1  UNL1        0.3092
      3 O           3.5975   -1.1920   27.2731 O.2     1  UNL1       -0.2521
      4 N           4.9435    0.4442   25.7694 N.am    1  UNL1       -0.2680
      5 H           5.0547    1.8459   28.1656 H       1  UNL1        0.1578
      6 H           5.4467    1.2832   25.6597 H       1  UNL1        0.1564
      7 C           4.7561   -0.4764   24.6001 C.ar    1  UNL1        0.0517
      8 C           3.4763   -0.4450   23.8183 C.ar    1  UNL1        0.0163
      9 C           3.2889   -1.3656   22.6490 C.ar    1  UNL1        0.0205
     10 C           4.3813   -2.3176   22.2613 C.ar    1  UNL1        0.0859
     11 C           5.6611   -2.3490   23.0431 C.ar    1  UNL1        0.0205
     12 C           5.8485   -1.4284   24.2124 C.ar    1  UNL1        0.0163
     13 N           4.1939   -3.2382   21.0920 N.ar    1  UNL1       -0.1952
     14 N           4.3033   -4.7339   21.1210 N.ar    1  UNL1       -0.0388
     15 N           4.0412   -5.2448   19.7352 N.ar    1  UNL1       -0.0227
     16 N           3.7699   -4.0648   18.8498 N.ar    1  UNL1       -0.1123
     17 C           3.8642   -2.8246   19.6883 C.ar    1  UNL1        0.1658
     18 C           3.6641   -1.4179   19.2075 C.3     1  UNL1        0.0758
     19 N           2.5378    0.8055   30.0216 N.ar    1  UNL1       -0.2162
     20 N           2.4048    0.3252   31.4363 N.ar    1  UNL1       -0.1683
     21 C           3.7570   -0.1281   31.9011 C.ar    1  UNL1        0.0810
     22 C           4.7258    0.0721   30.7735 C.ar    1  UNL1        0.0509
     23 C           3.9723    0.6491   29.6119 C.ar    1  UNL1        0.1380
     24 C          -1.8905    2.9721   26.6015 C.3     1  UNL1        0.0310
     25 C          -0.7834    2.4305   27.4565 C.ar    1  UNL1       -0.0218
     26 C           0.3316    3.3310   27.8991 C.ar    1  UNL1       -0.0027
     27 C           1.4386    2.7893   28.7541 C.ar    1  UNL1        0.0189
     28 C           1.4307    1.3472   29.1665 C.ar    1  UNL1        0.0842
     29 C           0.3157    0.4467   28.7240 C.ar    1  UNL1        0.0189
     30 C          -0.7913    0.9884   27.8690 C.ar    1  UNL1       -0.0027
     31 C           4.0832   -0.6840   33.2555 C.3     1  UNL1        0.0372
     32 C           3.8555    0.6676   33.8650 C.3     1  UNL1        0.0060
     33 C           4.3108   -2.0355   32.6460 C.3     1  UNL1        0.0060
     34 C           4.4093   -1.2398   34.6100 C.3     1  UNL1        0.0060
@<TRIPOS>BOND
     1    24    25    1
     2    25    26   ar
     3    26    27   ar
     4    27    28   ar
     5    28    19    1
     6    19    20   ar
     7    20    21   ar
     8    21    31    1
     9    31    32    1
    10    31    33    1
    11    31    34    1
    12    21    22   ar
    13    22    23   ar
    14    23     1    1
    15     1     2   am
    16     2     3    2
    17     2     4   am
    18     4     7    1
    19     7     8   ar
    20     8     9   ar
    21     9    10   ar
    22    10    13    1
    23    13    14   ar
    24    14    15   ar
    25    15    16   ar
    26    16    17   ar
    27    17    18    1
    28    10    11   ar
    29    11    12   ar
    30    28    29   ar
    31    29    30   ar
    32    30    25   ar
    33    23    19   ar
    34    12     7   ar
    35    17    13   ar
    36     1     5    1
    37     4     6    1
@<TRIPOS>MOLECULE
*****
 34 37 0 0 0
SMALL
GASTEIGER

@<TRIPOS>ATOM
      1 N           3.5815    0.6350   21.9362 N.am    1  UNL1       -0.2533
      2 C           2.2569    1.0907   22.4723 C.2     1  UNL1        0.3092
      3 O           0.9853    0.6042   21.8425 O.2     1  UNL1       -0.2521
      4 N           2.2035    2.0329   23.6382 N.am    1  UNL1       -0.2680
      5 H           4.4160    0.9543   22.3496 H       1  UNL1        0.1578
      6 H           3.0380    2.3523   24.0516 H       1  UNL1        0.1564
      7 C           0.8788    2.4886   24.1743 C.ar    1  UNL1        0.0517
      8 C           0.2358    1.7509   25.3111 C.ar    1  UNL1        0.0163
      9 C          -1.0889    2.2066   25.8471 C.ar    1  UNL1        0.0205
     10 C          -1.7708    3.4000   25.2465 C.ar    1  UNL1        0.0859
     11 C          -1.1278    4.1377   24.1097 C.ar    1  UNL1        0.0205
     12 C           0.1970    3.6821   23.5736 C.ar    1  UNL1        0.0163
     13 N          -3.0955    3.8557   25.7825 N.ar    1  UNL1       -0.1952
     14 N          -3.3258    4.5442   27.0951 N.ar    1  UNL1       -0.0388
     15 N          -4.7952    4.8169   27.2239 N.ar    1  UNL1       -0.0227
     16 N          -5.4730    4.2970   25.9910 N.ar    1  UNL1       -0.1123
     17 C          -4.4225    3.7029   25.1001 C.ar    1  UNL1        0.1658
     18 C          -4.6577    3.0676   23.7618 C.3     1  UNL1        0.0758
     19 N           3.1682   -0.0117   19.3758 N.ar    1  UNL1       -0.2162
     20 N           3.4092   -1.2323   18.5379 N.ar    1  UNL1       -0.1683
     21 C           4.0247   -2.2823   19.4146 C.ar    1  UNL1        0.0810
     22 C           4.1642   -1.7106   20.7944 C.ar    1  UNL1        0.0509
     23 C           3.6348   -0.3073   20.7703 C.ar    1  UNL1        0.1380
     24 C           0.7606    5.1473   17.4815 C.3     1  UNL1        0.0310
     25 C           1.3625    3.8575   17.9551 C.ar    1  UNL1       -0.0218
     26 C           0.4967    2.6451   18.1290 C.ar    1  UNL1       -0.0027
     27 C           1.0986    1.3554   18.6026 C.ar    1  UNL1        0.0189
     28 C           2.5663    1.2781   18.9022 C.ar    1  UNL1        0.0842
     29 C           3.4321    2.4905   18.7282 C.ar    1  UNL1        0.0189
     30 C           2.8302    3.7802   18.2546 C.ar    1  UNL1       -0.0027
     31 C           4.4297   -3.6618   18.9867 C.3     1  UNL1        0.0372
     32 C           3.0460   -4.1597   19.2826 C.3     1  UNL1        0.0060
     33 C           5.8133   -3.1638   18.6909 C.3     1  UNL1        0.0060
     34 C           4.8346   -5.0412   18.5588 C.3     1  UNL1        0.0060
@<TRIPOS>BOND
     1    24    25    1
     2    25    26   ar
     3    26    27   ar
     4    27    28   ar
     5    28    19    1
     6    19    20   ar
     7    20    21   ar
     8    21    31    1
     9    31    32    1
    10    31    33    1
    11    31    34    1
    12    21    22   ar
    13    22    23   ar
    14    23     1    1
    15     1     2   am
    16     2     3    2
    17     2     4   am
    18     4     7    1
    19     7     8   ar
    20     8     9   ar
    21     9    10   ar
    22    10    13    1
    23    13    14   ar
    24    14    15   ar
    25    15    16   ar
    26    16    17   ar
    27    17    18    1
    28    10    11   ar
    29    11    12   ar
    30    28    29   ar
    31    29    30   ar
    32    30    25   ar
    33    23    19   ar
    34    12     7   ar
    35    17    13   ar
    36     1     5    1
    37     4     6    1
@<TRIPOS>MOLECULE
*****
 34 37 0 0 0
SMALL
GASTEIGER

@<TRIPOS>ATOM
      1 N          -0.2023    4.2557   22.8600 N.am    1  UNL1       -0.2533
      2 C           0.5589    3.1932   22.1241 C.2     1  UNL1        0.3092
      3 O          -0.0819    1.8648   21.8503 O.2     1  UNL1       -0.2521
      4 N           1.9609    3.4589   21.6618 N.am    1  UNL1       -0.2680
      5 H           0.2183    5.1275   23.0396 H       1  UNL1        0.1578
      6 H           2.3816    4.3307   21.8415 H       1  UNL1        0.1564
      7 C           2.7221    2.3964   20.9259 C.ar    1  UNL1        0.0517
      8 C           2.5201    2.2147   19.4507 C.ar    1  UNL1        0.0163
      9 C           3.2813    1.1522   18.7147 C.ar    1  UNL1        0.0205
     10 C           4.2444    0.2713   19.4539 C.ar    1  UNL1        0.0859
     11 C           4.4464    0.4530   20.9291 C.ar    1  UNL1        0.0205
     12 C           3.6852    1.5155   21.6650 C.ar    1  UNL1        0.0163
     13 N           5.0056   -0.7913   18.7179 N.ar    1  UNL1       -0.1952
     14 N           6.2399   -0.5798   17.8923 N.ar    1  UNL1       -0.0388
     15 N           6.6632   -1.9097   17.3425 N.ar    1  UNL1       -0.0227
     16 N           5.6905   -2.9430   17.8283 N.ar    1  UNL1       -0.1123
     17 C           4.6660   -2.2518   18.6784 C.ar    1  UNL1        0.1658
     18 C           3.5057   -2.9062   19.3679 C.3     1  UNL1        0.0758
     19 N          -1.9989    3.3659   24.6279 N.ar    1  UNL1       -0.2162
     20 N          -3.4964    3.2919   24.6725 N.ar    1  UNL1       -0.1683
     21 C          -4.0274    3.8702   23.3944 C.ar    1  UNL1        0.0810
     22 C          -2.8580    4.3016   22.5598 C.ar    1  UNL1        0.0509
     23 C          -1.6043    3.9899   23.3222 C.ar    1  UNL1        0.1380
     24 C           1.7540    1.4942   28.9189 C.3     1  UNL1        0.0310
     25 C           0.8158    1.9621   27.8462 C.ar    1  UNL1       -0.0218
     26 C           0.6568    1.1619   26.5875 C.ar    1  UNL1       -0.0027
     27 C          -0.2814    1.6299   25.5147 C.ar    1  UNL1        0.0189
     28 C          -1.0607    2.8980   25.7007 C.ar    1  UNL1        0.0842
     29 C          -0.9017    3.6982   26.9594 C.ar    1  UNL1        0.0189
     30 C           0.0365    3.2302   28.0321 C.ar    1  UNL1       -0.0027
     31 C          -5.4737    3.9952   23.0171 C.3     1  UNL1        0.0372
     32 C          -5.8182    4.3112   24.4423 C.3     1  UNL1        0.0060
     33 C          -5.1292    3.6791   21.5918 C.3     1  UNL1        0.0060
     34 C          -6.9201    4.1201   22.6397 C.3     1  UNL1        0.0060
@<TRIPOS>BOND
     1    24    25    1
     2    25    26   ar
     3    26    27   ar
     4    27    28   ar
     5    28    19    1
     6    19    20   ar
     7    20    21   ar
     8    21    31    1
     9    31    32    1
    10    31    33    1
    11    31    34    1
    12    21    22   ar
    13    22    23   ar
    14    23     1    1
    15     1     2   am
    16     2     3    2
    17     2     4   am
    18     4     7    1
    19     7     8   ar
    20     8     9   ar
    21     9    10   ar
    22    10    13    1
    23    13    14   ar
    24    14    15   ar
    25    15    16   ar
    26    16    17   ar
    27    17    18    1
    28    10    11   ar
    29    11    12   ar
    30    28    29   ar
    31    29    30   ar
    32    30    25   ar
    33    23    19   ar
    34    12     7   ar
    35    17    13   ar
    36     1     5    1
    37     4     6    1
@<TRIPOS>MOLECULE
*****
 34 37 0 0 0
SMALL
GASTEIGER

@<TRIPOS>ATOM
      1 N          -0.5551    3.7829   20.7686 N.am    1  UNL1       -0.2533
      2 C           0.0838    2.4365   20.5989 C.2     1  UNL1        0.3092
      3 O          -0.7679    1.2025   20.5539 O.2     1  UNL1       -0.2521
      4 N           1.5743    2.3239   20.4742 N.am    1  UNL1       -0.2680
      5 H           0.0039    4.5928   20.7981 H       1  UNL1        0.1578
      6 H           2.1334    3.1338   20.5037 H       1  UNL1        0.1564
      7 C           2.2132    0.9774   20.3045 C.ar    1  UNL1        0.0517
      8 C           2.5885    0.4925   18.9355 C.ar    1  UNL1        0.0163
      9 C           3.2274   -0.8540   18.7658 C.ar    1  UNL1        0.0205
     10 C           3.4909   -1.7156   19.9650 C.ar    1  UNL1        0.0859
     11 C           3.1156   -1.2307   21.3339 C.ar    1  UNL1        0.0205
     12 C           2.4767    0.1158   21.5036 C.ar    1  UNL1        0.0163
     13 N           4.1298   -3.0621   19.7953 N.ar    1  UNL1       -0.1952
     14 N           3.4995   -4.2624   19.1534 N.ar    1  UNL1       -0.0388
     15 N           4.4913   -5.3869   19.1991 N.ar    1  UNL1       -0.0227
     16 N           5.7344   -4.8815   19.8692 N.ar    1  UNL1       -0.1123
     17 C           5.5110   -3.4447   20.2377 C.ar    1  UNL1        0.1658
     18 C           6.4959   -2.5479   20.9275 C.3     1  UNL1        0.0758
     19 N          -2.8083    4.1408   22.1615 N.ar    1  UNL1       -0.2162
     20 N          -4.2692    4.1795   21.8237 N.ar    1  UNL1       -0.1683
     21 C          -4.4095    3.9580   20.3468 C.ar    1  UNL1        0.0810
     22 C          -3.0353    3.7825   19.7718 C.ar    1  UNL1        0.0509
     23 C          -2.0457    3.8955   20.8933 C.ar    1  UNL1        0.1380
     24 C          -0.4321    4.8440   27.6259 C.3     1  UNL1        0.0310
     25 C          -1.0261    4.6682   26.2598 C.ar    1  UNL1       -0.0218
     26 C          -1.8750    3.4685   25.9598 C.ar    1  UNL1       -0.0027
     27 C          -2.4690    3.2927   24.5937 C.ar    1  UNL1        0.0189
     28 C          -2.2142    4.3166   23.5276 C.ar    1  UNL1        0.0842
     29 C          -1.3654    5.5163   23.8276 C.ar    1  UNL1        0.0189
     30 C          -0.7713    5.6921   25.1937 C.ar    1  UNL1       -0.0027
     31 C          -5.6979    3.9190   19.5796 C.3     1  UNL1        0.0372
     32 C          -6.4498    4.2902   20.8233 C.3     1  UNL1        0.0060
     33 C          -4.9460    3.5477   18.3359 C.3     1  UNL1        0.0060
     34 C          -6.9863    3.8799   18.8124 C.3     1  UNL1        0.0060
@<TRIPOS>BOND
     1    24    25    1
     2    25    26   ar
     3    26    27   ar
     4    27    28   ar
     5    28    19    1
     6    19    20   ar
     7    20    21   ar
     8    21    31    1
     9    31    32    1
    10    31    33    1
    11    31    34    1
    12    21    22   ar
    13    22    23   ar
    14    23     1    1
    15     1     2   am
    16     2     3    2
    17     2     4   am
    18     4     7    1
    19     7     8   ar
    20     8     9   ar
    21     9    10   ar
    22    10    13    1
    23    13    14   ar
    24    14    15   ar
    25    15    16   ar
    26    16    17   ar
    27    17    18    1
    28    10    11   ar
    29    11    12   ar
    30    28    29   ar
    31    29    30   ar
    32    30    25   ar
    33    23    19   ar
    34    12     7   ar
    35    17    13   ar
    36     1     5    1
    37     4     6    1
@<TRIPOS>MOLECULE
*****
 34 37 0 0 0
SMALL
GASTEIGER

@<TRIPOS>ATOM
      1 N           2.7385    1.1694   20.2635 N.am    1  UNL1       -0.2533
      2 C           1.2850    1.4877   20.0742 C.2     1  UNL1        0.3092
      3 O           0.2676    0.3854   20.0897 O.2     1  UNL1       -0.2521
      4 N           0.8486    2.9081   19.8694 N.am    1  UNL1       -0.2680
      5 H           3.4061    1.8929   20.2534 H       1  UNL1        0.1578
      6 H           1.5163    3.6316   19.8592 H       1  UNL1        0.1564
      7 C          -0.6050    3.2263   19.6801 C.ar    1  UNL1        0.0517
      8 C          -1.0996    3.7108   18.3494 C.ar    1  UNL1        0.0163
      9 C          -2.5531    4.0289   18.1601 C.ar    1  UNL1        0.0205
     10 C          -3.5122    3.8627   19.3014 C.ar    1  UNL1        0.0859
     11 C          -3.0176    3.3782   20.6320 C.ar    1  UNL1        0.0205
     12 C          -1.5640    3.0601   20.8213 C.ar    1  UNL1        0.0163
     13 N          -4.9657    4.1809   19.1120 N.ar    1  UNL1       -0.1952
     14 N          -6.0055    3.2552   18.5534 N.ar    1  UNL1       -0.0388
     15 N          -7.3171    3.9828   18.5442 N.ar    1  UNL1       -0.0227
     16 N          -7.0881    5.3582   19.0972 N.ar    1  UNL1       -0.1123
     17 C          -5.6348    5.4807   19.4481 C.ar    1  UNL1        0.1658
     18 C          -4.9677    6.6904   20.0325 C.3     1  UNL1        0.0758
     19 N           3.3299   -0.9439   21.7897 N.ar    1  UNL1       -0.2162
     20 N           3.7836   -2.3491   21.5257 N.ar    1  UNL1       -0.1683
     21 C           3.9090   -2.5246   20.0413 C.ar    1  UNL1        0.0810
     22 C           3.5327   -1.2279   19.3878 C.ar    1  UNL1        0.0509
     23 C           3.1748   -0.2510   20.4684 C.ar    1  UNL1        0.1380
     24 C           2.3135    1.4795   27.1836 C.3     1  UNL1        0.0310
     25 C           2.5676    0.8737   25.8351 C.ar    1  UNL1       -0.0218
     26 C           3.8557    0.1532   25.5672 C.ar    1  UNL1       -0.0027
     27 C           4.1097   -0.4527   24.2187 C.ar    1  UNL1        0.0189
     28 C           3.0758   -0.3381   23.1381 C.ar    1  UNL1        0.0842
     29 C           1.7878    0.3824   23.4060 C.ar    1  UNL1        0.0189
     30 C           1.5337    0.9883   24.7545 C.ar    1  UNL1       -0.0027
     31 C           4.3357   -3.7769   19.3345 C.3     1  UNL1        0.0372
     32 C           3.6932   -4.6025   20.4094 C.3     1  UNL1        0.0060
     33 C           4.9782   -2.9513   18.2595 C.3     1  UNL1        0.0060
     34 C           4.7624   -5.0293   18.6277 C.3     1  UNL1        0.0060
@<TRIPOS>BOND
     1    24    25    1
     2    25    26   ar
     3    26    27   ar
     4    27    28   ar
     5    28    19    1
     6    19    20   ar
     7    20    21   ar
     8    21    31    1
     9    31    32    1
    10    31    33    1
    11    31    34    1
    12    21    22   ar
    13    22    23   ar
    14    23     1    1
    15     1     2   am
    16     2     3    2
    17     2     4   am
    18     4     7    1
    19     7     8   ar
    20     8     9   ar
    21     9    10   ar
    22    10    13    1
    23    13    14   ar
    24    14    15   ar
    25    15    16   ar
    26    16    17   ar
    27    17    18    1
    28    10    11   ar
    29    11    12   ar
    30    28    29   ar
    31    29    30   ar
    32    30    25   ar
    33    23    19   ar
    34    12     7   ar
    35    17    13   ar
    36     1     5    1
    37     4     6    1
@<TRIPOS>MOLECULE
*****
 34 37 0 0 0
SMALL
GASTEIGER

@<TRIPOS>ATOM
      1 N           3.3371    2.3991   21.1056 N.am    1  UNL1       -0.2533
      2 C           3.1429    1.8779   22.4986 C.2     1  UNL1        0.3092
      3 O           1.8031    1.3535   22.9232 O.2     1  UNL1       -0.2521
      4 N           4.2883    1.8809   23.4671 N.am    1  UNL1       -0.2680
      5 H           4.2164    2.7433   20.8270 H       1  UNL1        0.1578
      6 H           5.1676    2.2250   23.1884 H       1  UNL1        0.1564
      7 C           4.0940    1.3596   24.8601 C.ar    1  UNL1        0.0517
      8 C           3.9437    2.3169   26.0050 C.ar    1  UNL1        0.0163
      9 C           3.7494    1.7956   27.3980 C.ar    1  UNL1        0.0205
     10 C           3.7054    0.3170   27.6462 C.ar    1  UNL1        0.0859
     11 C           3.8557   -0.6404   26.5012 C.ar    1  UNL1        0.0205
     12 C           4.0500   -0.1191   25.1082 C.ar    1  UNL1        0.0163
     13 N           3.5111   -0.2043   29.0392 N.ar    1  UNL1       -0.1952
     14 N           4.5991   -0.6141   29.9870 N.ar    1  UNL1       -0.0388
     15 N           3.9551   -1.0704   31.2625 N.ar    1  UNL1       -0.0227
     16 N           2.4691   -0.9426   31.1031 N.ar    1  UNL1       -0.1123
     17 C           2.1947   -0.4073   29.7289 C.ar    1  UNL1        0.1658
     18 C           0.8414   -0.1247   29.1468 C.3     1  UNL1        0.0758
     19 N           1.8568    1.2986   19.1710 N.ar    1  UNL1       -0.2162
     20 N           0.6382    1.7144   18.4015 N.ar    1  UNL1       -0.1683
     21 C           0.2199    3.0688   18.8920 C.ar    1  UNL1        0.0810
     22 C           1.1800    3.4901   19.9647 C.ar    1  UNL1        0.0509
     23 C           2.1917    2.3961   20.1371 C.ar    1  UNL1        0.1380
     24 C           4.8639   -3.8501   18.5020 C.3     1  UNL1        0.0310
     25 C           4.1121   -2.5629   18.6692 C.ar    1  UNL1       -0.0218
     26 C           4.2632   -1.4688   17.6543 C.ar    1  UNL1       -0.0027
     27 C           3.5114   -0.1816   17.8216 C.ar    1  UNL1        0.0189
     28 C           2.6086    0.0114   19.0037 C.ar    1  UNL1        0.0842
     29 C           2.4575   -1.0827   20.0186 C.ar    1  UNL1        0.0189
     30 C           3.2093   -2.3699   19.8514 C.ar    1  UNL1       -0.0027
     31 C          -0.9526    3.8625   18.3968 C.3     1  UNL1        0.0372
     32 C          -0.2143    4.1600   17.1255 C.3     1  UNL1        0.0060
     33 C          -1.6910    3.5649   19.6682 C.3     1  UNL1        0.0060
     34 C          -2.1252    4.6561   17.9016 C.3     1  UNL1        0.0060
@<TRIPOS>BOND
     1    24    25    1
     2    25    26   ar
     3    26    27   ar
     4    27    28   ar
     5    28    19    1
     6    19    20   ar
     7    20    21   ar
     8    21    31    1
     9    31    32    1
    10    31    33    1
    11    31    34    1
    12    21    22   ar
    13    22    23   ar
    14    23     1    1
    15     1     2   am
    16     2     3    2
    17     2     4   am
    18     4     7    1
    19     7     8   ar
    20     8     9   ar
    21     9    10   ar
    22    10    13    1
    23    13    14   ar
    24    14    15   ar
    25    15    16   ar
    26    16    17   ar
    27    17    18    1
    28    10    11   ar
    29    11    12   ar
    30    28    29   ar
    31    29    30   ar
    32    30    25   ar
    33    23    19   ar
    34    12     7   ar
    35    17    13   ar
    36     1     5    1
    37     4     6    1
@<TRIPOS>MOLECULE
*****
 34 37 0 0 0
SMALL
GASTEIGER

@<TRIPOS>ATOM
      1 N           4.4858    0.4056   21.9680 N.am    1  UNL1       -0.2533
      2 C           3.8307    0.5082   23.3134 C.2     1  UNL1        0.3092
      3 O           2.7971   -0.4987   23.7232 O.2     1  UNL1       -0.2521
      4 N           4.2090    1.6178   24.2491 N.am    1  UNL1       -0.2680
      5 H           5.1641    1.0664   21.6991 H       1  UNL1        0.1578
      6 H           4.8874    2.2787   23.9803 H       1  UNL1        0.1564
      7 C           3.5539    1.7205   25.5946 C.ar    1  UNL1        0.0517
      8 C           2.3909    2.6466   25.7938 C.ar    1  UNL1        0.0163
      9 C           1.7357    2.7493   27.1392 C.ar    1  UNL1        0.0205
     10 C           2.2435    1.9258   28.2855 C.ar    1  UNL1        0.0859
     11 C           3.4065    0.9996   28.0863 C.ar    1  UNL1        0.0205
     12 C           4.0617    0.8970   26.7409 C.ar    1  UNL1        0.0163
     13 N           1.5883    2.0284   29.6309 N.ar    1  UNL1       -0.1952
     14 N           2.1332    2.7568   30.8237 N.ar    1  UNL1       -0.0388
     15 N           1.1549    2.5993   31.9497 N.ar    1  UNL1       -0.0227
     16 N           0.0054    1.7735   31.4530 N.ar    1  UNL1       -0.1123
     17 C           0.2733    1.4207   30.0198 C.ar    1  UNL1        0.1658
     18 C          -0.6175    0.6036   29.1316 C.3     1  UNL1        0.0758
     19 N           2.9439   -0.7008   20.0855 N.ar    1  UNL1       -0.2162
     20 N           2.9436   -2.0064   19.3471 N.ar    1  UNL1       -0.1683
     21 C           4.1068   -2.8166   19.8374 C.ar    1  UNL1        0.0810
     22 C           4.8261   -2.0117   20.8789 C.ar    1  UNL1        0.0509
     23 C           4.1074   -0.7040   21.0322 C.ar    1  UNL1        0.1380
     24 C          -1.0138    3.7528   19.3768 C.3     1  UNL1        0.0310
     25 C          -0.0244    2.6394   19.5540 C.ar    1  UNL1       -0.0218
     26 C           1.0867    2.4586   18.5627 C.ar    1  UNL1       -0.0027
     27 C           2.0761    1.3452   18.7399 C.ar    1  UNL1        0.0189
     28 C           1.9545    0.4126   19.9083 C.ar    1  UNL1        0.0842
     29 C           0.8434    0.5934   20.8996 C.ar    1  UNL1        0.0189
     30 C          -0.1461    1.7068   20.7225 C.ar    1  UNL1       -0.0027
     31 C           4.4845   -4.1905   19.3686 C.3     1  UNL1        0.0372
     32 C           3.0553   -4.4575   18.9997 C.3     1  UNL1        0.0060
     33 C           5.9137   -3.9235   19.7374 C.3     1  UNL1        0.0060
     34 C           4.8621   -5.5644   18.8997 C.3     1  UNL1        0.0060
@<TRIPOS>BOND
     1    24    25    1
     2    25    26   ar
     3    26    27   ar
     4    27    28   ar
     5    28    19    1
     6    19    20   ar
     7    20    21   ar
     8    21    31    1
     9    31    32    1
    10    31    33    1
    11    31    34    1
    12    21    22   ar
    13    22    23   ar
    14    23     1    1
    15     1     2   am
    16     2     3    2
    17     2     4   am
    18     4     7    1
    19     7     8   ar
    20     8     9   ar
    21     9    10   ar
    22    10    13    1
    23    13    14   ar
    24    14    15   ar
    25    15    16   ar
    26    16    17   ar
    27    17    18    1
    28    10    11   ar
    29    11    12   ar
    30    28    29   ar
    31    29    30   ar
    32    30    25   ar
    33    23    19   ar
    34    12     7   ar
    35    17    13   ar
    36     1     5    1
    37     4     6    1
@<TRIPOS>MOLECULE
*****
 34 37 0 0 0
SMALL
GASTEIGER

@<TRIPOS>ATOM
      1 N           5.4170    0.6320   30.0158 N.am    1  UNL1       -0.2533
      2 C           4.8387    0.6572   31.3995 C.2     1  UNL1        0.3092
      3 O           4.2125   -0.5793   31.9733 O.2     1  UNL1       -0.2521
      4 N           4.8864    1.9187   32.2096 N.am    1  UNL1       -0.2680
      5 H           5.8280    1.4435   29.6393 H       1  UNL1        0.1578
      6 H           5.2973    2.7302   31.8331 H       1  UNL1        0.1564
      7 C           4.3080    1.9438   33.5934 C.ar    1  UNL1        0.0517
      8 C           5.0931    1.3887   34.7446 C.ar    1  UNL1        0.0163
      9 C           4.5147    1.4138   36.1284 C.ar    1  UNL1        0.0205
     10 C           3.1511    1.9940   36.3610 C.ar    1  UNL1        0.0859
     11 C           2.3660    2.5491   35.2097 C.ar    1  UNL1        0.0205
     12 C           2.9444    2.5240   33.8259 C.ar    1  UNL1        0.0163
     13 N           2.5727    2.0191   37.7447 N.ar    1  UNL1       -0.1952
     14 N           1.6984    0.9636   38.3541 N.ar    1  UNL1       -0.0388
     15 N           1.3524    1.3962   39.7480 N.ar    1  UNL1       -0.0227
     16 N           2.0129    2.7192   40.0001 N.ar    1  UNL1       -0.1123
     17 C           2.7671    3.1041   38.7620 C.ar    1  UNL1        0.1658
     18 C           3.5740    4.3546   38.5741 C.3     1  UNL1        0.0758
     19 N           4.2264   -1.0830   28.3466 N.ar    1  UNL1       -0.2162
     20 N           4.6069   -2.3928   27.7225 N.ar    1  UNL1       -0.1683
     21 C           5.9850   -2.7489   28.1959 C.ar    1  UNL1        0.0810
     22 C           6.4562   -1.6591   29.1126 C.ar    1  UNL1        0.0509
     23 C           5.3693   -0.6296   29.2058 C.ar    1  UNL1        0.1380
     24 C          -0.9572    1.8309   27.5471 C.3     1  UNL1        0.0310
     25 C           0.3387    1.1024   27.7470 C.ar    1  UNL1       -0.0218
     26 C           0.5661    0.3058   28.9974 C.ar    1  UNL1       -0.0027
     27 C           1.8620   -0.4227   29.1973 C.ar    1  UNL1        0.0189
     28 C           2.9305   -0.3545   28.1468 C.ar    1  UNL1        0.0842
     29 C           2.7031    0.4421   26.8963 C.ar    1  UNL1        0.0189
     30 C           1.4071    1.1706   26.6964 C.ar    1  UNL1       -0.0027
     31 C           6.7564   -3.9788   27.8188 C.3     1  UNL1        0.0372
     32 C           6.8556   -4.3604   29.2660 C.3     1  UNL1        0.0060
     33 C           6.6573   -3.5972   26.3715 C.3     1  UNL1        0.0060
     34 C           7.5278   -5.2087   27.4417 C.3     1  UNL1        0.0060
@<TRIPOS>BOND
     1    24    25    1
     2    25    26   ar
     3    26    27   ar
     4    27    28   ar
     5    28    19    1
     6    19    20   ar
     7    20    21   ar
     8    21    31    1
     9    31    32    1
    10    31    33    1
    11    31    34    1
    12    21    22   ar
    13    22    23   ar
    14    23     1    1
    15     1     2   am
    16     2     3    2
    17     2     4   am
    18     4     7    1
    19     7     8   ar
    20     8     9   ar
    21     9    10   ar
    22    10    13    1
    23    13    14   ar
    24    14    15   ar
    25    15    16   ar
    26    16    17   ar
    27    17    18    1
    28    10    11   ar
    29    11    12   ar
    30    28    29   ar
    31    29    30   ar
    32    30    25   ar
    33    23    19   ar
    34    12     7   ar
    35    17    13   ar
    36     1     5    1
    37     4     6    1
@<TRIPOS>MOLECULE
*****
 34 37 0 0 0
SMALL
GASTEIGER

@<TRIPOS>ATOM
      1 N           6.7578    0.8251   21.0043 N.am    1  UNL1       -0.2533
      2 C           5.8474    0.7463   22.1938 C.2     1  UNL1        0.3092
      3 O           4.4166    1.1805   22.0733 O.2     1  UNL1       -0.2521
      4 N           6.3677    0.2335   23.5039 N.am    1  UNL1       -0.2680
      5 H           7.6968    0.5402   21.0835 H       1  UNL1        0.1578
      6 H           7.3067   -0.0515   23.5830 H       1  UNL1        0.1564
      7 C           5.4572    0.1547   24.6934 C.ar    1  UNL1        0.0517
      8 C           5.2450    1.3629   25.5567 C.ar    1  UNL1        0.0163
      9 C           4.3346    1.2842   26.7462 C.ar    1  UNL1        0.0205
     10 C           3.6363   -0.0027   27.0724 C.ar    1  UNL1        0.0859
     11 C           3.8485   -1.2108   26.2090 C.ar    1  UNL1        0.0205
     12 C           4.7590   -1.1321   25.0196 C.ar    1  UNL1        0.0163
     13 N           2.7259   -0.0814   28.2619 N.ar    1  UNL1       -0.1952
     14 N           3.0678   -0.6754   29.5961 N.ar    1  UNL1       -0.0388
     15 N           1.8669   -0.5410   30.4848 N.ar    1  UNL1       -0.0227
     16 N           0.7827    0.1359   29.6998 N.ar    1  UNL1       -0.1123
     17 C           1.3136    0.4200   28.3259 C.ar    1  UNL1        0.1658
     18 C           0.5639    1.0882   27.2117 C.3     1  UNL1        0.0758
     19 N           5.3936    0.5711   18.7197 N.ar    1  UNL1       -0.2162
     20 N           5.1044    1.4670   17.5519 N.ar    1  UNL1       -0.1683
     21 C           5.7695    2.7875   17.8047 C.ar    1  UNL1        0.0810
     22 C           6.4699    2.7077   19.1288 C.ar    1  UNL1        0.0509
     23 C           6.2375    1.3380   19.6943 C.ar    1  UNL1        0.1380
     24 C           3.5062   -5.0862   19.3773 C.3     1  UNL1        0.0310
     25 C           3.9780   -3.6719   19.2129 C.ar    1  UNL1       -0.0218
     26 C           5.2482   -3.3868   18.4678 C.ar    1  UNL1       -0.0027
     27 C           5.7201   -1.9725   18.3034 C.ar    1  UNL1        0.0189
     28 C           4.9217   -0.8432   18.8841 C.ar    1  UNL1        0.0842
     29 C           3.6515   -1.1282   19.6292 C.ar    1  UNL1        0.0189
     30 C           3.1796   -2.5426   19.7936 C.ar    1  UNL1       -0.0027
     31 C           5.7396    3.9785   16.8934 C.3     1  UNL1        0.0372
     32 C           4.4131    4.3828   17.4653 C.3     1  UNL1        0.0060
     33 C           7.0661    3.5743   16.3215 C.3     1  UNL1        0.0060
     34 C           5.7097    5.1696   15.9821 C.3     1  UNL1        0.0060
@<TRIPOS>BOND
     1    24    25    1
     2    25    26   ar
     3    26    27   ar
     4    27    28   ar
     5    28    19    1
     6    19    20   ar
     7    20    21   ar
     8    21    31    1
     9    31    32    1
    10    31    33    1
    11    31    34    1
    12    21    22   ar
    13    22    23   ar
    14    23     1    1
    15     1     2   am
    16     2     3    2
    17     2     4   am
    18     4     7    1
    19     7     8   ar
    20     8     9   ar
    21     9    10   ar
    22    10    13    1
    23    13    14   ar
    24    14    15   ar
    25    15    16   ar
    26    16    17   ar
    27    17    18    1
    28    10    11   ar
    29    11    12   ar
    30    28    29   ar
    31    29    30   ar
    32    30    25   ar
    33    23    19   ar
    34    12     7   ar
    35    17    13   ar
    36     1     5    1
    37     4     6    1
