@<TRIPOS>MOLECULE
*****
 36 38 0 0 0
SMALL
GASTEIGER

@<TRIPOS>ATOM
      1 C          -6.6167  -19.0067   21.8089 C.ar    1  UNL1       -0.0078
      2 C          -6.3890  -19.9213   20.6420 C.ar    1  UNL1       -0.0033
      3 C          -5.0149  -20.0635   20.0575 C.ar    1  UNL1       -0.0042
      4 C          -3.8685  -19.2910   20.6399 C.ar    1  UNL1       -0.0166
      5 C          -4.0962  -18.3764   21.8067 C.ar    1  UNL1       -0.0042
      6 C          -5.4703  -18.2342   22.3912 C.ar    1  UNL1       -0.0030
      7 C          -5.6980  -17.3195   23.5581 C.ar    1  UNL1       -0.0003
      8 C          -4.8133  -17.4103   24.7660 C.ar    1  UNL1       -0.0001
      9 C          -5.0410  -16.4957   25.9328 C.ar    1  UNL1        0.0039
     10 C          -6.1535  -15.4903   25.8918 C.ar    1  UNL1        0.0714
     11 C          -7.0382  -15.3995   24.6839 C.ar    1  UNL1        0.0039
     12 C          -6.8104  -16.3142   23.5170 C.ar    1  UNL1       -0.0001
     13 C          -6.3812  -14.5756   27.0587 C.3     1  UNL1        0.4186
     14 F          -6.6089  -13.6610   28.2255 F       1  UNL1       -0.1659
     15 F          -7.6621  -15.2914   27.3697 F       1  UNL1       -0.1659
     16 F          -5.1002  -13.8599   26.7476 F       1  UNL1       -0.1659
     17 C          -7.9908  -18.8645   22.3934 C.3     1  UNL1        0.0801
     18 N          -9.0356  -18.0689   21.6685 N.3     1  UNL1       -0.2703
     19 C          -9.2847  -16.6386   22.0454 C.3     1  UNL1        0.0726
     20 C         -10.3295  -15.8430   21.3204 C.3     1  UNL1        0.0259
     21 C         -11.1251  -16.4778   20.2186 C.3     1  UNL1        0.0979
     22 C         -10.8760  -17.9082   19.8417 C.3     1  UNL1        0.0259
     23 C          -9.8312  -18.7038   20.5666 C.3     1  UNL1        0.0726
     24 C         -12.1699  -15.6822   19.4937 C.3     1  UNL1        0.3976
     25 F         -13.2146  -14.8867   18.7687 F       1  UNL1       -0.1701
     26 F         -13.2137  -16.1846   20.4466 F       1  UNL1       -0.1701
     27 F         -11.1261  -15.1798   18.5407 F       1  UNL1       -0.1701
     28 C          -8.3201  -19.5178   23.7029 C.3     1  UNL1        0.0205
     29 C          -9.3010  -18.2668   25.1075 C.3     1  UNL1        0.0001
     30 C          -9.7120  -19.4309   24.2554 C.3     1  UNL1        0.0016
     31 C         -10.1229  -20.5949   23.4033 C.3     1  UNL1        0.0001
     32 C         -11.1038  -19.3439   24.8079 C.3     1  UNL1        0.0001
     33 C          -2.4944  -19.4333   20.0553 C.3     1  UNL1        0.0679
     34 C          -1.8773  -18.2913   19.3036 C.2     1  UNL1        0.0547
     35 O          -0.3994  -18.2731   19.0480 O.co2   1  UNL1       -0.5488
     36 O          -2.7382  -17.1675   18.8074 O.co2   1  UNL1       -0.5488
@<TRIPOS>UNITY_ATOM_ATTR
35 1
charge -1
@<TRIPOS>BOND
     1    29    30    1
     2    30    31    1
     3    30    32    1
     4    30    28    1
     5    28    17    1
     6    17     1    1
     7     1     2   ar
     8     2     3   ar
     9     3     4   ar
    10     4    33    1
    11    33    34    1
    12    34    35   ar
    13    34    36   ar
    14     4     5   ar
    15     5     6   ar
    16     6     7    1
    17     7     8   ar
    18     8     9   ar
    19     9    10   ar
    20    10    13    1
    21    13    14    1
    22    13    15    1
    23    13    16    1
    24    10    11   ar
    25    11    12   ar
    26    17    18    1
    27    18    19    1
    28    19    20    1
    29    20    21    1
    30    21    24    1
    31    24    25    1
    32    24    26    1
    33    24    27    1
    34    21    22    1
    35    22    23    1
    36     6     1   ar
    37    12     7   ar
    38    23    18    1
@<TRIPOS>MOLECULE
*****
 36 38 0 0 0
SMALL
GASTEIGER

@<TRIPOS>ATOM
      1 C           3.7679    1.7739   34.5136 C.ar    1  UNL1       -0.0078
      2 C           2.9902    2.7661   35.3263 C.ar    1  UNL1       -0.0033
      3 C           2.7339    2.5071   36.7814 C.ar    1  UNL1       -0.0042
      4 C           3.2553    1.2558   37.4236 C.ar    1  UNL1       -0.0166
      5 C           4.0330    0.2636   36.6108 C.ar    1  UNL1       -0.0042
      6 C           4.2893    0.5226   35.1558 C.ar    1  UNL1       -0.0030
      7 C           5.0670   -0.4696   34.3430 C.ar    1  UNL1       -0.0003
      8 C           4.3757   -1.6645   33.7560 C.ar    1  UNL1       -0.0001
      9 C           5.1533   -2.6567   32.9432 C.ar    1  UNL1        0.0039
     10 C           6.6224   -2.4541   32.7173 C.ar    1  UNL1        0.0714
     11 C           7.3137   -1.2593   33.3042 C.ar    1  UNL1        0.0039
     12 C           6.5360   -0.2670   34.1170 C.ar    1  UNL1       -0.0001
     13 C           7.4000   -3.4463   31.9044 C.3     1  UNL1        0.4186
     14 F           8.1776   -4.4385   31.0916 F       1  UNL1       -0.1659
     15 F           6.1504   -3.8180   31.1627 F       1  UNL1       -0.1659
     16 F           8.6496   -3.0746   32.6462 F       1  UNL1       -0.1659
     17 C           4.0243    2.0329   33.0584 C.3     1  UNL1        0.0801
     18 N           3.0313    1.5795   32.0297 N.3     1  UNL1       -0.2703
     19 C           3.3517    0.4149   31.1402 C.3     1  UNL1        0.0726
     20 C           2.3587   -0.0385   30.1114 C.3     1  UNL1        0.0259
     21 C           1.0454    0.6725   29.9721 C.3     1  UNL1        0.0979
     22 C           0.7250    1.8372   30.8616 C.3     1  UNL1        0.0259
     23 C           1.7179    2.2906   31.8903 C.3     1  UNL1        0.0726
     24 C           0.0524    0.2191   28.9433 C.3     1  UNL1        0.3976
     25 F          -0.9405   -0.2344   27.9145 F       1  UNL1       -0.1701
     26 F          -1.0681    0.7311   29.7991 F       1  UNL1       -0.1701
     27 F           1.1729   -0.2929   28.0875 F       1  UNL1       -0.1701
     28 C           5.2735    2.7454   32.6322 C.3     1  UNL1        0.0205
     29 C           6.7499    3.4177   33.9991 C.3     1  UNL1        0.0001
     30 C           5.6287    4.0680   33.2443 C.3     1  UNL1        0.0016
     31 C           4.5074    4.7183   32.4895 C.3     1  UNL1        0.0001
     32 C           5.9837    5.3906   33.8563 C.3     1  UNL1        0.0001
     33 C           2.9990    0.9968   38.8787 C.3     1  UNL1        0.0679
     34 C           1.5994    0.7591   39.3630 C.2     1  UNL1        0.0547
     35 O           0.6715    1.9187   39.5736 O.co2   1  UNL1       -0.5488
     36 O           1.1276   -0.6383   39.6367 O.co2   1  UNL1       -0.5488
@<TRIPOS>UNITY_ATOM_ATTR
35 1
charge -1
@<TRIPOS>BOND
     1    29    30    1
     2    30    31    1
     3    30    32    1
     4    30    28    1
     5    28    17    1
     6    17     1    1
     7     1     2   ar
     8     2     3   ar
     9     3     4   ar
    10     4    33    1
    11    33    34    1
    12    34    35   ar
    13    34    36   ar
    14     4     5   ar
    15     5     6   ar
    16     6     7    1
    17     7     8   ar
    18     8     9   ar
    19     9    10   ar
    20    10    13    1
    21    13    14    1
    22    13    15    1
    23    13    16    1
    24    10    11   ar
    25    11    12   ar
    26    17    18    1
    27    18    19    1
    28    19    20    1
    29    20    21    1
    30    21    24    1
    31    24    25    1
    32    24    26    1
    33    24    27    1
    34    21    22    1
    35    22    23    1
    36     6     1   ar
    37    12     7   ar
    38    23    18    1
@<TRIPOS>MOLECULE
*****
 36 38 0 0 0
SMALL
GASTEIGER

@<TRIPOS>ATOM
      1 C           2.7302    2.6484   19.8474 C.ar    1  UNL1       -0.0078
      2 C           2.1592    4.0330   19.9291 C.ar    1  UNL1       -0.0033
      3 C           0.9192    4.3795   19.1594 C.ar    1  UNL1       -0.0042
      4 C           0.2503    3.3414   18.3080 C.ar    1  UNL1       -0.0166
      5 C           0.8214    1.9568   18.2263 C.ar    1  UNL1       -0.0042
      6 C           2.0613    1.6103   18.9960 C.ar    1  UNL1       -0.0030
      7 C           2.6324    0.2256   18.9143 C.ar    1  UNL1       -0.0003
      8 C           2.3796   -0.7564   20.0196 C.ar    1  UNL1       -0.0001
      9 C           2.9506   -2.1410   19.9380 C.ar    1  UNL1        0.0039
     10 C           3.7746   -2.5437   18.7509 C.ar    1  UNL1        0.0714
     11 C           4.0274   -1.5617   17.6456 C.ar    1  UNL1        0.0039
     12 C           3.4563   -0.1771   17.7273 C.ar    1  UNL1       -0.0001
     13 C           4.3456   -3.9283   18.6693 C.3     1  UNL1        0.4186
     14 F           4.9167   -5.3129   18.5876 F       1  UNL1       -0.1659
     15 F           2.9889   -4.5043   18.9475 F       1  UNL1       -0.1659
     16 F           5.7024   -3.3523   18.3911 F       1  UNL1       -0.1659
     17 C           3.9702    2.3018   20.6171 C.3     1  UNL1        0.0801
     18 N           3.8697    1.4931   21.8764 N.3     1  UNL1       -0.2703
     19 C           4.9981    0.5912   22.2805 C.3     1  UNL1        0.0726
     20 C           4.8976   -0.2175   23.5398 C.3     1  UNL1        0.0259
     21 C           3.6688   -0.1243   24.3950 C.3     1  UNL1        0.0979
     22 C           2.5404    0.7776   23.9909 C.3     1  UNL1        0.0259
     23 C           2.6409    1.5863   22.7316 C.3     1  UNL1        0.0726
     24 C           3.5684   -0.9331   25.6543 C.3     1  UNL1        0.3976
     25 F           3.4679   -1.7418   26.9136 F       1  UNL1       -0.1701
     26 F           4.2523   -2.0805   24.9720 F       1  UNL1       -0.1701
     27 F           2.8845    0.2144   26.3367 F       1  UNL1       -0.1701
     28 C           5.3106    2.7640   20.1274 C.3     1  UNL1        0.0205
     29 C           5.2536    3.7690   18.2601 C.3     1  UNL1        0.0001
     30 C           5.7534    2.4359   18.7323 C.3     1  UNL1        0.0016
     31 C           6.2532    1.1028   19.2045 C.3     1  UNL1        0.0001
     32 C           6.1963    2.1078   17.3373 C.3     1  UNL1        0.0001
     33 C          -0.9897    3.6879   17.5383 C.3     1  UNL1        0.0679
     34 C          -2.2482    4.0528   18.2684 C.2     1  UNL1        0.0547
     35 O          -2.4544    3.5960   19.6821 O.co2   1  UNL1       -0.5488
     36 O          -3.3004    4.8747   17.5847 O.co2   1  UNL1       -0.5488
@<TRIPOS>UNITY_ATOM_ATTR
35 1
charge -1
@<TRIPOS>BOND
     1    29    30    1
     2    30    31    1
     3    30    32    1
     4    30    28    1
     5    28    17    1
     6    17     1    1
     7     1     2   ar
     8     2     3   ar
     9     3     4   ar
    10     4    33    1
    11    33    34    1
    12    34    35   ar
    13    34    36   ar
    14     4     5   ar
    15     5     6   ar
    16     6     7    1
    17     7     8   ar
    18     8     9   ar
    19     9    10   ar
    20    10    13    1
    21    13    14    1
    22    13    15    1
    23    13    16    1
    24    10    11   ar
    25    11    12   ar
    26    17    18    1
    27    18    19    1
    28    19    20    1
    29    20    21    1
    30    21    24    1
    31    24    25    1
    32    24    26    1
    33    24    27    1
    34    21    22    1
    35    22    23    1
    36     6     1   ar
    37    12     7   ar
    38    23    18    1
@<TRIPOS>MOLECULE
*****
 36 38 0 0 0
SMALL
GASTEIGER

@<TRIPOS>ATOM
      1 C           3.7816    1.8136   34.3441 C.ar    1  UNL1       -0.0078
      2 C           2.9879    2.8215   35.1213 C.ar    1  UNL1       -0.0033
      3 C           2.6927    2.5858   36.5729 C.ar    1  UNL1       -0.0042
      4 C           3.1912    1.3422   37.2474 C.ar    1  UNL1       -0.0166
      5 C           3.9850    0.3342   36.4702 C.ar    1  UNL1       -0.0042
      6 C           4.2802    0.5699   35.0186 C.ar    1  UNL1       -0.0030
      7 C           5.0739   -0.4380   34.2413 C.ar    1  UNL1       -0.0003
      8 C           4.3818   -1.6026   33.5973 C.ar    1  UNL1       -0.0001
      9 C           5.1755   -2.6105   32.8201 C.ar    1  UNL1        0.0039
     10 C           6.6614   -2.4539   32.6868 C.ar    1  UNL1        0.0714
     11 C           7.3535   -1.2893   33.3308 C.ar    1  UNL1        0.0039
     12 C           6.5597   -0.2813   34.1081 C.ar    1  UNL1       -0.0001
     13 C           7.4551   -3.4618   31.9096 C.3     1  UNL1        0.4186
     14 F           8.2487   -4.4697   31.1324 F       1  UNL1       -0.1659
     15 F           6.5377   -4.5497   32.3836 F       1  UNL1       -0.1659
     16 F           8.3725   -2.3738   31.4356 F       1  UNL1       -0.1659
     17 C           4.0769    2.0492   32.8924 C.3     1  UNL1        0.0801
     18 N           3.0341    1.7493   31.8567 N.3     1  UNL1       -0.2703
     19 C           3.0308    0.4219   31.1583 C.3     1  UNL1        0.0726
     20 C           1.9881    0.1219   30.1225 C.3     1  UNL1        0.0259
     21 C           0.9486    1.1494   29.7853 C.3     1  UNL1        0.0979
     22 C           0.9519    2.4769   30.4838 C.3     1  UNL1        0.0259
     23 C           1.9946    2.7768   31.5195 C.3     1  UNL1        0.0726
     24 C          -0.0941    0.8494   28.7496 C.3     1  UNL1        0.3976
     25 F          -1.1369    0.5495   27.7139 F       1  UNL1       -0.1701
     26 F          -0.2608    2.3177   28.4921 F       1  UNL1       -0.1701
     27 F           0.0725   -0.6189   29.0070 F       1  UNL1       -0.1701
     28 C           5.4148    2.5848   32.4765 C.3     1  UNL1        0.0205
     29 C           5.1361    4.2183   31.1520 C.3     1  UNL1        0.0001
     30 C           5.7043    2.8358   31.0262 C.3     1  UNL1        0.0016
     31 C           6.2726    1.4534   30.9005 C.3     1  UNL1        0.0001
     32 C           5.9939    3.0867   29.5760 C.3     1  UNL1        0.0001
     33 C           2.8960    1.1065   38.6991 C.3     1  UNL1        0.0679
     34 C           1.4955    0.7987   39.1393 C.2     1  UNL1        0.0547
     35 O           1.1576   -0.5641   39.6670 O.co2   1  UNL1       -0.5488
     36 O           0.4328    1.8538   39.0517 O.co2   1  UNL1       -0.5488
@<TRIPOS>UNITY_ATOM_ATTR
35 1
charge -1
@<TRIPOS>BOND
     1    29    30    1
     2    30    31    1
     3    30    32    1
     4    30    28    1
     5    28    17    1
     6    17     1    1
     7     1     2   ar
     8     2     3   ar
     9     3     4   ar
    10     4    33    1
    11    33    34    1
    12    34    35   ar
    13    34    36   ar
    14     4     5   ar
    15     5     6   ar
    16     6     7    1
    17     7     8   ar
    18     8     9   ar
    19     9    10   ar
    20    10    13    1
    21    13    14    1
    22    13    15    1
    23    13    16    1
    24    10    11   ar
    25    11    12   ar
    26    17    18    1
    27    18    19    1
    28    19    20    1
    29    20    21    1
    30    21    24    1
    31    24    25    1
    32    24    26    1
    33    24    27    1
    34    21    22    1
    35    22    23    1
    36     6     1   ar
    37    12     7   ar
    38    23    18    1
@<TRIPOS>MOLECULE
*****
 36 38 0 0 0
SMALL
GASTEIGER

@<TRIPOS>ATOM
      1 C           2.7068    0.9495   24.3299 C.ar    1  UNL1       -0.0078
      2 C           3.0586    0.5508   25.7325 C.ar    1  UNL1       -0.0033
      3 C           2.0206    0.6155   26.8133 C.ar    1  UNL1       -0.0042
      4 C           0.6308    1.0789   26.4916 C.ar    1  UNL1       -0.0166
      5 C           0.2789    1.4776   25.0891 C.ar    1  UNL1       -0.0042
      6 C           1.3169    1.4129   24.0082 C.ar    1  UNL1       -0.0030
      7 C           0.9651    1.8117   22.6056 C.ar    1  UNL1       -0.0003
      8 C           1.1268    3.2374   22.1683 C.ar    1  UNL1       -0.0001
      9 C           0.7750    3.6361   20.7657 C.ar    1  UNL1        0.0039
     10 C           0.2615    2.6092   19.8004 C.ar    1  UNL1        0.0714
     11 C           0.0997    1.1835   20.2377 C.ar    1  UNL1        0.0039
     12 C           0.4516    0.7848   21.6404 C.ar    1  UNL1       -0.0001
     13 C          -0.0903    3.0080   18.3979 C.3     1  UNL1        0.4186
     14 F          -0.4421    3.4068   16.9953 F       1  UNL1       -0.1659
     15 F          -0.6269    4.3141   18.9038 F       1  UNL1       -0.1659
     16 F           0.4463    1.7019   17.8919 F       1  UNL1       -0.1659
     17 C           3.7448    0.8848   23.2490 C.3     1  UNL1        0.0801
     18 N           3.8722   -0.3482   22.4043 N.3     1  UNL1       -0.2703
     19 C           3.7143   -0.2570   20.9155 C.3     1  UNL1        0.0726
     20 C           3.8417   -1.4900   20.0708 C.3     1  UNL1        0.0259
     21 C           4.1270   -2.8142   20.7150 C.3     1  UNL1        0.0979
     22 C           4.2850   -2.9055   22.2040 C.3     1  UNL1        0.0259
     23 C           4.1576   -1.6724   23.0486 C.3     1  UNL1        0.0726
     24 C           4.2544   -4.0473   19.8704 C.3     1  UNL1        0.3976
     25 F           4.3818   -5.2803   19.0257 F       1  UNL1       -0.1701
     26 F           2.8927   -3.7935   19.2946 F       1  UNL1       -0.1701
     27 F           5.6161   -4.3010   20.4461 F       1  UNL1       -0.1701
     28 C           4.6554    2.0531   23.0127 C.3     1  UNL1        0.0205
     29 C           6.3100    1.4976   24.2185 C.3     1  UNL1        0.0001
     30 C           5.3869    2.6786   24.1633 C.3     1  UNL1        0.0016
     31 C           4.4639    3.8596   24.1081 C.3     1  UNL1        0.0001
     32 C           6.1184    3.3041   25.3138 C.3     1  UNL1        0.0001
     33 C          -0.4073    1.1436   27.5725 C.3     1  UNL1        0.0679
     34 C          -0.4698    0.0694   28.6176 C.2     1  UNL1        0.0547
     35 O          -1.5859   -0.9326   28.5974 O.co2   1  UNL1       -0.5488
     36 O           0.5838   -0.0030   29.6828 O.co2   1  UNL1       -0.5488
@<TRIPOS>UNITY_ATOM_ATTR
35 1
charge -1
@<TRIPOS>BOND
     1    29    30    1
     2    30    31    1
     3    30    32    1
     4    30    28    1
     5    28    17    1
     6    17     1    1
     7     1     2   ar
     8     2     3   ar
     9     3     4   ar
    10     4    33    1
    11    33    34    1
    12    34    35   ar
    13    34    36   ar
    14     4     5   ar
    15     5     6   ar
    16     6     7    1
    17     7     8   ar
    18     8     9   ar
    19     9    10   ar
    20    10    13    1
    21    13    14    1
    22    13    15    1
    23    13    16    1
    24    10    11   ar
    25    11    12   ar
    26    17    18    1
    27    18    19    1
    28    19    20    1
    29    20    21    1
    30    21    24    1
    31    24    25    1
    32    24    26    1
    33    24    27    1
    34    21    22    1
    35    22    23    1
    36     6     1   ar
    37    12     7   ar
    38    23    18    1
@<TRIPOS>MOLECULE
*****
 36 38 0 0 0
SMALL
GASTEIGER

@<TRIPOS>ATOM
      1 C           4.2899    0.9156   23.9004 C.ar    1  UNL1       -0.0078
      2 C           4.1760    1.8605   25.0597 C.ar    1  UNL1       -0.0033
      3 C           3.7444    1.3509   26.4029 C.ar    1  UNL1       -0.0042
      4 C           3.4269   -0.1035   26.5867 C.ar    1  UNL1       -0.0166
      5 C           3.5408   -1.0484   25.4274 C.ar    1  UNL1       -0.0042
      6 C           3.9723   -0.5389   24.0842 C.ar    1  UNL1       -0.0030
      7 C           4.0862   -1.4838   22.9248 C.ar    1  UNL1       -0.0003
      8 C           3.2114   -1.3016   21.7200 C.ar    1  UNL1       -0.0001
      9 C           3.3253   -2.2464   20.5606 C.ar    1  UNL1        0.0039
     10 C           4.3141   -3.3736   20.6059 C.ar    1  UNL1        0.0714
     11 C           5.1889   -3.5558   21.8107 C.ar    1  UNL1        0.0039
     12 C           5.0750   -2.6108   22.9701 C.ar    1  UNL1       -0.0001
     13 C           4.4280   -4.3184   19.4466 C.3     1  UNL1        0.4186
     14 F           4.5419   -5.2633   18.2872 F       1  UNL1       -0.1659
     15 F           5.8897   -4.4943   19.7335 F       1  UNL1       -0.1659
     16 F           2.9663   -4.1425   19.1596 F       1  UNL1       -0.1659
     17 C           4.7214    1.4251   22.5571 C.3     1  UNL1        0.0801
     18 N           3.6946    1.7511   21.5134 N.3     1  UNL1       -0.2703
     19 C           4.0692    1.7322   20.0611 C.3     1  UNL1        0.0726
     20 C           3.0424    2.0583   19.0174 C.3     1  UNL1        0.0259
     21 C           1.6409    2.4032   19.4260 C.3     1  UNL1        0.0979
     22 C           1.2663    2.4221   20.8784 C.3     1  UNL1        0.0259
     23 C           2.2931    2.0960   21.9221 C.3     1  UNL1        0.0726
     24 C           0.6141    2.7292   18.3823 C.3     1  UNL1        0.3976
     25 F          -0.4127    3.0553   17.3386 F       1  UNL1       -0.1701
     26 F           0.5784    1.2882   17.9673 F       1  UNL1       -0.1701
     27 F           0.6498    4.1702   18.7973 F       1  UNL1       -0.1701
     28 C           6.1797    1.6085   22.2576 C.3     1  UNL1        0.0205
     29 C           6.7755   -0.0494   21.0759 C.3     1  UNL1        0.0001
     30 C           7.1324    0.4642   22.4393 C.3     1  UNL1        0.0016
     31 C           7.4893    0.9778   23.8027 C.3     1  UNL1        0.0001
     32 C           8.0851   -0.6801   22.6210 C.3     1  UNL1        0.0001
     33 C           2.9953   -0.6130   27.9300 C.3     1  UNL1        0.0679
     34 C           1.7012   -0.1472   28.5284 C.2     1  UNL1        0.0547
     35 O           1.4053   -0.4125   29.9749 O.co2   1  UNL1       -0.5488
     36 O           0.7029    0.5838   27.6805 O.co2   1  UNL1       -0.5488
@<TRIPOS>UNITY_ATOM_ATTR
35 1
charge -1
@<TRIPOS>BOND
     1    29    30    1
     2    30    31    1
     3    30    32    1
     4    30    28    1
     5    28    17    1
     6    17     1    1
     7     1     2   ar
     8     2     3   ar
     9     3     4   ar
    10     4    33    1
    11    33    34    1
    12    34    35   ar
    13    34    36   ar
    14     4     5   ar
    15     5     6   ar
    16     6     7    1
    17     7     8   ar
    18     8     9   ar
    19     9    10   ar
    20    10    13    1
    21    13    14    1
    22    13    15    1
    23    13    16    1
    24    10    11   ar
    25    11    12   ar
    26    17    18    1
    27    18    19    1
    28    19    20    1
    29    20    21    1
    30    21    24    1
    31    24    25    1
    32    24    26    1
    33    24    27    1
    34    21    22    1
    35    22    23    1
    36     6     1   ar
    37    12     7   ar
    38    23    18    1
@<TRIPOS>MOLECULE
*****
 36 38 0 0 0
SMALL
GASTEIGER

@<TRIPOS>ATOM
      1 C           3.0279    0.5188   21.5317 C.ar    1  UNL1       -0.0078
      2 C           3.9969   -0.5325   21.9852 C.ar    1  UNL1       -0.0033
      3 C           4.0914   -1.8343   21.2460 C.ar    1  UNL1       -0.0042
      4 C           3.2170   -2.0847   20.0532 C.ar    1  UNL1       -0.0166
      5 C           2.2481   -1.0333   19.5996 C.ar    1  UNL1       -0.0042
      6 C           2.1535    0.2684   20.3389 C.ar    1  UNL1       -0.0030
      7 C           1.1845    1.3198   19.8853 C.ar    1  UNL1       -0.0003
      8 C          -0.0623    1.5822   20.6769 C.ar    1  UNL1       -0.0001
      9 C          -1.0313    2.6335   20.2234 C.ar    1  UNL1        0.0039
     10 C          -0.7534    3.4226   18.9783 C.ar    1  UNL1        0.0714
     11 C           0.4934    3.1603   18.1867 C.ar    1  UNL1        0.0039
     12 C           1.4624    2.1089   18.6403 C.ar    1  UNL1       -0.0001
     13 C          -1.7224    4.4740   18.5248 C.3     1  UNL1        0.4186
     14 F          -2.6914    5.5254   18.0713 F       1  UNL1       -0.1659
     15 F          -2.8609    3.6527   19.0533 F       1  UNL1       -0.1659
     16 F          -0.5840    5.2953   17.9963 F       1  UNL1       -0.1659
     17 C           2.9333    1.8206   22.2709 C.3     1  UNL1        0.0801
     18 N           1.7966    2.0639   23.2189 N.3     1  UNL1       -0.2703
     19 C           1.1915    3.4319   23.3290 C.3     1  UNL1        0.0726
     20 C           0.0548    3.6751   24.2771 C.3     1  UNL1        0.0259
     21 C          -0.4767    2.5503   25.1151 C.3     1  UNL1        0.0979
     22 C           0.1285    1.1822   25.0050 C.3     1  UNL1        0.0259
     23 C           1.2651    0.9389   24.0569 C.3     1  UNL1        0.0726
     24 C          -1.6134    2.7935   26.0631 C.3     1  UNL1        0.3976
     25 F          -2.7501    3.0368   27.0112 F       1  UNL1       -0.1701
     26 F          -0.9864    1.8588   27.0547 F       1  UNL1       -0.1701
     27 F          -2.2404    3.7283   25.0716 F       1  UNL1       -0.1701
     28 C           3.9754    2.8791   22.0620 C.3     1  UNL1        0.0205
     29 C           3.1344    4.3064   20.7370 C.3     1  UNL1        0.0001
     30 C           4.2930    3.3558   20.6756 C.3     1  UNL1        0.0016
     31 C           5.4516    2.4051   20.6143 C.3     1  UNL1        0.0001
     32 C           4.6106    3.8324   19.2893 C.3     1  UNL1        0.0001
     33 C           3.3116   -3.3865   19.3140 C.3     1  UNL1        0.0679
     34 C           4.6449   -3.8856   18.8416 C.2     1  UNL1        0.0547
     35 O           5.1443   -5.2278   19.2877 O.co2   1  UNL1       -0.5488
     36 O           5.4789   -3.0424   17.9231 O.co2   1  UNL1       -0.5488
@<TRIPOS>UNITY_ATOM_ATTR
35 1
charge -1
@<TRIPOS>BOND
     1    29    30    1
     2    30    31    1
     3    30    32    1
     4    30    28    1
     5    28    17    1
     6    17     1    1
     7     1     2   ar
     8     2     3   ar
     9     3     4   ar
    10     4    33    1
    11    33    34    1
    12    34    35   ar
    13    34    36   ar
    14     4     5   ar
    15     5     6   ar
    16     6     7    1
    17     7     8   ar
    18     8     9   ar
    19     9    10   ar
    20    10    13    1
    21    13    14    1
    22    13    15    1
    23    13    16    1
    24    10    11   ar
    25    11    12   ar
    26    17    18    1
    27    18    19    1
    28    19    20    1
    29    20    21    1
    30    21    24    1
    31    24    25    1
    32    24    26    1
    33    24    27    1
    34    21    22    1
    35    22    23    1
    36     6     1   ar
    37    12     7   ar
    38    23    18    1
@<TRIPOS>MOLECULE
*****
 36 38 0 0 0
SMALL
GASTEIGER

@<TRIPOS>ATOM
      1 C           4.5453    0.1180   24.1810 C.ar    1  UNL1       -0.0078
      2 C           4.2918    1.1651   25.2247 C.ar    1  UNL1       -0.0033
      3 C           2.8870    1.5878   25.5372 C.ar    1  UNL1       -0.0042
      4 C           1.7356    0.9636   24.8060 C.ar    1  UNL1       -0.0166
      5 C           1.9891   -0.0835   23.7623 C.ar    1  UNL1       -0.0042
      6 C           3.3939   -0.5063   23.4498 C.ar    1  UNL1       -0.0030
      7 C           3.6475   -1.5534   22.4061 C.ar    1  UNL1       -0.0003
      8 C           3.2626   -1.2984   20.9789 C.ar    1  UNL1       -0.0001
      9 C           3.5161   -2.3454   19.9352 C.ar    1  UNL1        0.0039
     10 C           4.1546   -3.6476   20.3186 C.ar    1  UNL1        0.0714
     11 C           4.5395   -3.9026   21.7458 C.ar    1  UNL1        0.0039
     12 C           4.2859   -2.8554   22.7895 C.ar    1  UNL1       -0.0001
     13 C           4.4081   -4.6946   19.2749 C.3     1  UNL1        0.4186
     14 F           4.6616   -5.7416   18.2311 F       1  UNL1       -0.1659
     15 F           3.4093   -5.5966   19.9371 F       1  UNL1       -0.1659
     16 F           5.4069   -3.7926   18.6126 F       1  UNL1       -0.1659
     17 C           5.9502   -0.3048   23.8685 C.3     1  UNL1        0.0801
     18 N           6.5277   -1.5271   24.5186 N.3     1  UNL1       -0.2703
     19 C           7.6746   -2.2481   23.8746 C.3     1  UNL1        0.0726
     20 C           8.2521   -3.4704   24.5246 C.3     1  UNL1        0.0259
     21 C           7.6827   -3.9717   25.8186 C.3     1  UNL1        0.0979
     22 C           6.5357   -3.2507   26.4626 C.3     1  UNL1        0.0259
     23 C           5.9582   -2.0284   25.8126 C.3     1  UNL1        0.0726
     24 C           8.2602   -5.1940   26.4686 C.3     1  UNL1        0.3976
     25 F           8.8377   -6.4162   27.1187 F       1  UNL1       -0.1701
     26 F           7.6779   -4.7694   27.7842 F       1  UNL1       -0.1701
     27 F           8.8424   -5.6185   25.1531 F       1  UNL1       -0.1701
     28 C           6.7775    0.4946   22.9060 C.3     1  UNL1        0.0205
     29 C           5.7246    2.0552   21.9282 C.3     1  UNL1        0.0001
     30 C           6.2852    0.7287   21.5085 C.3     1  UNL1        0.0016
     31 C           6.8459   -0.5978   21.0889 C.3     1  UNL1        0.0001
     32 C           5.7930    0.9628   20.1111 C.3     1  UNL1        0.0001
     33 C           0.3307    1.3864   25.1185 C.3     1  UNL1        0.0679
     34 C          -0.0611    1.7005   26.5319 C.2     1  UNL1        0.0547
     35 O          -0.5240    0.6028   27.4434 O.co2   1  UNL1       -0.5488
     36 O           0.0099    3.1123   27.0338 O.co2   1  UNL1       -0.5488
@<TRIPOS>UNITY_ATOM_ATTR
35 1
charge -1
@<TRIPOS>BOND
     1    29    30    1
     2    30    31    1
     3    30    32    1
     4    30    28    1
     5    28    17    1
     6    17     1    1
     7     1     2   ar
     8     2     3   ar
     9     3     4   ar
    10     4    33    1
    11    33    34    1
    12    34    35   ar
    13    34    36   ar
    14     4     5   ar
    15     5     6   ar
    16     6     7    1
    17     7     8   ar
    18     8     9   ar
    19     9    10   ar
    20    10    13    1
    21    13    14    1
    22    13    15    1
    23    13    16    1
    24    10    11   ar
    25    11    12   ar
    26    17    18    1
    27    18    19    1
    28    19    20    1
    29    20    21    1
    30    21    24    1
    31    24    25    1
    32    24    26    1
    33    24    27    1
    34    21    22    1
    35    22    23    1
    36     6     1   ar
    37    12     7   ar
    38    23    18    1
@<TRIPOS>MOLECULE
*****
 36 38 0 0 0
SMALL
GASTEIGER

@<TRIPOS>ATOM
      1 C           3.3911   -0.1734   23.0678 C.ar    1  UNL1       -0.0078
      2 C           4.2415   -1.2088   23.7420 C.ar    1  UNL1       -0.0033
      3 C           4.6336   -2.4541   23.0035 C.ar    1  UNL1       -0.0042
      4 C           4.1752   -2.6639   21.5907 C.ar    1  UNL1       -0.0166
      5 C           3.3248   -1.6285   20.9165 C.ar    1  UNL1       -0.0042
      6 C           2.9327   -0.3832   21.6550 C.ar    1  UNL1       -0.0030
      7 C           2.0823    0.6523   20.9808 C.ar    1  UNL1       -0.0003
      8 C           0.6086    0.7071   21.2552 C.ar    1  UNL1       -0.0001
      9 C          -0.2418    1.7425   20.5810 C.ar    1  UNL1        0.0039
     10 C           0.3814    2.7233   19.6325 C.ar    1  UNL1        0.0714
     11 C           1.8551    2.6686   19.3581 C.ar    1  UNL1        0.0039
     12 C           2.7055    1.6330   20.0323 C.ar    1  UNL1       -0.0001
     13 C          -0.4691    3.7588   18.9583 C.3     1  UNL1        0.4186
     14 F          -1.3195    4.7942   18.2842 F       1  UNL1       -0.1659
     15 F           0.7021    4.1735   18.1179 F       1  UNL1       -0.1659
     16 F          -1.6402    3.3440   19.7988 F       1  UNL1       -0.1659
     17 C           2.9990    1.0720   23.8063 C.3     1  UNL1        0.0801
     18 N           2.0079    0.9971   24.9298 N.3     1  UNL1       -0.2703
     19 C           0.5524    1.2431   24.6636 C.3     1  UNL1        0.0726
     20 C          -0.4386    1.1681   25.7871 C.3     1  UNL1        0.0259
     21 C           0.0258    0.8472   27.1767 C.3     1  UNL1        0.0979
     22 C           1.4814    0.6012   27.4430 C.3     1  UNL1        0.0259
     23 C           2.4725    0.6762   26.3195 C.3     1  UNL1        0.0726
     24 C          -0.9652    0.7723   28.3002 C.3     1  UNL1        0.3976
     25 F          -1.9563    0.6974   29.4237 F       1  UNL1       -0.1701
     26 F          -1.7564    1.8835   27.6764 F       1  UNL1       -0.1701
     27 F          -0.1740   -0.3389   28.9241 F       1  UNL1       -0.1701
     28 C           3.5980    2.3922   23.4214 C.3     1  UNL1        0.0205
     29 C           4.1193    3.5054   25.1503 C.3     1  UNL1        0.0001
     30 C           3.1011    3.6558   24.0592 C.3     1  UNL1        0.0016
     31 C           2.0830    3.8062   22.9681 C.3     1  UNL1        0.0001
     32 C           2.6043    4.9192   24.6970 C.3     1  UNL1        0.0001
     33 C           4.5673   -3.9093   20.8522 C.3     1  UNL1        0.0679
     34 C           4.2277   -4.0577   19.3987 C.2     1  UNL1        0.0547
     35 O           2.9255   -4.6816   18.9926 O.co2   1  UNL1       -0.5488
     36 O           5.1903   -3.5821   18.3512 O.co2   1  UNL1       -0.5488
@<TRIPOS>UNITY_ATOM_ATTR
35 1
charge -1
@<TRIPOS>BOND
     1    29    30    1
     2    30    31    1
     3    30    32    1
     4    30    28    1
     5    28    17    1
     6    17     1    1
     7     1     2   ar
     8     2     3   ar
     9     3     4   ar
    10     4    33    1
    11    33    34    1
    12    34    35   ar
    13    34    36   ar
    14     4     5   ar
    15     5     6   ar
    16     6     7    1
    17     7     8   ar
    18     8     9   ar
    19     9    10   ar
    20    10    13    1
    21    13    14    1
    22    13    15    1
    23    13    16    1
    24    10    11   ar
    25    11    12   ar
    26    17    18    1
    27    18    19    1
    28    19    20    1
    29    20    21    1
    30    21    24    1
    31    24    25    1
    32    24    26    1
    33    24    27    1
    34    21    22    1
    35    22    23    1
    36     6     1   ar
    37    12     7   ar
    38    23    18    1
