@<TRIPOS>MOLECULE
*****
 27 30 0 0 0
SMALL
GASTEIGER

@<TRIPOS>ATOM
      1 C           3.8961   -1.8827   18.8506 C.ar    1  UNL1       -0.0065
      2 C           4.2384   -0.8426   17.8254 C.ar    1  UNL1       -0.0032
      3 C           3.4254    0.4145   17.7320 C.ar    1  UNL1       -0.0032
      4 C           2.2702    0.6316   18.6637 C.ar    1  UNL1       -0.0062
      5 C           1.9278   -0.4085   19.6889 C.ar    1  UNL1       -0.0231
      6 C           2.7408   -1.6656   19.7823 C.ar    1  UNL1       -0.0074
      7 C           0.7725   -0.1914   20.6207 C.3     1  UNL1        0.0476
      8 C          -0.0404    1.0657   20.5272 C.3     1  UNL1        0.0987
      9 N           0.3020    2.1058   19.5020 N.am    1  UNL1       -0.2705
     10 C          -0.5110    3.3629   19.4085 C.2     1  UNL1        0.2652
     11 O          -0.1687    4.4030   18.3833 O.2     1  UNL1       -0.2683
     12 C           1.4572    1.8887   18.5702 C.3     1  UNL1        0.1202
     13 C          -1.6663    3.5800   20.3403 C.ar    1  UNL1        0.1143
     14 C          -3.1191    3.5241   19.9714 C.ar    1  UNL1        0.0234
     15 C          -3.9223    3.8006   21.2077 C.ar    1  UNL1        0.0209
     16 C          -5.4010    3.8751   21.4481 C.ar    1  UNL1        0.0275
     17 C          -5.9233    4.1765   22.8217 C.ar    1  UNL1        0.1155
     18 BR         -7.4020    4.2511   23.0621 Br      1  UNL1       -0.0280
     19 N          -4.9668    4.4034   23.9546 N.ar    1  UNL1       -0.2356
     20 C          -3.4881    4.3288   23.7142 C.ar    1  UNL1        0.1165
     21 C          -2.9658    4.0274   22.3408 C.ar    1  UNL1        0.0795
     22 N          -1.5716    3.8911   21.8047 N.ar    1  UNL1       -0.3204
     23 C          -0.3049    4.0398   22.5943 C.3     1  UNL1        0.1306
     24 C           4.7090   -3.1398   18.9441 C.3     1  UNL1        0.0992
     25 C           5.0239   -3.9297   21.3990 C.3     1  UNL1        0.0899
     26 N           4.4335   -4.1317   20.0350 N.3     1  UNL1       -0.2665
     27 C           3.5676   -5.3258   19.7619 C.3     1  UNL1        0.0899
@<TRIPOS>BOND
     1    25    26    1
     2    26    27    1
     3    26    24    1
     4    24     1    1
     5     1     2   ar
     6     2     3   ar
     7     3     4   ar
     8     4     5   ar
     9     5     6   ar
    10     5     7    1
    11     7     8    1
    12     8     9    1
    13     9    10   am
    14    10    11    2
    15    10    13    1
    16    13    14   ar
    17    14    15   ar
    18    15    16   ar
    19    16    17   ar
    20    17    18    1
    21    17    19   ar
    22    19    20   ar
    23    20    21   ar
    24    21    22   ar
    25    22    23    1
    26     9    12    1
    27     6     1   ar
    28    22    13   ar
    29    12     4    1
    30    21    15   ar
@<TRIPOS>MOLECULE
*****
 27 30 0 0 0
SMALL
GASTEIGER

@<TRIPOS>ATOM
      1 C           3.9492   -1.9999   18.6708 C.ar    1  UNL1       -0.0065
      2 C           3.9839   -1.0361   17.5220 C.ar    1  UNL1       -0.0032
      3 C           3.0836    0.1637   17.5222 C.ar    1  UNL1       -0.0032
      4 C           2.1488    0.3997   18.6712 C.ar    1  UNL1       -0.0062
      5 C           2.1141   -0.5640   19.8200 C.ar    1  UNL1       -0.0231
      6 C           3.0144   -1.7639   19.8198 C.ar    1  UNL1       -0.0074
      7 C           1.1792   -0.3280   20.9691 C.3     1  UNL1        0.0476
      8 C           0.2790    0.8718   20.9693 C.3     1  UNL1        0.0987
      9 N           0.3137    1.8356   19.8204 N.am    1  UNL1       -0.2705
     10 C          -0.5866    3.0354   19.8206 C.2     1  UNL1        0.2652
     11 O          -0.5519    3.9992   18.6717 O.2     1  UNL1       -0.2683
     12 C           1.2485    1.5996   18.6714 C.3     1  UNL1        0.1202
     13 C          -1.5215    3.2714   20.9697 C.ar    1  UNL1        0.1143
     14 C          -1.1344    3.3690   22.4155 C.ar    1  UNL1        0.0234
     15 C          -2.3812    3.6091   23.2140 C.ar    1  UNL1        0.0209
     16 C          -2.6120    3.7881   24.6853 C.ar    1  UNL1        0.0275
     17 C          -4.0006    4.0179   25.2042 C.ar    1  UNL1        0.1155
     18 BR         -4.2314    4.1969   26.6755 Br      1  UNL1       -0.0280
     19 N          -5.1583    4.0688   24.2518 N.ar    1  UNL1       -0.2356
     20 C          -4.9275    3.8898   22.7805 C.ar    1  UNL1        0.1165
     21 C          -3.5390    3.6600   22.2616 C.ar    1  UNL1        0.0795
     22 N          -3.0076    3.4513   20.8745 N.ar    1  UNL1       -0.3204
     23 C          -3.8198    3.4267   19.6137 C.3     1  UNL1        0.1306
     24 C           4.8495   -3.1997   18.6706 C.3     1  UNL1        0.0992
     25 C           6.5095   -3.8486   20.5609 C.3     1  UNL1        0.0899
     26 N           6.2142   -3.1135   19.2872 N.3     1  UNL1       -0.2665
     27 C           7.2836   -2.2922   18.6300 C.3     1  UNL1        0.0899
@<TRIPOS>BOND
     1    25    26    1
     2    26    27    1
     3    26    24    1
     4    24     1    1
     5     1     2   ar
     6     2     3   ar
     7     3     4   ar
     8     4     5   ar
     9     5     6   ar
    10     5     7    1
    11     7     8    1
    12     8     9    1
    13     9    10   am
    14    10    11    2
    15    10    13    1
    16    13    14   ar
    17    14    15   ar
    18    15    16   ar
    19    16    17   ar
    20    17    18    1
    21    17    19   ar
    22    19    20   ar
    23    20    21   ar
    24    21    22   ar
    25    22    23    1
    26     9    12    1
    27     6     1   ar
    28    22    13   ar
    29    12     4    1
    30    21    15   ar
@<TRIPOS>MOLECULE
*****
 27 30 0 0 0
SMALL
GASTEIGER

@<TRIPOS>ATOM
      1 C           2.6223   -1.0178   20.0644 C.ar    1  UNL1       -0.0065
      2 C           3.4014   -1.9544   19.1894 C.ar    1  UNL1       -0.0032
      3 C           4.4237   -2.8704   19.7944 C.ar    1  UNL1       -0.0032
      4 C           4.6668   -2.8496   21.2744 C.ar    1  UNL1       -0.0062
      5 C           3.8877   -1.9130   22.1494 C.ar    1  UNL1       -0.0231
      6 C           2.8654   -0.9971   21.5444 C.ar    1  UNL1       -0.0074
      7 C           4.1308   -1.8922   23.6294 C.3     1  UNL1        0.0476
      8 C           5.1531   -2.8082   24.2345 C.3     1  UNL1        0.0987
      9 N           5.9322   -3.7448   23.3594 N.am    1  UNL1       -0.2705
     10 C           6.9545   -4.6608   23.9644 C.2     1  UNL1        0.2652
     11 O           7.7337   -5.5974   23.0894 O.2     1  UNL1       -0.2683
     12 C           5.6891   -3.7656   21.8794 C.3     1  UNL1        0.1202
     13 C           7.1977   -4.6400   25.4445 C.ar    1  UNL1        0.1143
     14 C           6.6157   -5.5919   26.4470 C.ar    1  UNL1        0.0234
     15 C           7.1238   -5.2039   27.8039 C.ar    1  UNL1        0.0209
     16 C           6.8864   -5.7818   29.1676 C.ar    1  UNL1        0.0275
     17 C           7.5450   -5.1679   30.3674 C.ar    1  UNL1        0.1155
     18 BR          7.3075   -5.7458   31.7311 Br      1  UNL1       -0.0280
     19 N           8.4409   -3.9761   30.2035 N.ar    1  UNL1       -0.2356
     20 C           8.6784   -3.3982   28.8398 C.ar    1  UNL1        0.1165
     21 C           8.0198   -4.0121   27.6400 C.ar    1  UNL1        0.0795
     22 N           8.0654   -3.6636   26.1818 N.ar    1  UNL1       -0.3204
     23 C           8.8424   -2.5366   25.5686 C.3     1  UNL1        0.1306
     24 C           1.6000   -0.1019   19.4594 C.3     1  UNL1        0.0992
     25 C           3.4504    1.6490   18.9492 C.3     1  UNL1        0.0899
     26 N           2.0005    1.2673   18.9959 N.3     1  UNL1       -0.2665
     27 C           0.9512    2.2548   18.5790 C.3     1  UNL1        0.0899
@<TRIPOS>BOND
     1    25    26    1
     2    26    27    1
     3    26    24    1
     4    24     1    1
     5     1     2   ar
     6     2     3   ar
     7     3     4   ar
     8     4     5   ar
     9     5     6   ar
    10     5     7    1
    11     7     8    1
    12     8     9    1
    13     9    10   am
    14    10    11    2
    15    10    13    1
    16    13    14   ar
    17    14    15   ar
    18    15    16   ar
    19    16    17   ar
    20    17    18    1
    21    17    19   ar
    22    19    20   ar
    23    20    21   ar
    24    21    22   ar
    25    22    23    1
    26     9    12    1
    27     6     1   ar
    28    22    13   ar
    29    12     4    1
    30    21    15   ar
@<TRIPOS>MOLECULE
*****
 27 30 0 0 0
SMALL
GASTEIGER

@<TRIPOS>ATOM
      1 C           3.9424   -2.4132   21.0966 C.ar    1  UNL1       -0.0065
      2 C           3.9605   -1.9271   22.5155 C.ar    1  UNL1       -0.0032
      3 C           3.0685   -0.7953   22.9320 C.ar    1  UNL1       -0.0032
      4 C           2.1583   -0.1498   21.9296 C.ar    1  UNL1       -0.0062
      5 C           2.1402   -0.6359   20.5107 C.ar    1  UNL1       -0.0231
      6 C           3.0323   -1.7676   20.0942 C.ar    1  UNL1       -0.0074
      7 C           1.2301    0.0097   19.5082 C.3     1  UNL1        0.0476
      8 C           0.3380    1.1414   19.9248 C.3     1  UNL1        0.0987
      9 N           0.3561    1.6275   21.3437 N.am    1  UNL1       -0.2705
     10 C          -0.5359    2.7592   21.7602 C.2     1  UNL1        0.2652
     11 O          -0.5178    3.2454   23.1791 O.2     1  UNL1       -0.2683
     12 C           1.2663    0.9819   22.3461 C.3     1  UNL1        0.1202
     13 C          -1.4461    3.4048   20.7578 C.ar    1  UNL1        0.1143
     14 C          -2.9241    3.1801   20.6357 C.ar    1  UNL1        0.0234
     15 C          -3.4295    4.0248   19.5039 C.ar    1  UNL1        0.0209
     16 C          -4.8005    4.2105   18.9244 C.ar    1  UNL1        0.0275
     17 C          -5.0058    5.1430   17.7675 C.ar    1  UNL1        0.1155
     18 BR         -6.3769    5.3287   17.1881 Br      1  UNL1       -0.0280
     19 N          -3.8402    5.8898   17.1901 N.ar    1  UNL1       -0.2356
     20 C          -2.4691    5.7041   17.7696 C.ar    1  UNL1        0.1165
     21 C          -2.2637    4.7717   18.9264 C.ar    1  UNL1        0.0795
     22 N          -1.0380    4.3885   19.7014 N.ar    1  UNL1       -0.3204
     23 C           0.3519    4.8992   19.4620 C.3     1  UNL1        0.1306
     24 C           4.8345   -3.5449   20.6801 C.3     1  UNL1        0.0992
     25 C           5.6750   -2.8806   18.3132 C.3     1  UNL1        0.0899
     26 N           5.0079   -3.8669   19.2254 N.3     1  UNL1       -0.2665
     27 C           4.5141   -5.1754   18.6828 C.3     1  UNL1        0.0899
@<TRIPOS>BOND
     1    25    26    1
     2    26    27    1
     3    26    24    1
     4    24     1    1
     5     1     2   ar
     6     2     3   ar
     7     3     4   ar
     8     4     5   ar
     9     5     6   ar
    10     5     7    1
    11     7     8    1
    12     8     9    1
    13     9    10   am
    14    10    11    2
    15    10    13    1
    16    13    14   ar
    17    14    15   ar
    18    15    16   ar
    19    16    17   ar
    20    17    18    1
    21    17    19   ar
    22    19    20   ar
    23    20    21   ar
    24    21    22   ar
    25    22    23    1
    26     9    12    1
    27     6     1   ar
    28    22    13   ar
    29    12     4    1
    30    21    15   ar
@<TRIPOS>MOLECULE
*****
 27 30 0 0 0
SMALL
GASTEIGER

@<TRIPOS>ATOM
      1 C           3.2795   -1.7080   20.2720 C.ar    1  UNL1       -0.0065
      2 C           2.2150   -0.6535   20.2009 C.ar    1  UNL1       -0.0032
      3 C           1.8037    0.0818   21.4419 C.ar    1  UNL1       -0.0032
      4 C           2.4568   -0.2373   22.7540 C.ar    1  UNL1       -0.0062
      5 C           3.5213   -1.2917   22.8251 C.ar    1  UNL1       -0.0231
      6 C           3.9326   -2.0271   21.5840 C.ar    1  UNL1       -0.0074
      7 C           4.1745   -1.6109   24.1372 C.3     1  UNL1        0.0476
      8 C           3.7631   -0.8756   25.3782 C.3     1  UNL1        0.0987
      9 N           2.6986    0.1789   25.3071 N.am    1  UNL1       -0.2705
     10 C           2.2873    0.9142   26.5481 C.2     1  UNL1        0.2652
     11 O           1.2229    1.9686   26.4771 O.2     1  UNL1       -0.2683
     12 C           2.0455    0.4980   23.9950 C.3     1  UNL1        0.1202
     13 C           2.9405    0.5951   27.8602 C.ar    1  UNL1        0.1143
     14 C           2.3757   -0.2855   28.9352 C.ar    1  UNL1        0.0234
     15 C           3.3593   -0.3243   30.0670 C.ar    1  UNL1        0.0209
     16 C           3.3386   -1.0290   31.3910 C.ar    1  UNL1        0.0275
     17 C           4.4907   -0.8771   32.3395 C.ar    1  UNL1        0.1155
     18 BR          4.4701   -1.5818   33.6635 Br      1  UNL1       -0.0280
     19 N           5.6634   -0.0204   31.9641 N.ar    1  UNL1       -0.2356
     20 C           5.6840    0.6842   30.6401 C.ar    1  UNL1        0.1165
     21 C           4.5321    0.5323   29.6915 C.ar    1  UNL1        0.0795
     22 N           4.2732    1.1005   28.3277 N.ar    1  UNL1       -0.3204
     23 C           5.1866    2.0138   27.5652 C.3     1  UNL1        0.1306
     24 C           3.6908   -2.4433   19.0310 C.3     1  UNL1        0.0992
     25 C           6.0494   -1.9345   18.0676 C.3     1  UNL1        0.0899
     26 N           4.5598   -1.7675   18.0121 N.3     1  UNL1       -0.2665
     27 C           3.9391   -0.9247   16.9375 C.3     1  UNL1        0.0899
@<TRIPOS>BOND
     1    25    26    1
     2    26    27    1
     3    26    24    1
     4    24     1    1
     5     1     2   ar
     6     2     3   ar
     7     3     4   ar
     8     4     5   ar
     9     5     6   ar
    10     5     7    1
    11     7     8    1
    12     8     9    1
    13     9    10   am
    14    10    11    2
    15    10    13    1
    16    13    14   ar
    17    14    15   ar
    18    15    16   ar
    19    16    17   ar
    20    17    18    1
    21    17    19   ar
    22    19    20   ar
    23    20    21   ar
    24    21    22   ar
    25    22    23    1
    26     9    12    1
    27     6     1   ar
    28    22    13   ar
    29    12     4    1
    30    21    15   ar
@<TRIPOS>MOLECULE
*****
 27 30 0 0 0
SMALL
GASTEIGER

@<TRIPOS>ATOM
      1 C           4.6856   -2.2019   20.0258 C.ar    1  UNL1       -0.0065
      2 C           5.5418   -0.9774   19.8937 C.ar    1  UNL1       -0.0032
      3 C           4.9062    0.3803   19.8426 C.ar    1  UNL1       -0.0032
      4 C           3.4143    0.5135   19.9236 C.ar    1  UNL1       -0.0062
      5 C           2.5581   -0.7110   20.0558 C.ar    1  UNL1       -0.0231
      6 C           3.1938   -2.0687   20.1069 C.ar    1  UNL1       -0.0074
      7 C           1.0662   -0.5778   20.1368 C.3     1  UNL1        0.0476
      8 C           0.4305    0.7799   20.0857 C.3     1  UNL1        0.0987
      9 N           1.2868    2.0044   19.9536 N.am    1  UNL1       -0.2705
     10 C           0.6512    3.3621   19.9025 C.2     1  UNL1        0.2652
     11 O           1.5074    4.5866   19.7703 O.2     1  UNL1       -0.2683
     12 C           2.7787    1.8712   19.8725 C.3     1  UNL1        0.1202
     13 C          -0.8408    3.4953   19.9835 C.ar    1  UNL1        0.1143
     14 C          -1.7699    3.7211   18.8278 C.ar    1  UNL1        0.0234
     15 C          -3.1688    3.7914   19.3645 C.ar    1  UNL1        0.0209
     16 C          -4.4931    3.9979   18.6910 C.ar    1  UNL1        0.0275
     17 C          -5.7528    4.0220   19.5050 C.ar    1  UNL1        0.1155
     18 BR         -7.0771    4.2285   18.8315 Br      1  UNL1       -0.0280
     19 N          -5.6882    3.8396   20.9924 N.ar    1  UNL1       -0.2356
     20 C          -4.3640    3.6331   21.6660 C.ar    1  UNL1        0.1165
     21 C          -3.1043    3.6090   20.8521 C.ar    1  UNL1        0.0795
     22 N          -1.6654    3.4260   21.2346 N.ar    1  UNL1       -0.3204
     23 C          -1.1431    3.2114   22.6242 C.3     1  UNL1        0.1306
     24 C           5.3213   -3.5596   20.0769 C.3     1  UNL1        0.0992
     25 C           5.7508   -3.8937   22.6174 C.3     1  UNL1        0.0899
     26 N           6.2482   -3.9118   21.2024 N.3     1  UNL1       -0.2665
     27 C           7.6727   -4.2823   20.9128 C.3     1  UNL1        0.0899
@<TRIPOS>BOND
     1    25    26    1
     2    26    27    1
     3    26    24    1
     4    24     1    1
     5     1     2   ar
     6     2     3   ar
     7     3     4   ar
     8     4     5   ar
     9     5     6   ar
    10     5     7    1
    11     7     8    1
    12     8     9    1
    13     9    10   am
    14    10    11    2
    15    10    13    1
    16    13    14   ar
    17    14    15   ar
    18    15    16   ar
    19    16    17   ar
    20    17    18    1
    21    17    19   ar
    22    19    20   ar
    23    20    21   ar
    24    21    22   ar
    25    22    23    1
    26     9    12    1
    27     6     1   ar
    28    22    13   ar
    29    12     4    1
    30    21    15   ar
@<TRIPOS>MOLECULE
*****
 27 30 0 0 0
SMALL
GASTEIGER

@<TRIPOS>ATOM
      1 C           8.1495   -5.6683   23.9417 C.ar    1  UNL1       -0.0065
      2 C           8.8823   -6.0912   22.7032 C.ar    1  UNL1       -0.0032
      3 C           8.6215   -5.3923   21.4018 C.ar    1  UNL1       -0.0032
      4 C           7.6278   -4.2705   21.3390 C.ar    1  UNL1       -0.0062
      5 C           6.8949   -3.8476   22.5775 C.ar    1  UNL1       -0.0231
      6 C           7.1557   -4.5465   23.8788 C.ar    1  UNL1       -0.0074
      7 C           5.9011   -2.7257   22.5147 C.3     1  UNL1        0.0476
      8 C           5.6403   -2.0268   21.2133 C.3     1  UNL1        0.0987
      9 N           6.3732   -2.4498   19.9748 N.am    1  UNL1       -0.2705
     10 C           6.1124   -1.7509   18.6734 C.2     1  UNL1        0.2652
     11 O           6.8453   -2.1739   17.4349 O.2     1  UNL1       -0.2683
     12 C           7.3670   -3.5716   20.0376 C.3     1  UNL1        0.1202
     13 C           5.1186   -0.6291   18.6106 C.ar    1  UNL1        0.1143
     14 C           3.6298   -0.7751   18.5007 C.ar    1  UNL1        0.0234
     15 C           3.0303    0.5995   18.4689 C.ar    1  UNL1        0.0209
     16 C           1.6106    1.0732   18.3694 C.ar    1  UNL1        0.0275
     17 C           1.3091    2.5427   18.3601 C.ar    1  UNL1        0.1155
     18 BR         -0.1106    3.0164   18.2606 Br      1  UNL1       -0.0280
     19 N           2.4274    3.5382   18.4503 N.ar    1  UNL1       -0.2356
     20 C           3.8472    3.0645   18.5498 C.ar    1  UNL1        0.1165
     21 C           4.1486    1.5952   18.5591 C.ar    1  UNL1        0.0795
     22 N           5.4393    0.8358   18.6467 N.ar    1  UNL1       -0.3204
     23 C           6.8099    1.4361   18.7519 C.3     1  UNL1        0.1306
     24 C           8.4103   -6.3672   25.2430 C.3     1  UNL1        0.0992
     25 C           6.6307   -6.0222   27.1042 C.3     1  UNL1        0.0899
     26 N           7.9872   -5.7311   26.5339 N.3     1  UNL1       -0.2665
     27 C           8.9206   -4.8040   27.2545 C.3     1  UNL1        0.0899
@<TRIPOS>BOND
     1    25    26    1
     2    26    27    1
     3    26    24    1
     4    24     1    1
     5     1     2   ar
     6     2     3   ar
     7     3     4   ar
     8     4     5   ar
     9     5     6   ar
    10     5     7    1
    11     7     8    1
    12     8     9    1
    13     9    10   am
    14    10    11    2
    15    10    13    1
    16    13    14   ar
    17    14    15   ar
    18    15    16   ar
    19    16    17   ar
    20    17    18    1
    21    17    19   ar
    22    19    20   ar
    23    20    21   ar
    24    21    22   ar
    25    22    23    1
    26     9    12    1
    27     6     1   ar
    28    22    13   ar
    29    12     4    1
    30    21    15   ar
@<TRIPOS>MOLECULE
*****
 27 30 0 0 0
SMALL
GASTEIGER

@<TRIPOS>ATOM
      1 C           8.2582   -4.5273   27.4163 C.ar    1  UNL1       -0.0065
      2 C           8.5700   -5.7223   26.5650 C.ar    1  UNL1       -0.0032
      3 C           8.1426   -5.7512   25.1275 C.ar    1  UNL1       -0.0032
      4 C           7.4035   -4.5851   24.5412 C.ar    1  UNL1       -0.0062
      5 C           7.0916   -3.3901   25.3924 C.ar    1  UNL1       -0.0231
      6 C           7.5190   -3.3612   26.8300 C.ar    1  UNL1       -0.0074
      7 C           6.3524   -2.2239   24.8061 C.3     1  UNL1        0.0476
      8 C           5.9250   -2.2529   23.3686 C.3     1  UNL1        0.0987
      9 N           6.2369   -3.4480   22.5174 N.am    1  UNL1       -0.2705
     10 C           5.8095   -3.4769   21.0798 C.2     1  UNL1        0.2652
     11 O           6.1213   -4.6719   20.2286 O.2     1  UNL1       -0.2683
     12 C           6.9761   -4.6141   23.1037 C.3     1  UNL1        0.1202
     13 C           5.0703   -2.3107   20.4935 C.ar    1  UNL1        0.1143
     14 C           3.5817   -2.1262   20.4817 C.ar    1  UNL1        0.0234
     15 C           3.2813   -0.8258   19.7970 C.ar    1  UNL1        0.0209
     16 C           1.9897   -0.1254   19.4949 C.ar    1  UNL1        0.0275
     17 C           2.0011    1.1941   18.7815 C.ar    1  UNL1        0.1155
     18 BR          0.7095    1.8944   18.4794 Br      1  UNL1       -0.0280
     19 N           3.3040    1.8131   18.3702 N.ar    1  UNL1       -0.2356
     20 C           4.5956    1.1128   18.6723 C.ar    1  UNL1        0.1165
     21 C           4.5843   -0.2066   19.3857 C.ar    1  UNL1        0.0795
     22 N           5.6899   -1.1244   19.8162 N.ar    1  UNL1       -0.3204
     23 C           7.1574   -0.8960   19.6062 C.3     1  UNL1        0.1306
     24 C           8.6856   -4.4983   28.8538 C.3     1  UNL1        0.0992
     25 C           6.8719   -5.7305   30.2474 C.3     1  UNL1        0.0899
     26 N           7.6541   -4.4874   29.9428 N.3     1  UNL1       -0.2665
     27 C           7.4049   -3.2333   30.7272 C.3     1  UNL1        0.0899
@<TRIPOS>BOND
     1    25    26    1
     2    26    27    1
     3    26    24    1
     4    24     1    1
     5     1     2   ar
     6     2     3   ar
     7     3     4   ar
     8     4     5   ar
     9     5     6   ar
    10     5     7    1
    11     7     8    1
    12     8     9    1
    13     9    10   am
    14    10    11    2
    15    10    13    1
    16    13    14   ar
    17    14    15   ar
    18    15    16   ar
    19    16    17   ar
    20    17    18    1
    21    17    19   ar
    22    19    20   ar
    23    20    21   ar
    24    21    22   ar
    25    22    23    1
    26     9    12    1
    27     6     1   ar
    28    22    13   ar
    29    12     4    1
    30    21    15   ar
@<TRIPOS>MOLECULE
*****
 27 30 0 0 0
SMALL
GASTEIGER

@<TRIPOS>ATOM
      1 C           2.5412   -0.9041   20.4535 C.ar    1  UNL1       -0.0065
      2 C           1.3233   -0.1716   19.9742 C.ar    1  UNL1       -0.0032
      3 C           0.5357    0.6782   20.9269 C.ar    1  UNL1       -0.0032
      4 C           0.9661    0.7954   22.3590 C.ar    1  UNL1       -0.0062
      5 C           2.1841    0.0628   22.8384 C.ar    1  UNL1       -0.0231
      6 C           2.9716   -0.7870   21.8856 C.ar    1  UNL1       -0.0074
      7 C           2.6145    0.1799   24.2706 C.3     1  UNL1        0.0476
      8 C           1.8270    1.0296   25.2233 C.3     1  UNL1        0.0987
      9 N           0.6090    1.7623   24.7438 N.am    1  UNL1       -0.2705
     10 C          -0.1786    2.6120   25.6966 C.2     1  UNL1        0.2652
     11 O          -1.3965    3.3446   25.2172 O.2     1  UNL1       -0.2683
     12 C           0.1786    1.6451   23.3117 C.3     1  UNL1        0.1202
     13 C           0.2519    2.7291   27.1287 C.ar    1  UNL1        0.1143
     14 C           1.1063    3.8183   27.7063 C.ar    1  UNL1        0.0234
     15 C           1.2859    3.5400   29.1693 C.ar    1  UNL1        0.0209
     16 C           2.0304    4.2720   30.2463 C.ar    1  UNL1        0.0275
     17 C           2.0315    3.7428   31.6498 C.ar    1  UNL1        0.1155
     18 BR          2.7759    4.4748   32.7268 Br      1  UNL1       -0.0280
     19 N           1.2881    2.4815   31.9764 N.ar    1  UNL1       -0.2356
     20 C           0.5436    1.7495   30.8994 C.ar    1  UNL1        0.1165
     21 C           0.5425    2.2787   29.4959 C.ar    1  UNL1        0.0795
     22 N          -0.0965    1.7776   28.2347 N.ar    1  UNL1       -0.3204
     23 C          -0.9365    0.5419   28.1028 C.3     1  UNL1        0.1306
     24 C           3.3288   -1.7539   19.5008 C.3     1  UNL1        0.0992
     25 C           3.9046   -0.9117   17.1115 C.3     1  UNL1        0.0899
     26 N           4.2927   -1.1141   18.5462 N.3     1  UNL1       -0.2665
     27 C           5.6449   -0.6766   19.0263 C.3     1  UNL1        0.0899
@<TRIPOS>BOND
     1    25    26    1
     2    26    27    1
     3    26    24    1
     4    24     1    1
     5     1     2   ar
     6     2     3   ar
     7     3     4   ar
     8     4     5   ar
     9     5     6   ar
    10     5     7    1
    11     7     8    1
    12     8     9    1
    13     9    10   am
    14    10    11    2
    15    10    13    1
    16    13    14   ar
    17    14    15   ar
    18    15    16   ar
    19    16    17   ar
    20    17    18    1
    21    17    19   ar
    22    19    20   ar
    23    20    21   ar
    24    21    22   ar
    25    22    23    1
    26     9    12    1
    27     6     1   ar
    28    22    13   ar
    29    12     4    1
    30    21    15   ar
