@<TRIPOS>MOLECULE
*****
 42 46 0 0 0
SMALL
GASTEIGER

@<TRIPOS>ATOM
      1 N           6.8584   -5.1623   31.8915 N.am    1  UNL1       -0.2902
      2 C           6.3224   -3.7656   31.9994 C.2     1  UNL1        0.3044
      3 O           6.9341   -2.6627   31.1873 O.2     1  UNL1       -0.2525
      4 N           5.1746   -3.4716   32.9193 N.am    1  UNL1       -0.2682
      5 H           6.4569   -5.8862   32.4245 H       1  UNL1        0.1509
      6 H           4.7732   -4.1955   33.4523 H       1  UNL1        0.1564
      7 C           4.6386   -2.0749   33.0272 C.ar    1  UNL1        0.0546
      8 C           4.9293   -1.2521   34.2473 C.ar    1  UNL1        0.0340
      9 C           4.3933    0.1447   34.3552 C.ar    1  UNL1        0.0872
     10 C           3.5666    0.7187   33.2430 C.ar    1  UNL1        0.0385
     11 C           3.2759   -0.1040   32.0229 C.ar    1  UNL1        0.0872
     12 C           3.8119   -1.5008   31.9150 C.ar    1  UNL1        0.0340
     13 N           4.6840    0.9674   35.5753 N.ar    1  UNL1       -0.2088
     14 C           4.9918    0.4363   36.9440 C.ar    1  UNL1        0.1245
     15 C           5.2160    1.6063   37.8555 C.ar    1  UNL1        0.1445
     16 N           5.0466    2.8605   37.0502 N.ar    1  UNL1       -0.1268
     17 N           4.7178    2.4656   35.6409 N.ar    1  UNL1       -0.0595
     18 N           2.4492    0.4701   30.9107 N.ar    1  UNL1       -0.2088
     19 C           2.4886    1.8886   30.4245 C.ar    1  UNL1        0.1245
     20 C           1.5016    2.0216   29.3027 C.ar    1  UNL1        0.1445
     21 N           0.8523    0.6854   29.0956 N.ar    1  UNL1       -0.1268
     22 N           1.4379   -0.2735   30.0894 N.ar    1  UNL1       -0.0595
     23 C           9.3974   -5.0456   31.3532 C.3     1  UNL1        0.0214
     24 C           8.0061   -5.4563   30.9716 C.3     1  UNL1        0.0770
     25 C           7.7626   -6.1609   29.6699 C.3     1  UNL1        0.0661
     26 C           7.1745   -5.4125   28.5106 C.3     1  UNL1        0.1738
     27 O           6.2931   -4.2236   28.7547 O.3     1  UNL1       -0.3697
     28 H           5.9994   -3.8590   27.9052 H       1  UNL1        0.2119
     29 N           7.4678   -5.8531   27.1070 N.3     1  UNL1       -0.2511
     30 C           7.6222   -7.3123   26.7957 C.3     1  UNL1        0.0742
     31 C           7.9155   -7.7528   25.3922 C.3     1  UNL1        0.0175
     32 C           8.0544   -6.7341   24.3000 C.3     1  UNL1        0.0031
     33 C           7.9000   -5.2750   24.6112 C.3     1  UNL1        0.0205
     34 C           7.6067   -4.8345   26.0147 C.3     1  UNL1        0.0745
     35 C           8.0389   -4.2563   23.5190 C.3     1  UNL1        0.0277
     36 C           6.8990   -4.0072   22.5763 C.ar    1  UNL1       -0.0220
     37 C           7.1240   -4.0689   21.0945 C.ar    1  UNL1       -0.0020
     38 C           5.9842   -3.8198   20.1519 C.ar    1  UNL1        0.0293
     39 C           4.6193   -3.5091   20.6909 C.ar    1  UNL1        0.1401
     40 F           3.4794   -3.2600   19.7482 F       1  UNL1       -0.2042
     41 C           4.3943   -3.4475   22.1726 C.ar    1  UNL1        0.0293
     42 C           5.5342   -3.6966   23.1154 C.ar    1  UNL1       -0.0020
@<TRIPOS>BOND
     1    24    23    1
     2    24    25    1
     3    25    26    1
     4    26    27    1
     5    26    29    1
     6    29    30    1
     7    30    31    1
     8    31    32    1
     9    32    33    1
    10    33    35    1
    11    35    36    1
    12    36    37   ar
    13    37    38   ar
    14    38    39   ar
    15    39    40    1
    16    39    41   ar
    17    41    42   ar
    18    33    34    1
    19    24     1    1
    20     1     2   am
    21     2     3    2
    22     2     4   am
    23     4     7    1
    24     7     8   ar
    25     8     9   ar
    26     9    13    1
    27    13    14   ar
    28    14    15   ar
    29    15    16   ar
    30    16    17   ar
    31     9    10   ar
    32    10    11   ar
    33    11    18    1
    34    18    19   ar
    35    19    20   ar
    36    20    21   ar
    37    21    22   ar
    38    11    12   ar
    39    34    29    1
    40    12     7   ar
    41    42    36   ar
    42    17    13   ar
    43    22    18   ar
    44    27    28    1
    45     1     5    1
    46     4     6    1
@<TRIPOS>MOLECULE
*****
 42 46 0 0 0
SMALL
GASTEIGER

@<TRIPOS>ATOM
      1 N           6.7572   -5.0533   31.9162 N.am    1  UNL1       -0.2902
      2 C           6.2518   -3.6497   32.0724 C.2     1  UNL1        0.3044
      3 O           6.9092   -2.5283   31.3240 O.2     1  UNL1       -0.2525
      4 N           5.0889   -3.3675   32.9769 N.am    1  UNL1       -0.2682
      5 H           6.3257   -5.7893   32.4074 H       1  UNL1        0.1509
      6 H           4.6574   -4.1035   33.4681 H       1  UNL1        0.1564
      7 C           4.5835   -1.9639   33.1330 C.ar    1  UNL1        0.0546
      8 C           3.7674   -1.3350   32.0429 C.ar    1  UNL1        0.0340
      9 C           3.2620    0.0686   32.1990 C.ar    1  UNL1        0.0872
     10 C           3.5727    0.8434   33.4453 C.ar    1  UNL1        0.0385
     11 C           4.3889    0.2146   34.5354 C.ar    1  UNL1        0.0872
     12 C           4.8943   -1.1891   34.3793 C.ar    1  UNL1        0.0340
     13 N           2.4458    0.6975   31.1089 N.ar    1  UNL1       -0.2088
     14 C           2.8210    0.7733   29.6585 C.ar    1  UNL1        0.1245
     15 C           1.7183    1.4836   28.9309 C.ar    1  UNL1        0.1445
     16 N           0.6615    1.8468   29.9315 N.ar    1  UNL1       -0.1268
     17 N           1.1111    1.3609   31.2776 N.ar    1  UNL1       -0.0595
     18 N           4.6996    0.9893   35.7817 N.ar    1  UNL1       -0.2088
     19 C           5.3404    2.3444   35.8407 C.ar    1  UNL1        0.1245
     20 C           5.4609    2.7376   37.2833 C.ar    1  UNL1        0.1445
     21 N           4.8947    1.6256   38.1157 N.ar    1  UNL1       -0.1268
     22 N           4.4242    0.5452   37.1877 N.ar    1  UNL1       -0.0595
     23 C           9.3021   -4.9124   31.4127 C.3     1  UNL1        0.0214
     24 C           7.9200   -5.3355   31.0117 C.3     1  UNL1        0.0770
     25 C           7.7007   -6.0408   29.7061 C.3     1  UNL1        0.0661
     26 C           7.1669   -5.2848   28.5256 C.3     1  UNL1        0.1738
     27 O           6.3418   -4.0500   28.7365 O.3     1  UNL1       -0.3697
     28 H           6.0785   -3.6863   27.8767 H       1  UNL1        0.2119
     29 N           7.4582   -5.7636   27.1342 N.3     1  UNL1       -0.2511
     30 C           7.6032   -7.2314   26.8611 C.3     1  UNL1        0.0742
     31 C           7.8945   -7.7101   25.4697 C.3     1  UNL1        0.0175
     32 C           8.0408   -6.7211   24.3515 C.3     1  UNL1        0.0031
     33 C           7.8958   -5.2533   24.6246 C.3     1  UNL1        0.0205
     34 C           7.6045   -4.7746   26.0160 C.3     1  UNL1        0.0745
     35 C           8.0420   -4.2643   23.5064 C.3     1  UNL1        0.0277
     36 C           6.8963   -4.0150   22.5709 C.ar    1  UNL1       -0.0220
     37 C           7.1200   -4.0393   21.0879 C.ar    1  UNL1       -0.0020
     38 C           5.9743   -3.7900   20.1524 C.ar    1  UNL1        0.0293
     39 C           4.6048   -3.5165   20.6999 C.ar    1  UNL1        0.1401
     40 F           3.4591   -3.2672   19.7644 F       1  UNL1       -0.2042
     41 C           4.3811   -3.4923   22.1829 C.ar    1  UNL1        0.0293
     42 C           5.5269   -3.7415   23.1185 C.ar    1  UNL1       -0.0020
@<TRIPOS>BOND
     1    24    23    1
     2    24    25    1
     3    25    26    1
     4    26    27    1
     5    26    29    1
     6    29    30    1
     7    30    31    1
     8    31    32    1
     9    32    33    1
    10    33    35    1
    11    35    36    1
    12    36    37   ar
    13    37    38   ar
    14    38    39   ar
    15    39    40    1
    16    39    41   ar
    17    41    42   ar
    18    33    34    1
    19    24     1    1
    20     1     2   am
    21     2     3    2
    22     2     4   am
    23     4     7    1
    24     7     8   ar
    25     8     9   ar
    26     9    13    1
    27    13    14   ar
    28    14    15   ar
    29    15    16   ar
    30    16    17   ar
    31     9    10   ar
    32    10    11   ar
    33    11    18    1
    34    18    19   ar
    35    19    20   ar
    36    20    21   ar
    37    21    22   ar
    38    11    12   ar
    39    34    29    1
    40    12     7   ar
    41    42    36   ar
    42    17    13   ar
    43    22    18   ar
    44    27    28    1
    45     1     5    1
    46     4     6    1
@<TRIPOS>MOLECULE
*****
 42 46 0 0 0
SMALL
GASTEIGER

@<TRIPOS>ATOM
      1 N           3.6239    1.2853   28.1046 N.am    1  UNL1       -0.2902
      2 C           4.0462   -0.0643   27.6044 C.2     1  UNL1        0.3044
      3 O           3.2525   -1.2826   27.9728 O.2     1  UNL1       -0.2525
      4 N           5.2621   -0.1956   26.7359 N.am    1  UNL1       -0.2682
      5 H           4.1448    2.0850   27.8628 H       1  UNL1        0.1509
      6 H           5.7830    0.6041   26.4941 H       1  UNL1        0.1564
      7 C           5.6843   -1.5452   26.2357 C.ar    1  UNL1        0.0546
      8 C           5.4728   -1.9116   24.7966 C.ar    1  UNL1        0.0340
      9 C           5.8951   -3.2612   24.2964 C.ar    1  UNL1        0.0872
     10 C           6.5288   -4.2445   25.2353 C.ar    1  UNL1        0.0385
     11 C           6.7403   -3.8781   26.6744 C.ar    1  UNL1        0.0872
     12 C           6.3181   -2.5284   27.1746 C.ar    1  UNL1        0.0340
     13 N           5.6836   -3.6276   22.8573 N.ar    1  UNL1       -0.2088
     14 C           4.4477   -3.3575   22.0512 C.ar    1  UNL1        0.1245
     15 C           4.6711   -3.8914   20.6673 C.ar    1  UNL1        0.1445
     16 N           6.0450   -4.4914   20.6181 N.ar    1  UNL1       -0.1268
     17 N           6.6708   -4.3283   21.9716 N.ar    1  UNL1       -0.0595
     18 N           7.3741   -4.8614   27.6133 N.ar    1  UNL1       -0.2088
     19 C           6.8655   -5.2345   28.9744 C.ar    1  UNL1        0.1245
     20 C           7.8048   -6.2479   29.5583 C.ar    1  UNL1        0.1445
     21 N           8.8938   -6.5010   28.5582 N.ar    1  UNL1       -0.1268
     22 N           8.6275   -5.6441   27.3562 N.ar    1  UNL1       -0.0595
     23 C           1.0557    1.5929   28.3486 C.3     1  UNL1        0.0214
     24 C           2.4080    1.4166   28.9731 C.3     1  UNL1        0.0770
     25 C           2.5445    1.3716   30.4662 C.3     1  UNL1        0.0661
     26 C           2.6042    0.0507   31.1744 C.3     1  UNL1        0.1738
     27 O           1.8668   -1.1318   30.6196 O.3     1  UNL1       -0.3697
     28 H           2.0094   -1.9004   31.1939 H       1  UNL1        0.2119
     29 N           3.4014   -0.0878   32.4375 N.3     1  UNL1       -0.2511
     30 C           4.1536   -1.3556   32.7145 C.3     1  UNL1        0.0742
     31 C           4.9507   -1.4940   33.9776 C.3     1  UNL1        0.0175
     32 C           4.9957   -0.3646   34.9636 C.3     1  UNL1        0.0031
     33 C           4.2436    0.9033   34.6867 C.3     1  UNL1        0.0205
     34 C           3.4465    1.0417   33.4236 C.3     1  UNL1        0.0745
     35 C           4.2886    2.0327   35.6727 C.3     1  UNL1        0.0277
     36 C           3.3212    2.0670   36.8185 C.ar    1  UNL1       -0.0220
     37 C           3.2722    0.9279   37.7932 C.ar    1  UNL1       -0.0020
     38 C           2.3048    0.9622   38.9389 C.ar    1  UNL1        0.0293
     39 C           1.3862    2.1356   39.1100 C.ar    1  UNL1        0.1401
     40 F           0.4187    2.1699   40.2559 F       1  UNL1       -0.2042
     41 C           1.4351    3.2748   38.1354 C.ar    1  UNL1        0.0293
     42 C           2.4026    3.2405   36.9896 C.ar    1  UNL1       -0.0020
@<TRIPOS>BOND
     1    24    23    1
     2    24    25    1
     3    25    26    1
     4    26    27    1
     5    26    29    1
     6    29    30    1
     7    30    31    1
     8    31    32    1
     9    32    33    1
    10    33    35    1
    11    35    36    1
    12    36    37   ar
    13    37    38   ar
    14    38    39   ar
    15    39    40    1
    16    39    41   ar
    17    41    42   ar
    18    33    34    1
    19    24     1    1
    20     1     2   am
    21     2     3    2
    22     2     4   am
    23     4     7    1
    24     7     8   ar
    25     8     9   ar
    26     9    13    1
    27    13    14   ar
    28    14    15   ar
    29    15    16   ar
    30    16    17   ar
    31     9    10   ar
    32    10    11   ar
    33    11    18    1
    34    18    19   ar
    35    19    20   ar
    36    20    21   ar
    37    21    22   ar
    38    11    12   ar
    39    34    29    1
    40    12     7   ar
    41    42    36   ar
    42    17    13   ar
    43    22    18   ar
    44    27    28    1
    45     1     5    1
    46     4     6    1
@<TRIPOS>MOLECULE
*****
 42 46 0 0 0
SMALL
GASTEIGER

@<TRIPOS>ATOM
      1 N           1.0677    3.0488   20.2806 N.am    1  UNL1       -0.2902
      2 C           0.1675    2.8819   21.4688 C.2     1  UNL1        0.3044
      3 O          -1.2422    2.4052   21.2805 O.2     1  UNL1       -0.2525
      4 N           0.6769    3.1916   22.8452 N.am    1  UNL1       -0.2682
      5 H           1.9929    3.3617   20.4042 H       1  UNL1        0.1509
      6 H           1.6022    3.5045   22.9687 H       1  UNL1        0.1564
      7 C          -0.2233    3.0247   24.0333 C.ar    1  UNL1        0.0546
      8 C           0.1911    2.1374   25.1695 C.ar    1  UNL1        0.0340
      9 C          -0.7091    1.9704   26.3576 C.ar    1  UNL1        0.0872
     10 C          -2.0238    2.6908   26.4096 C.ar    1  UNL1        0.0385
     11 C          -2.4382    3.5782   25.2735 C.ar    1  UNL1        0.0872
     12 C          -1.5380    3.7451   24.0853 C.ar    1  UNL1        0.0340
     13 N          -0.2947    1.0831   27.4938 N.ar    1  UNL1       -0.2088
     14 C           1.1093    0.6700   27.8231 C.ar    1  UNL1        0.1245
     15 C           1.0603   -0.2153   29.0330 C.ar    1  UNL1        0.1445
     16 N          -0.3739   -0.3495   29.4514 N.ar    1  UNL1       -0.1268
     17 N          -1.2113    0.4530   28.5001 N.ar    1  UNL1       -0.0595
     18 N          -3.7528    4.2985   25.3255 N.ar    1  UNL1       -0.2088
     19 C          -4.4463    4.9526   24.1672 C.ar    1  UNL1        0.1245
     20 C          -5.7269    5.5496   24.6708 C.ar    1  UNL1        0.1445
     21 N          -5.8250    5.2647   26.1402 N.ar    1  UNL1       -0.1268
     22 N          -4.6049    4.4915   26.5448 N.ar    1  UNL1       -0.0595
     23 C          -0.2450    3.7600   18.1544 C.3     1  UNL1        0.0214
     24 C           0.5582    2.7390   18.9042 C.3     1  UNL1        0.0770
     25 C           0.8520    1.4081   18.2777 C.3     1  UNL1        0.0661
     26 C           1.2020    0.2332   19.1419 C.3     1  UNL1        0.1738
     27 O           0.3107   -0.1478   20.2866 O.3     1  UNL1       -0.3697
     28 H           0.6787   -0.9230   20.7389 H       1  UNL1        0.2119
     29 N           2.4434   -0.5609   18.8615 N.3     1  UNL1       -0.2511
     30 C           3.3835   -0.1249   17.7771 C.3     1  UNL1        0.0742
     31 C           4.6248   -0.9190   17.4967 C.3     1  UNL1        0.0175
     32 C           4.9259   -2.1489   18.3007 C.3     1  UNL1        0.0031
     33 C           3.9858   -2.5849   19.3851 C.3     1  UNL1        0.0205
     34 C           2.7445   -1.7909   19.6655 C.3     1  UNL1        0.0745
     35 C           4.2869   -3.8149   20.1891 C.3     1  UNL1        0.0277
     36 C           5.2498   -3.7435   21.3369 C.ar    1  UNL1       -0.0220
     37 C           4.7400   -3.5310   22.7316 C.ar    1  UNL1       -0.0020
     38 C           5.7030   -3.4596   23.8794 C.ar    1  UNL1        0.0293
     39 C           7.1758   -3.6006   23.6327 C.ar    1  UNL1        0.1401
     40 F           8.1388   -3.5292   24.7806 F       1  UNL1       -0.2042
     41 C           7.6857   -3.8131   22.2381 C.ar    1  UNL1        0.0293
     42 C           6.7227   -3.8845   21.0902 C.ar    1  UNL1       -0.0020
@<TRIPOS>BOND
     1    24    23    1
     2    24    25    1
     3    25    26    1
     4    26    27    1
     5    26    29    1
     6    29    30    1
     7    30    31    1
     8    31    32    1
     9    32    33    1
    10    33    35    1
    11    35    36    1
    12    36    37   ar
    13    37    38   ar
    14    38    39   ar
    15    39    40    1
    16    39    41   ar
    17    41    42   ar
    18    33    34    1
    19    24     1    1
    20     1     2   am
    21     2     3    2
    22     2     4   am
    23     4     7    1
    24     7     8   ar
    25     8     9   ar
    26     9    13    1
    27    13    14   ar
    28    14    15   ar
    29    15    16   ar
    30    16    17   ar
    31     9    10   ar
    32    10    11   ar
    33    11    18    1
    34    18    19   ar
    35    19    20   ar
    36    20    21   ar
    37    21    22   ar
    38    11    12   ar
    39    34    29    1
    40    12     7   ar
    41    42    36   ar
    42    17    13   ar
    43    22    18   ar
    44    27    28    1
    45     1     5    1
    46     4     6    1
@<TRIPOS>MOLECULE
*****
 42 46 0 0 0
SMALL
GASTEIGER

@<TRIPOS>ATOM
      1 N           1.1006    3.0864   20.2813 N.am    1  UNL1       -0.2902
      2 C           0.2015    2.9417   21.4732 C.2     1  UNL1        0.3044
      3 O          -1.1998    2.4360   21.2985 O.2     1  UNL1       -0.2525
      4 N           0.7038    3.3026   22.8397 N.am    1  UNL1       -0.2682
      5 H           2.0204    3.4183   20.3959 H       1  UNL1        0.1509
      6 H           1.6235    3.6345   22.9544 H       1  UNL1        0.1564
      7 C          -0.1953    3.1579   24.0316 C.ar    1  UNL1        0.0546
      8 C          -1.4750    3.9371   24.1048 C.ar    1  UNL1        0.0340
      9 C          -2.3741    3.7924   25.2967 C.ar    1  UNL1        0.0872
     10 C          -1.9936    2.8685   26.4155 C.ar    1  UNL1        0.0385
     11 C          -0.7139    2.0892   26.3423 C.ar    1  UNL1        0.0872
     12 C           0.1852    2.2339   25.1504 C.ar    1  UNL1        0.0340
     13 N          -3.6537    4.5716   25.3699 N.ar    1  UNL1       -0.2088
     14 C          -5.0365    3.9928   25.4257 C.ar    1  UNL1        0.1245
     15 C          -6.0127    5.1299   25.4904 C.ar    1  UNL1        0.1445
     16 N          -5.2332    6.4115   25.4746 N.ar    1  UNL1       -0.1268
     17 N          -3.7753    6.0664   25.4002 N.ar    1  UNL1       -0.0595
     18 N          -0.3334    1.1653   27.4610 N.ar    1  UNL1       -0.2088
     19 C           1.0634    0.7847   27.8538 C.ar    1  UNL1        0.1245
     20 C           0.9772   -0.1561   29.0190 C.ar    1  UNL1        0.1445
     21 N          -0.4728   -0.3569   29.3463 N.ar    1  UNL1       -0.1268
     22 N          -1.2828    0.4597   28.3834 N.ar    1  UNL1       -0.0595
     23 C          -0.1810    3.7258   18.1137 C.3     1  UNL1        0.0214
     24 C           0.5984    2.7254   18.9147 C.3     1  UNL1        0.0770
     25 C           0.8756    1.3640   18.3492 C.3     1  UNL1        0.0661
     26 C           1.1280    0.2067   19.2695 C.3     1  UNL1        0.1738
     27 O           0.1111   -0.1602   20.3094 O.3     1  UNL1       -0.3697
     28 H           0.4275   -0.9249   20.8154 H       1  UNL1        0.2119
     29 N           2.3973   -0.5836   19.1500 N.3     1  UNL1       -0.2511
     30 C           3.3864   -0.2554   18.0712 C.3     1  UNL1        0.0742
     31 C           4.6556   -1.0458   17.9517 C.3     1  UNL1        0.0175
     32 C           4.9358   -2.1643   18.9111 C.3     1  UNL1        0.0031
     33 C           3.9467   -2.4925   19.9899 C.3     1  UNL1        0.0205
     34 C           2.6774   -1.7022   20.1093 C.3     1  UNL1        0.0745
     35 C           4.2268   -3.6111   20.9492 C.3     1  UNL1        0.0277
     36 C           4.8554   -3.3186   22.2794 C.ar    1  UNL1       -0.0220
     37 C           6.1366   -3.9949   22.6684 C.ar    1  UNL1       -0.0020
     38 C           6.7651   -3.7024   23.9985 C.ar    1  UNL1        0.0293
     39 C           6.1126   -2.7337   24.9397 C.ar    1  UNL1        0.1401
     40 F           6.7412   -2.4412   26.2699 F       1  UNL1       -0.2042
     41 C           4.8314   -2.0575   24.5507 C.ar    1  UNL1        0.0293
     42 C           4.2028   -2.3499   23.2205 C.ar    1  UNL1       -0.0020
@<TRIPOS>BOND
     1    24    23    1
     2    24    25    1
     3    25    26    1
     4    26    27    1
     5    26    29    1
     6    29    30    1
     7    30    31    1
     8    31    32    1
     9    32    33    1
    10    33    35    1
    11    35    36    1
    12    36    37   ar
    13    37    38   ar
    14    38    39   ar
    15    39    40    1
    16    39    41   ar
    17    41    42   ar
    18    33    34    1
    19    24     1    1
    20     1     2   am
    21     2     3    2
    22     2     4   am
    23     4     7    1
    24     7     8   ar
    25     8     9   ar
    26     9    13    1
    27    13    14   ar
    28    14    15   ar
    29    15    16   ar
    30    16    17   ar
    31     9    10   ar
    32    10    11   ar
    33    11    18    1
    34    18    19   ar
    35    19    20   ar
    36    20    21   ar
    37    21    22   ar
    38    11    12   ar
    39    34    29    1
    40    12     7   ar
    41    42    36   ar
    42    17    13   ar
    43    22    18   ar
    44    27    28    1
    45     1     5    1
    46     4     6    1
@<TRIPOS>MOLECULE
*****
 42 46 0 0 0
SMALL
GASTEIGER

@<TRIPOS>ATOM
      1 N           5.8844   -3.5598   20.3192 N.am    1  UNL1       -0.2902
      2 C           5.7650   -3.8171   21.7921 C.2     1  UNL1        0.3044
      3 O           4.4426   -4.2121   22.3796 O.2     1  UNL1       -0.2525
      4 N           6.9679   -3.6794   22.6775 N.am    1  UNL1       -0.2682
      5 H           6.7523   -3.3006   19.9335 H       1  UNL1        0.1509
      6 H           7.8359   -3.4201   22.2919 H       1  UNL1        0.1564
      7 C           6.8485   -3.9367   24.1504 C.ar    1  UNL1        0.0546
      8 C           6.2664   -2.8872   25.0503 C.ar    1  UNL1        0.0340
      9 C           6.1470   -3.1444   26.5232 C.ar    1  UNL1        0.0872
     10 C           6.6096   -4.4512   27.0963 C.ar    1  UNL1        0.0385
     11 C           7.1916   -5.5007   26.1964 C.ar    1  UNL1        0.0872
     12 C           7.3111   -5.2434   24.7234 C.ar    1  UNL1        0.0340
     13 N           5.5649   -2.0950   27.4231 N.ar    1  UNL1       -0.2088
     14 C           6.1168   -1.6670   28.7507 C.ar    1  UNL1        0.1245
     15 C           5.2218   -0.5967   29.3015 C.ar    1  UNL1        0.1445
     16 N           4.1167   -0.3631   28.3144 N.ar    1  UNL1       -0.1268
     17 N           4.3288   -1.2891   27.1534 N.ar    1  UNL1       -0.0595
     18 N           7.6542   -6.8074   26.7695 N.ar    1  UNL1       -0.2088
     19 C           8.5920   -6.9797   27.9275 C.ar    1  UNL1        0.1245
     20 C           8.7776   -8.4501   28.1588 C.ar    1  UNL1        0.1445
     21 N           7.9546   -9.1866   27.1438 N.ar    1  UNL1       -0.1268
     22 N           7.2603   -8.1713   26.2852 N.ar    1  UNL1       -0.0595
     23 C           4.3196   -5.0367   18.8632 C.3     1  UNL1        0.0214
     24 C           4.6814   -3.6976   19.4338 C.3     1  UNL1        0.0770
     25 C           3.8404   -2.4960   19.1190 C.3     1  UNL1        0.0661
     26 C           4.0500   -1.2157   19.8718 C.3     1  UNL1        0.1738
     27 O           5.4346   -0.6648   20.0437 O.3     1  UNL1       -0.3697
     28 H           5.3933    0.1614   20.5502 H       1  UNL1        0.2119
     29 N           2.8751   -0.4862   20.4528 N.3     1  UNL1       -0.2511
     30 C           1.5128   -0.6572   19.8488 C.3     1  UNL1        0.0742
     31 C           0.3380    0.0723   20.4298 C.3     1  UNL1        0.0175
     32 C           0.5255    0.9728   21.6147 C.3     1  UNL1        0.0031
     33 C           1.8878    1.1438   22.2186 C.3     1  UNL1        0.0205
     34 C           3.0626    0.4143   21.6377 C.3     1  UNL1        0.0745
     35 C           2.0753    2.0443   23.4035 C.3     1  UNL1        0.0277
     36 C           1.2153    1.8715   24.6203 C.ar    1  UNL1       -0.0220
     37 C           1.7480    1.1419   25.8178 C.ar    1  UNL1       -0.0020
     38 C           0.8880    0.9692   27.0346 C.ar    1  UNL1        0.0293
     39 C          -0.5046    1.5261   27.0540 C.ar    1  UNL1        0.1401
     40 F          -1.3646    1.3534   28.2708 F       1  UNL1       -0.2042
     41 C          -1.0373    2.2558   25.8566 C.ar    1  UNL1        0.0293
     42 C          -0.1773    2.4285   24.6397 C.ar    1  UNL1       -0.0020
@<TRIPOS>BOND
     1    24    23    1
     2    24    25    1
     3    25    26    1
     4    26    27    1
     5    26    29    1
     6    29    30    1
     7    30    31    1
     8    31    32    1
     9    32    33    1
    10    33    35    1
    11    35    36    1
    12    36    37   ar
    13    37    38   ar
    14    38    39   ar
    15    39    40    1
    16    39    41   ar
    17    41    42   ar
    18    33    34    1
    19    24     1    1
    20     1     2   am
    21     2     3    2
    22     2     4   am
    23     4     7    1
    24     7     8   ar
    25     8     9   ar
    26     9    13    1
    27    13    14   ar
    28    14    15   ar
    29    15    16   ar
    30    16    17   ar
    31     9    10   ar
    32    10    11   ar
    33    11    18    1
    34    18    19   ar
    35    19    20   ar
    36    20    21   ar
    37    21    22   ar
    38    11    12   ar
    39    34    29    1
    40    12     7   ar
    41    42    36   ar
    42    17    13   ar
    43    22    18   ar
    44    27    28    1
    45     1     5    1
    46     4     6    1
@<TRIPOS>MOLECULE
*****
 42 46 0 0 0
SMALL
GASTEIGER

@<TRIPOS>ATOM
      1 N          -1.5587    2.4246   20.1187 N.am    1  UNL1       -0.2902
      2 C          -0.2310    1.9157   20.5965 C.2     1  UNL1        0.3044
      3 O           0.8104    2.8793   21.0833 O.2     1  UNL1       -0.2525
      4 N           0.0552    0.4433   20.5875 N.am    1  UNL1       -0.2682
      5 H          -2.2422    1.7922   19.7992 H       1  UNL1        0.1509
      6 H          -0.6283   -0.1891   20.2680 H       1  UNL1        0.1564
      7 C           1.3829   -0.0656   21.0653 C.ar    1  UNL1        0.0546
      8 C           2.4005   -0.5505   20.0756 C.ar    1  UNL1        0.0340
      9 C           3.7282   -1.0594   20.5534 C.ar    1  UNL1        0.0872
     10 C           4.0383   -1.0833   22.0208 C.ar    1  UNL1        0.0385
     11 C           3.0208   -0.5984   23.0104 C.ar    1  UNL1        0.0872
     12 C           1.6930   -0.0895   22.5327 C.ar    1  UNL1        0.0340
     13 N           4.7457   -1.5444   19.5638 N.ar    1  UNL1       -0.2088
     14 C           6.1587   -1.9408   19.8744 C.ar    1  UNL1        0.1245
     15 C           6.8152   -2.3595   18.5924 C.ar    1  UNL1        0.1445
     16 N           5.8080   -2.2219   17.4893 N.ar    1  UNL1       -0.1268
     17 N           4.5290   -1.7181   18.0897 N.ar    1  UNL1       -0.0595
     18 N           3.3309   -0.6223   24.4778 N.ar    1  UNL1       -0.2088
     19 C           4.2585   -1.5784   25.1675 C.ar    1  UNL1        0.1245
     20 C           4.2687   -1.2413   26.6291 C.ar    1  UNL1        0.1445
     21 N           3.3475   -0.0770   26.8428 N.ar    1  UNL1       -0.1268
     22 N           2.7679    0.3056   25.5132 N.ar    1  UNL1       -0.0595
     23 C          -1.2021    4.7922   19.1103 C.3     1  UNL1        0.0214
     24 C          -1.8449    3.8970   20.1277 C.3     1  UNL1        0.0770
     25 C          -2.7741    4.4742   21.1542 C.3     1  UNL1        0.0661
     26 C          -3.6263    3.5655   21.9897 C.3     1  UNL1        0.1738
     27 O          -4.4444    2.4924   21.3346 O.3     1  UNL1       -0.3697
     28 H          -4.9328    1.9992   22.0121 H       1  UNL1        0.2119
     29 N          -3.6605    3.7300   23.4803 N.3     1  UNL1       -0.2511
     30 C          -4.9709    3.6914   24.2092 C.3     1  UNL1        0.0742
     31 C          -5.0051    3.8558   25.6997 C.3     1  UNL1        0.0175
     32 C          -3.7289    4.0589   26.4613 C.3     1  UNL1        0.0031
     33 C          -2.4185    4.0976   25.7324 C.3     1  UNL1        0.0205
     34 C          -2.3843    3.9331   24.2419 C.3     1  UNL1        0.0745
     35 C          -1.1423    4.3007   26.4940 C.3     1  UNL1        0.0277
     36 C          -0.5681    3.1793   27.3081 C.ar    1  UNL1       -0.0220
     37 C           0.3535    3.4791   28.4531 C.ar    1  UNL1       -0.0020
     38 C           0.9276    2.3577   29.2672 C.ar    1  UNL1        0.0293
     39 C           0.5802    0.9365   28.9364 C.ar    1  UNL1        0.1401
     40 F           1.1544   -0.1849   29.7506 F       1  UNL1       -0.2042
     41 C          -0.3413    0.6367   27.7915 C.ar    1  UNL1        0.0293
     42 C          -0.9155    1.7581   26.9774 C.ar    1  UNL1       -0.0020
@<TRIPOS>BOND
     1    24    23    1
     2    24    25    1
     3    25    26    1
     4    26    27    1
     5    26    29    1
     6    29    30    1
     7    30    31    1
     8    31    32    1
     9    32    33    1
    10    33    35    1
    11    35    36    1
    12    36    37   ar
    13    37    38   ar
    14    38    39   ar
    15    39    40    1
    16    39    41   ar
    17    41    42   ar
    18    33    34    1
    19    24     1    1
    20     1     2   am
    21     2     3    2
    22     2     4   am
    23     4     7    1
    24     7     8   ar
    25     8     9   ar
    26     9    13    1
    27    13    14   ar
    28    14    15   ar
    29    15    16   ar
    30    16    17   ar
    31     9    10   ar
    32    10    11   ar
    33    11    18    1
    34    18    19   ar
    35    19    20   ar
    36    20    21   ar
    37    21    22   ar
    38    11    12   ar
    39    34    29    1
    40    12     7   ar
    41    42    36   ar
    42    17    13   ar
    43    22    18   ar
    44    27    28    1
    45     1     5    1
    46     4     6    1
@<TRIPOS>MOLECULE
*****
 42 46 0 0 0
SMALL
GASTEIGER

@<TRIPOS>ATOM
      1 N           5.8831   -3.4013   20.4480 N.am    1  UNL1       -0.2902
      2 C           5.7556   -3.6926   21.9138 C.2     1  UNL1        0.3044
      3 O           4.4207   -4.0568   22.4928 O.2     1  UNL1       -0.2525
      4 N           6.9631   -3.6199   22.8008 N.am    1  UNL1       -0.2682
      5 H           6.7593   -3.1623   20.0680 H       1  UNL1        0.1509
      6 H           7.8393   -3.3809   22.4208 H       1  UNL1        0.1564
      7 C           6.8357   -3.9112   24.2666 C.ar    1  UNL1        0.0546
      8 C           7.3155   -5.2222   24.8153 C.ar    1  UNL1        0.0340
      9 C           7.1881   -5.5136   26.2812 C.ar    1  UNL1        0.0872
     10 C           6.5807   -4.4939   27.1985 C.ar    1  UNL1        0.0385
     11 C           6.1009   -3.1829   26.6499 C.ar    1  UNL1        0.0872
     12 C           6.2284   -2.8915   25.1839 C.ar    1  UNL1        0.0340
     13 N           7.6679   -6.8246   26.8297 N.ar    1  UNL1       -0.2088
     14 C           8.6577   -7.0056   27.9423 C.ar    1  UNL1        0.1245
     15 C           8.8437   -8.4777   28.1623 C.ar    1  UNL1        0.1445
     16 N           7.9690   -9.2065   27.1857 N.ar    1  UNL1       -0.1268
     17 N           7.2422   -8.1848   26.3622 N.ar    1  UNL1       -0.0595
     18 N           5.4936   -2.1632   27.5672 N.ar    1  UNL1       -0.2088
     19 C           6.2254   -1.3622   28.6031 C.ar    1  UNL1        0.1245
     20 C           5.2319   -0.4694   29.2857 C.ar    1  UNL1        0.1445
     21 N           3.8862   -0.7187   28.6718 N.ar    1  UNL1       -0.1268
     22 N           4.0479   -1.7655   27.6097 N.ar    1  UNL1       -0.0595
     23 C           4.1950   -4.8022   19.0560 C.3     1  UNL1        0.0214
     24 C           4.6756   -3.4741   19.5610 C.3     1  UNL1        0.0770
     25 C           3.9487   -2.2187   19.1792 C.3     1  UNL1        0.0661
     26 C           4.0791   -0.9889   20.0280 C.3     1  UNL1        0.1738
     27 O           5.4381   -0.4515   20.3662 O.3     1  UNL1       -0.3697
     28 H           5.3444    0.3409   20.9176 H       1  UNL1        0.2119
     29 N           2.8503   -0.2964   20.5387 N.3     1  UNL1       -0.2511
     30 C           1.5202   -0.5586   19.8969 C.3     1  UNL1        0.0742
     31 C           0.2916    0.1339   20.4077 C.3     1  UNL1        0.0175
     32 C           0.3931    1.0885   21.5602 C.3     1  UNL1        0.0031
     33 C           1.7232    1.3507   22.2020 C.3     1  UNL1        0.0205
     34 C           2.9518    0.6582   21.6913 C.3     1  UNL1        0.0745
     35 C           1.8247    2.3054   23.3545 C.3     1  UNL1        0.0277
     36 C           1.0702    2.0337   24.6221 C.ar    1  UNL1       -0.0220
     37 C           1.7129    1.2424   25.7226 C.ar    1  UNL1       -0.0020
     38 C           0.9584    0.9707   26.9902 C.ar    1  UNL1        0.0293
     39 C          -0.4388    1.4903   27.1574 C.ar    1  UNL1        0.1401
     40 F          -1.1933    1.2185   28.4251 F       1  UNL1       -0.2042
     41 C          -1.0814    2.2815   26.0571 C.ar    1  UNL1        0.0293
     42 C          -0.3269    2.5533   24.7894 C.ar    1  UNL1       -0.0020
@<TRIPOS>BOND
     1    24    23    1
     2    24    25    1
     3    25    26    1
     4    26    27    1
     5    26    29    1
     6    29    30    1
     7    30    31    1
     8    31    32    1
     9    32    33    1
    10    33    35    1
    11    35    36    1
    12    36    37   ar
    13    37    38   ar
    14    38    39   ar
    15    39    40    1
    16    39    41   ar
    17    41    42   ar
    18    33    34    1
    19    24     1    1
    20     1     2   am
    21     2     3    2
    22     2     4   am
    23     4     7    1
    24     7     8   ar
    25     8     9   ar
    26     9    13    1
    27    13    14   ar
    28    14    15   ar
    29    15    16   ar
    30    16    17   ar
    31     9    10   ar
    32    10    11   ar
    33    11    18    1
    34    18    19   ar
    35    19    20   ar
    36    20    21   ar
    37    21    22   ar
    38    11    12   ar
    39    34    29    1
    40    12     7   ar
    41    42    36   ar
    42    17    13   ar
    43    22    18   ar
    44    27    28    1
    45     1     5    1
    46     4     6    1
@<TRIPOS>MOLECULE
*****
 42 46 0 0 0
SMALL
GASTEIGER

@<TRIPOS>ATOM
      1 N          -1.6391    2.5104   20.1561 N.am    1  UNL1       -0.2902
      2 C          -0.3140    1.9898   20.6284 C.2     1  UNL1        0.3044
      3 O           0.7204    2.9398   21.1552 O.2     1  UNL1       -0.2525
      4 N          -0.0233    0.5193   20.5740 N.am    1  UNL1       -0.2682
      5 H          -2.3180    1.8869   19.8103 H       1  UNL1        0.1509
      6 H          -0.7023   -0.1043   20.2283 H       1  UNL1        0.1564
      7 C           1.3017   -0.0013   21.0463 C.ar    1  UNL1        0.0546
      8 C           1.6221   -0.0173   22.5117 C.ar    1  UNL1        0.0340
      9 C           2.9472   -0.5379   22.9840 C.ar    1  UNL1        0.0872
     10 C           3.9519   -1.0425   21.9911 C.ar    1  UNL1        0.0385
     11 C           3.6316   -1.0265   20.5258 C.ar    1  UNL1        0.0872
     12 C           2.3064   -0.5059   20.0534 C.ar    1  UNL1        0.0340
     13 N           3.2675   -0.5539   24.4493 N.ar    1  UNL1       -0.2088
     14 C           4.1956   -1.5098   25.1386 C.ar    1  UNL1        0.1245
     15 C           4.2178   -1.1635   26.5979 C.ar    1  UNL1        0.1445
     16 N           3.3034    0.0064   26.8106 N.ar    1  UNL1       -0.1268
     17 N           2.7161    0.3832   25.4826 N.ar    1  UNL1       -0.0595
     18 N           4.6363   -1.5311   19.5329 N.ar    1  UNL1       -0.2088
     19 C           6.0338   -1.9794   19.8429 C.ar    1  UNL1        0.1245
     20 C           6.6811   -2.4014   18.5571 C.ar    1  UNL1        0.1445
     21 N           5.6837   -2.2139   17.4526 N.ar    1  UNL1       -0.1268
     22 N           4.4199   -1.6761   18.0557 N.ar    1  UNL1       -0.0595
     23 C          -1.1505    4.9318   19.3511 C.3     1  UNL1        0.0214
     24 C          -1.9297    3.9810   20.2105 C.3     1  UNL1        0.0770
     25 C          -2.9997    4.5007   21.1244 C.3     1  UNL1        0.0661
     26 C          -3.7646    3.5522   21.9992 C.3     1  UNL1        0.1738
     27 O          -4.5535    2.4347   21.3838 O.3     1  UNL1       -0.3697
     28 H          -4.9844    1.9195   22.0837 H       1  UNL1        0.2119
     29 N          -3.7406    3.7213   23.4895 N.3     1  UNL1       -0.2511
     30 C          -5.0234    3.7062   24.2668 C.3     1  UNL1        0.0742
     31 C          -4.9994    3.8753   25.7570 C.3     1  UNL1        0.0175
     32 C          -3.6926    4.0595   26.4699 C.3     1  UNL1        0.0031
     33 C          -2.4098    4.0747   25.6926 C.3     1  UNL1        0.0205
     34 C          -2.4338    3.9056   24.2024 C.3     1  UNL1        0.0745
     35 C          -1.1030    4.2590   26.4056 C.3     1  UNL1        0.0277
     36 C          -0.5521    3.1553   27.2590 C.ar    1  UNL1       -0.0220
     37 C          -0.8495    1.7248   26.9193 C.ar    1  UNL1       -0.0020
     38 C          -0.2986    0.6211   27.7727 C.ar    1  UNL1        0.0293
     39 C           0.5498    0.9479   28.9657 C.ar    1  UNL1        0.1401
     40 F           1.1008   -0.1559   29.8192 F       1  UNL1       -0.2042
     41 C           0.8473    2.3782   29.3054 C.ar    1  UNL1        0.0293
     42 C           0.2964    3.4820   28.4520 C.ar    1  UNL1       -0.0020
@<TRIPOS>BOND
     1    24    23    1
     2    24    25    1
     3    25    26    1
     4    26    27    1
     5    26    29    1
     6    29    30    1
     7    30    31    1
     8    31    32    1
     9    32    33    1
    10    33    35    1
    11    35    36    1
    12    36    37   ar
    13    37    38   ar
    14    38    39   ar
    15    39    40    1
    16    39    41   ar
    17    41    42   ar
    18    33    34    1
    19    24     1    1
    20     1     2   am
    21     2     3    2
    22     2     4   am
    23     4     7    1
    24     7     8   ar
    25     8     9   ar
    26     9    13    1
    27    13    14   ar
    28    14    15   ar
    29    15    16   ar
    30    16    17   ar
    31     9    10   ar
    32    10    11   ar
    33    11    18    1
    34    18    19   ar
    35    19    20   ar
    36    20    21   ar
    37    21    22   ar
    38    11    12   ar
    39    34    29    1
    40    12     7   ar
    41    42    36   ar
    42    17    13   ar
    43    22    18   ar
    44    27    28    1
    45     1     5    1
    46     4     6    1
