@<TRIPOS>MOLECULE
*****
 39 43 0 0 0
SMALL
GASTEIGER

@<TRIPOS>ATOM
      1 C           2.3608    0.9669   22.6870 C.3     1  UNL1        0.1408
      2 C           1.4559    1.6843   23.6441 C.3     1  UNL1        0.1231
      3 N           1.8325    1.2712   25.0361 N.am    1  UNL1       -0.2783
      4 C           1.5060    1.4593   26.4880 C.2     1  UNL1        0.2253
      5 O           0.4321    2.3479   27.0422 O.2     1  UNL1       -0.2749
      6 C           2.4419    0.6028   27.2884 C.3     1  UNL1        0.0807
      7 C           2.8184    0.1898   28.6804 C.3     1  UNL1        0.0360
      8 C           3.9561   -0.7829   28.5834 C.3     1  UNL1        0.0889
      9 C           3.8634   -0.7989   30.0804 C.3     1  UNL1        0.0293
     10 O           5.0745   -1.7590   28.7994 O.3     1  UNL1       -0.3867
     11 C           4.2827   -0.9711   27.1315 C.3     1  UNL1        0.0291
     12 C           3.3468   -0.1146   26.3311 C.3     1  UNL1        0.0296
     13 C           2.9702    0.2984   24.9392 C.3     1  UNL1        0.0823
     14 C           3.2967    0.1104   23.4873 C.3     1  UNL1        0.0694
     15 H           5.1870   -1.9166   29.7498 H       1  UNL1        0.2102
     16 C           4.3707   -0.7782   22.9330 C.ar    1  UNL1       -0.0183
     17 C           4.2803   -2.2648   23.1114 C.ar    1  UNL1       -0.0018
     18 C           5.3542   -3.1533   22.5571 C.ar    1  UNL1        0.0293
     19 C           6.5185   -2.5552   21.8245 C.ar    1  UNL1        0.1401
     20 F           7.5924   -3.4439   21.2702 F       1  UNL1       -0.2042
     21 C           6.6089   -1.0686   21.6461 C.ar    1  UNL1        0.0293
     22 C           5.5349   -0.1801   22.2004 C.ar    1  UNL1       -0.0018
     23 O           2.3346    1.0851   21.1918 O.3     1  UNL1       -0.3522
     24 C           0.5236   -0.5034   20.2185 C.3     1  UNL1        0.0370
     25 C           1.9624   -0.1010   20.3522 C.3     1  UNL1        0.1375
     26 C           3.0291   -0.8846   19.6464 C.ar    1  UNL1        0.0044
     27 C           3.0450   -2.3817   19.7386 C.ar    1  UNL1        0.0019
     28 C           4.1116   -3.1653   19.0328 C.ar    1  UNL1        0.0711
     29 C           5.1624   -2.4518   18.2347 C.ar    1  UNL1        0.0077
     30 C           5.1465   -0.9547   18.1426 C.ar    1  UNL1        0.0711
     31 C           4.0798   -0.1711   18.8484 C.ar    1  UNL1        0.0019
     32 C           4.1276   -4.6623   19.1249 C.3     1  UNL1        0.4186
     33 F           4.1434   -6.1594   19.2171 F       1  UNL1       -0.1659
     34 F           5.6058   -4.6311   19.3774 F       1  UNL1       -0.1659
     35 F           2.6492   -4.6936   18.8725 F       1  UNL1       -0.1659
     36 C           6.1973   -0.2412   17.3445 C.3     1  UNL1        0.4186
     37 F           7.2481    0.4723   16.5465 F       1  UNL1       -0.1659
     38 F           5.1568    0.1765   16.3480 F       1  UNL1       -0.1659
     39 F           7.2377   -0.6588   18.3410 F       1  UNL1       -0.1659
@<TRIPOS>BOND
     1    25    24    1
     2    25    23    1
     3     1    23    1
     4     1     2    1
     5     2     3    1
     6     3     4   am
     7     4     5    2
     8     4     6    1
     9     6     7    1
    10     7     8    1
    11     8     9    1
    12     8    10    1
    13     8    11    1
    14    12    11    1
    15    12    13    1
    16    13    14    1
    17    14    16    1
    18    16    17   ar
    19    17    18   ar
    20    18    19   ar
    21    19    20    1
    22    19    21   ar
    23    21    22   ar
    24    25    26    1
    25    26    27   ar
    26    27    28   ar
    27    28    32    1
    28    32    33    1
    29    32    34    1
    30    32    35    1
    31    28    29   ar
    32    29    30   ar
    33    30    36    1
    34    36    37    1
    35    36    38    1
    36    36    39    1
    37    30    31   ar
    38    14     1    1
    39    22    16   ar
    40    31    26   ar
    41    13     3    1
    42    12     6    1
    43    10    15    1
@<TRIPOS>MOLECULE
*****
 39 43 0 0 0
SMALL
GASTEIGER

@<TRIPOS>ATOM
      1 C           2.3286    0.9538   22.6719 C.3     1  UNL1        0.1408
      2 C           1.4154    1.6641   23.6265 C.3     1  UNL1        0.1231
      3 N           1.7902    1.2527   25.0195 N.am    1  UNL1       -0.2783
      4 C           1.4574    1.4374   26.4704 C.2     1  UNL1        0.2253
      5 O           0.3754    2.3180   27.0216 O.2     1  UNL1       -0.2749
      6 C           2.3966    0.5870   27.2733 C.3     1  UNL1        0.0807
      7 C           2.7714    0.1755   28.6663 C.3     1  UNL1        0.0360
      8 C           3.9163   -0.7891   28.5724 C.3     1  UNL1        0.0889
      9 C           3.8186   -0.8068   30.0691 C.3     1  UNL1        0.0293
     10 O           5.0407   -1.7574   28.7915 O.3     1  UNL1       -0.3867
     11 C           4.2490   -0.9738   27.1215 C.3     1  UNL1        0.0291
     12 C           3.3099   -0.1234   26.3186 C.3     1  UNL1        0.0296
     13 C           2.9351    0.2880   24.9257 C.3     1  UNL1        0.0823
     14 C           3.2678    0.1033   23.4748 C.3     1  UNL1        0.0694
     15 H           5.1511   -1.9149   29.7423 H       1  UNL1        0.2102
     16 C           4.3498   -0.7773   22.9235 C.ar    1  UNL1       -0.0183
     17 C           4.2720   -2.2642   23.1052 C.ar    1  UNL1       -0.0018
     18 C           5.3540   -3.1447   22.5539 C.ar    1  UNL1        0.0293
     19 C           6.5138   -2.5383   21.8210 C.ar    1  UNL1        0.1401
     20 F           7.5959   -3.4190   21.2697 F       1  UNL1       -0.2042
     21 C           6.5917   -1.0514   21.6394 C.ar    1  UNL1        0.0293
     22 C           5.5096   -0.1709   22.1907 C.ar    1  UNL1       -0.0018
     23 O           2.3066    1.0729   21.1768 O.3     1  UNL1       -0.3522
     24 C           0.5018   -0.5163   20.1933 C.3     1  UNL1        0.0370
     25 C           1.9396   -0.1134   20.3353 C.3     1  UNL1        0.1375
     26 C           3.0106   -0.8968   19.6359 C.ar    1  UNL1        0.0044
     27 C           4.0654   -0.1832   18.8431 C.ar    1  UNL1        0.0019
     28 C           5.1363   -0.9666   18.1436 C.ar    1  UNL1        0.0711
     29 C           5.1526   -2.4637   18.2369 C.ar    1  UNL1        0.0077
     30 C           4.0979   -3.1773   19.0296 C.ar    1  UNL1        0.0711
     31 C           3.0269   -2.3939   19.7291 C.ar    1  UNL1        0.0019
     32 C           6.1910   -0.2531   17.3509 C.3     1  UNL1        0.4186
     33 F           7.2458    0.4604   16.5583 F       1  UNL1       -0.1659
     34 F           5.1561    0.1624   16.3478 F       1  UNL1       -0.1659
     35 F           7.2260   -0.6686   18.3541 F       1  UNL1       -0.1659
     36 C           4.1141   -4.6743   19.1229 C.3     1  UNL1        0.4186
     37 F           4.1304   -6.1713   19.2161 F       1  UNL1       -0.1659
     38 F           2.6351   -4.7058   18.8752 F       1  UNL1       -0.1659
     39 F           5.5931   -4.6428   19.3706 F       1  UNL1       -0.1659
@<TRIPOS>BOND
     1    25    24    1
     2    25    23    1
     3     1    23    1
     4     1     2    1
     5     2     3    1
     6     3     4   am
     7     4     5    2
     8     4     6    1
     9     6     7    1
    10     7     8    1
    11     8     9    1
    12     8    10    1
    13     8    11    1
    14    12    11    1
    15    12    13    1
    16    13    14    1
    17    14    16    1
    18    16    17   ar
    19    17    18   ar
    20    18    19   ar
    21    19    20    1
    22    19    21   ar
    23    21    22   ar
    24    25    26    1
    25    26    27   ar
    26    27    28   ar
    27    28    32    1
    28    32    33    1
    29    32    34    1
    30    32    35    1
    31    28    29   ar
    32    29    30   ar
    33    30    36    1
    34    36    37    1
    35    36    38    1
    36    36    39    1
    37    30    31   ar
    38    14     1    1
    39    22    16   ar
    40    31    26   ar
    41    13     3    1
    42    12     6    1
    43    10    15    1
@<TRIPOS>MOLECULE
*****
 39 43 0 0 0
SMALL
GASTEIGER

@<TRIPOS>ATOM
      1 C           3.5872    0.0838   23.3446 C.3     1  UNL1        0.1408
      2 C           2.8506   -0.0487   24.6444 C.3     1  UNL1        0.1231
      3 N           3.7236   -0.8113   25.5963 N.am    1  UNL1       -0.2783
      4 C           3.8080   -1.3646   26.9880 C.2     1  UNL1        0.2253
      5 O           2.7498   -1.2560   28.0456 O.2     1  UNL1       -0.2749
      6 C           5.1363   -2.0454   27.1365 C.3     1  UNL1        0.0807
      7 C           6.0093   -2.8081   28.0884 C.3     1  UNL1        0.0360
      8 C           7.2855   -3.1470   27.3768 C.3     1  UNL1        0.0889
      9 C           7.6527   -3.7996   28.6765 C.3     1  UNL1        0.0293
     10 O           8.6385   -3.6224   26.9369 O.3     1  UNL1       -0.3867
     11 C           7.2012   -2.5938   25.9851 C.3     1  UNL1        0.0291
     12 C           5.8729   -1.9130   25.8366 C.3     1  UNL1        0.0296
     13 C           4.9999   -1.1503   24.8847 C.3     1  UNL1        0.0823
     14 C           4.9155   -0.5971   23.4930 C.3     1  UNL1        0.0694
     15 H           9.0685   -4.0944   27.6670 H       1  UNL1        0.2102
     16 C           5.9738   -0.7056   22.4354 C.ar    1  UNL1       -0.0183
     17 C           6.5593    0.5357   21.8302 C.ar    1  UNL1       -0.0018
     18 C           7.6175    0.4271   20.7726 C.ar    1  UNL1        0.0293
     19 C           8.0901   -0.9228   20.3203 C.ar    1  UNL1        0.1401
     20 F           9.1484   -1.0313   19.2627 F       1  UNL1       -0.2042
     21 C           7.5046   -2.1640   20.9256 C.ar    1  UNL1        0.0293
     22 C           6.4464   -2.0555   21.9831 C.ar    1  UNL1       -0.0018
     23 O           3.0840    0.7756   22.1124 O.3     1  UNL1       -0.3522
     24 C           0.9747   -0.0351   20.8302 C.3     1  UNL1        0.0370
     25 C           2.4646   -0.0231   21.0040 C.3     1  UNL1        0.1375
     26 C           3.3350   -0.8098   20.0694 C.ar    1  UNL1        0.0044
     27 C           4.2413   -0.0970   19.1098 C.ar    1  UNL1        0.0019
     28 C           5.1118   -0.8837   18.1752 C.ar    1  UNL1        0.0711
     29 C           5.0760   -2.3831   18.2002 C.ar    1  UNL1        0.0077
     30 C           4.1697   -3.0958   19.1598 C.ar    1  UNL1        0.0711
     31 C           3.2993   -2.3091   20.0944 C.ar    1  UNL1        0.0019
     32 C           6.0180   -0.1711   17.2157 C.3     1  UNL1        0.4186
     33 F           6.9243    0.5415   16.2561 F       1  UNL1       -0.1659
     34 F           5.0569    0.9794   17.1623 F       1  UNL1       -0.1659
     35 F           6.9791   -1.3215   17.2690 F       1  UNL1       -0.1659
     36 C           4.1339   -4.5952   19.1848 C.3     1  UNL1        0.4186
     37 F           4.0982   -6.0946   19.2098 F       1  UNL1       -0.1659
     38 F           5.5877   -4.6237   19.5536 F       1  UNL1       -0.1659
     39 F           2.6803   -4.5667   18.8161 F       1  UNL1       -0.1659
@<TRIPOS>BOND
     1    25    24    1
     2    25    23    1
     3     1    23    1
     4     1     2    1
     5     2     3    1
     6     3     4   am
     7     4     5    2
     8     4     6    1
     9     6     7    1
    10     7     8    1
    11     8     9    1
    12     8    10    1
    13     8    11    1
    14    12    11    1
    15    12    13    1
    16    13    14    1
    17    14    16    1
    18    16    17   ar
    19    17    18   ar
    20    18    19   ar
    21    19    20    1
    22    19    21   ar
    23    21    22   ar
    24    25    26    1
    25    26    27   ar
    26    27    28   ar
    27    28    32    1
    28    32    33    1
    29    32    34    1
    30    32    35    1
    31    28    29   ar
    32    29    30   ar
    33    30    36    1
    34    36    37    1
    35    36    38    1
    36    36    39    1
    37    30    31   ar
    38    14     1    1
    39    22    16   ar
    40    31    26   ar
    41    13     3    1
    42    12     6    1
    43    10    15    1
@<TRIPOS>MOLECULE
*****
 39 43 0 0 0
SMALL
GASTEIGER

@<TRIPOS>ATOM
      1 C           1.9315    1.9238   21.3580 C.3     1  UNL1        0.1408
      2 C           0.7016    2.7384   21.6294 C.3     1  UNL1        0.1231
      3 N           0.2983    2.5078   23.0556 N.am    1  UNL1       -0.2783
      4 C          -0.7111    2.8688   24.1049 C.2     1  UNL1        0.2253
      5 O          -1.8733    3.8003   23.9268 O.2     1  UNL1       -0.2749
      6 C          -0.3543    2.1348   25.3634 C.3     1  UNL1        0.0807
      7 C          -0.7576    1.9043   26.7896 C.3     1  UNL1        0.0360
      8 C           0.2231    0.9472   27.3997 C.3     1  UNL1        0.0889
      9 C          -0.6180    1.1154   28.6302 C.3     1  UNL1        0.0293
     10 O           1.0279    0.0253   28.2670 O.3     1  UNL1       -0.3867
     11 C           1.2325    0.5862   26.3505 C.3     1  UNL1        0.0291
     12 C           0.8757    1.3202   25.0920 C.3     1  UNL1        0.0296
     13 C           1.2790    1.5507   23.6657 C.3     1  UNL1        0.0823
     14 C           2.2883    1.1898   22.6165 C.3     1  UNL1        0.0694
     15 H           0.6342   -0.0112   29.1528 H       1  UNL1        0.2102
     16 C           3.4506    0.2583   22.7946 C.ar    1  UNL1       -0.0183
     17 C           4.8503    0.7585   22.5935 C.ar    1  UNL1       -0.0018
     18 C           6.0125   -0.1730   22.7716 C.ar    1  UNL1        0.0293
     19 C           5.7749   -1.6047   23.1507 C.ar    1  UNL1        0.1401
     20 F           6.9371   -2.5362   23.3288 F       1  UNL1       -0.2042
     21 C           4.3751   -2.1050   23.3518 C.ar    1  UNL1        0.0293
     22 C           3.2130   -1.1735   23.1737 C.ar    1  UNL1       -0.0018
     23 O           2.6742    1.8551   20.0566 O.3     1  UNL1       -0.3522
     24 C           1.4065    0.5324   18.2145 C.3     1  UNL1        0.0370
     25 C           2.5464    0.6423   19.1833 C.3     1  UNL1        0.1375
     26 C           3.5585   -0.4607   19.2786 C.ar    1  UNL1        0.0044
     27 C           3.1126   -1.8659   19.5555 C.ar    1  UNL1        0.0019
     28 C           4.1248   -2.9689   19.6509 C.ar    1  UNL1        0.0711
     29 C           5.5828   -2.6667   19.4694 C.ar    1  UNL1        0.0077
     30 C           6.0286   -1.2614   19.1925 C.ar    1  UNL1        0.0711
     31 C           5.0165   -0.1585   19.0972 C.ar    1  UNL1        0.0019
     32 C           3.6789   -4.3740   19.9278 C.3     1  UNL1        0.4186
     33 F           3.2332   -5.7792   20.2048 F       1  UNL1       -0.1659
     34 F           2.8678   -4.3653   18.6661 F       1  UNL1       -0.1659
     35 F           4.4901   -4.3827   21.1896 F       1  UNL1       -0.1659
     36 C           7.4866   -0.9592   19.0110 C.3     1  UNL1        0.4186
     37 F           8.9446   -0.6570   18.8295 F       1  UNL1       -0.1659
     38 F           7.6729   -2.2753   18.3160 F       1  UNL1       -0.1659
     39 F           7.3004    0.3569   19.7061 F       1  UNL1       -0.1659
@<TRIPOS>BOND
     1    25    24    1
     2    25    23    1
     3     1    23    1
     4     1     2    1
     5     2     3    1
     6     3     4   am
     7     4     5    2
     8     4     6    1
     9     6     7    1
    10     7     8    1
    11     8     9    1
    12     8    10    1
    13     8    11    1
    14    12    11    1
    15    12    13    1
    16    13    14    1
    17    14    16    1
    18    16    17   ar
    19    17    18   ar
    20    18    19   ar
    21    19    20    1
    22    19    21   ar
    23    21    22   ar
    24    25    26    1
    25    26    27   ar
    26    27    28   ar
    27    28    32    1
    28    32    33    1
    29    32    34    1
    30    32    35    1
    31    28    29   ar
    32    29    30   ar
    33    30    36    1
    34    36    37    1
    35    36    38    1
    36    36    39    1
    37    30    31   ar
    38    14     1    1
    39    22    16   ar
    40    31    26   ar
    41    13     3    1
    42    12     6    1
    43    10    15    1
@<TRIPOS>MOLECULE
*****
 39 43 0 0 0
SMALL
GASTEIGER

@<TRIPOS>ATOM
      1 C           1.8669    1.9502   21.3762 C.3     1  UNL1        0.1408
      2 C           0.6403    2.7641   21.6637 C.3     1  UNL1        0.1231
      3 N           0.2503    2.5261   23.0924 N.am    1  UNL1       -0.2783
      4 C          -0.7488    2.8821   24.1531 C.2     1  UNL1        0.2253
      5 O          -1.9120    3.8153   23.9911 O.2     1  UNL1       -0.2749
      6 C          -0.3806    2.1410   25.4042 C.3     1  UNL1        0.0807
      7 C          -0.7706    1.9030   26.8329 C.3     1  UNL1        0.0360
      8 C           0.2152    0.9419   27.4285 C.3     1  UNL1        0.0889
      9 C          -0.6141    1.1041   28.6678 C.3     1  UNL1        0.0293
     10 O           1.0275    0.0148   28.2831 O.3     1  UNL1       -0.3867
     11 C           1.2143    0.5860   26.3678 C.3     1  UNL1        0.0291
     12 C           0.8461    1.3270   25.1167 C.3     1  UNL1        0.0296
     13 C           1.2361    1.5650   23.6880 C.3     1  UNL1        0.0823
     14 C           2.2351    1.2091   22.6273 C.3     1  UNL1        0.0694
     15 H           0.6421   -0.0263   29.1723 H       1  UNL1        0.2102
     16 C           3.3983    0.2759   22.7893 C.ar    1  UNL1       -0.0183
     17 C           4.7987    0.7868   22.6223 C.ar    1  UNL1       -0.0018
     18 C           5.9618   -0.1464   22.7843 C.ar    1  UNL1        0.0293
     19 C           5.7245   -1.5906   23.1132 C.ar    1  UNL1        0.1401
     20 F           6.8877   -2.5238   23.2752 F       1  UNL1       -0.2042
     21 C           4.3242   -2.1015   23.2802 C.ar    1  UNL1        0.0293
     22 C           3.1611   -1.1682   23.1183 C.ar    1  UNL1       -0.0018
     23 O           2.5973    1.8881   20.0675 O.3     1  UNL1       -0.3522
     24 C           1.3135    0.5718   18.2320 C.3     1  UNL1        0.0370
     25 C           2.4625    0.6789   19.1902 C.3     1  UNL1        0.1375
     26 C           3.4769   -0.4231   19.2710 C.ar    1  UNL1        0.0044
     27 C           4.9348   -0.1148   19.0987 C.ar    1  UNL1        0.0019
     28 C           5.9491   -1.2168   19.1796 C.ar    1  UNL1        0.0711
     29 C           5.5057   -2.6272   19.4327 C.ar    1  UNL1        0.0077
     30 C           4.0478   -2.9356   19.6049 C.ar    1  UNL1        0.0711
     31 C           3.0334   -1.8336   19.5241 C.ar    1  UNL1        0.0019
     32 C           7.4069   -0.9085   19.0073 C.3     1  UNL1        0.4186
     33 F           8.8647   -0.6003   18.8351 F       1  UNL1       -0.1659
     34 F           7.2175    0.3917   19.7310 F       1  UNL1       -0.1659
     35 F           7.5963   -2.2087   18.2836 F       1  UNL1       -0.1659
     36 C           3.6043   -4.3460   19.8580 C.3     1  UNL1        0.4186
     37 F           3.1609   -5.7565   20.1111 F       1  UNL1       -0.1659
     38 F           2.7773   -4.3105   18.6071 F       1  UNL1       -0.1659
     39 F           4.4313   -4.3816   21.1089 F       1  UNL1       -0.1659
@<TRIPOS>BOND
     1    25    24    1
     2    25    23    1
     3     1    23    1
     4     1     2    1
     5     2     3    1
     6     3     4   am
     7     4     5    2
     8     4     6    1
     9     6     7    1
    10     7     8    1
    11     8     9    1
    12     8    10    1
    13     8    11    1
    14    12    11    1
    15    12    13    1
    16    13    14    1
    17    14    16    1
    18    16    17   ar
    19    17    18   ar
    20    18    19   ar
    21    19    20    1
    22    19    21   ar
    23    21    22   ar
    24    25    26    1
    25    26    27   ar
    26    27    28   ar
    27    28    32    1
    28    32    33    1
    29    32    34    1
    30    32    35    1
    31    28    29   ar
    32    29    30   ar
    33    30    36    1
    34    36    37    1
    35    36    38    1
    36    36    39    1
    37    30    31   ar
    38    14     1    1
    39    22    16   ar
    40    31    26   ar
    41    13     3    1
    42    12     6    1
    43    10    15    1
@<TRIPOS>MOLECULE
*****
 39 43 0 0 0
SMALL
GASTEIGER

@<TRIPOS>ATOM
      1 C           7.1798   -3.9132   20.8869 C.3     1  UNL1        0.1408
      2 C           8.0675   -5.0717   21.2329 C.3     1  UNL1        0.1231
      3 N           8.0391   -5.2488   22.7222 N.am    1  UNL1       -0.2783
      4 C           8.5701   -6.0743   23.8565 C.2     1  UNL1        0.2253
      5 O           9.5127   -7.2349   23.7364 O.2     1  UNL1       -0.2749
      6 C           7.9930   -5.5354   25.1319 C.3     1  UNL1        0.0807
      7 C           7.9646   -5.7125   26.6211 C.3     1  UNL1        0.0360
      8 C           7.0593   -4.6634   27.1954 C.3     1  UNL1        0.0889
      9 C           7.4167   -5.2973   28.5071 C.3     1  UNL1        0.0293
     10 O           6.2288   -3.7469   28.0440 O.3     1  UNL1       -0.3867
     11 C           6.5283   -3.8379   26.0612 C.3     1  UNL1        0.0291
     12 C           7.1053   -4.3768   24.7858 C.3     1  UNL1        0.0296
     13 C           7.1338   -4.1997   23.2966 C.3     1  UNL1        0.0823
     14 C           6.6028   -3.3743   22.1623 C.3     1  UNL1        0.0694
     15 H           6.3221   -3.9966   28.9766 H       1  UNL1        0.2102
     16 C           5.6601   -2.2136   22.2823 C.ar    1  UNL1       -0.0183
     17 C           4.2804   -2.4218   22.8327 C.ar    1  UNL1       -0.0018
     18 C           3.3378   -1.2612   22.9526 C.ar    1  UNL1        0.0293
     19 C           3.7749    0.1077   22.5222 C.ar    1  UNL1        0.1401
     20 F           2.8323    1.2684   22.6423 F       1  UNL1       -0.2042
     21 C           5.1547    0.3159   21.9719 C.ar    1  UNL1        0.0293
     22 C           6.0973   -0.8448   21.8519 C.ar    1  UNL1       -0.0018
     23 O           6.9155   -3.3861   19.5077 O.3     1  UNL1       -0.3522
     24 C           4.7291   -4.5584   18.7363 C.3     1  UNL1        0.0370
     25 C           5.5089   -3.3031   18.9934 C.3     1  UNL1        0.1375
     26 C           4.8821   -1.9649   18.7361 C.ar    1  UNL1        0.0044
     27 C           3.4863   -1.6868   19.2103 C.ar    1  UNL1        0.0019
     28 C           2.8595   -0.3485   18.9531 C.ar    1  UNL1        0.0711
     29 C           3.6283    0.7116   18.2216 C.ar    1  UNL1        0.0077
     30 C           5.0240    0.4335   17.7474 C.ar    1  UNL1        0.0711
     31 C           5.6509   -0.9047   18.0047 C.ar    1  UNL1        0.0019
     32 C           1.4639   -0.0704   19.4272 C.3     1  UNL1        0.4186
     33 F           0.0683    0.2076   19.9014 F       1  UNL1       -0.1659
     34 F           1.4126    1.1519   18.5593 F       1  UNL1       -0.1659
     35 F           1.5153   -1.2928   20.2952 F       1  UNL1       -0.1659
     36 C           5.7929    1.4937   17.0160 C.3     1  UNL1        0.4186
     37 F           6.5617    2.5539   16.2845 F       1  UNL1       -0.1659
     38 F           6.6773    0.4399   16.4182 F       1  UNL1       -0.1659
     39 F           4.9085    2.5474   17.6137 F       1  UNL1       -0.1659
@<TRIPOS>BOND
     1    25    24    1
     2    25    23    1
     3     1    23    1
     4     1     2    1
     5     2     3    1
     6     3     4   am
     7     4     5    2
     8     4     6    1
     9     6     7    1
    10     7     8    1
    11     8     9    1
    12     8    10    1
    13     8    11    1
    14    12    11    1
    15    12    13    1
    16    13    14    1
    17    14    16    1
    18    16    17   ar
    19    17    18   ar
    20    18    19   ar
    21    19    20    1
    22    19    21   ar
    23    21    22   ar
    24    25    26    1
    25    26    27   ar
    26    27    28   ar
    27    28    32    1
    28    32    33    1
    29    32    34    1
    30    32    35    1
    31    28    29   ar
    32    29    30   ar
    33    30    36    1
    34    36    37    1
    35    36    38    1
    36    36    39    1
    37    30    31   ar
    38    14     1    1
    39    22    16   ar
    40    31    26   ar
    41    13     3    1
    42    12     6    1
    43    10    15    1
@<TRIPOS>MOLECULE
*****
 39 43 0 0 0
SMALL
GASTEIGER

@<TRIPOS>ATOM
      1 C           7.1837   -3.9093   20.8462 C.3     1  UNL1        0.1408
      2 C           8.0669   -5.0780   21.1685 C.3     1  UNL1        0.1231
      3 N           8.0362   -5.2865   22.6536 N.am    1  UNL1       -0.2783
      4 C           8.5630   -6.1377   23.7708 C.2     1  UNL1        0.2253
      5 O           9.5018   -7.2988   23.6271 O.2     1  UNL1       -0.2749
      6 C           7.9864   -5.6240   25.0566 C.3     1  UNL1        0.0807
      7 C           7.9557   -5.8326   26.5417 C.3     1  UNL1        0.0360
      8 C           7.0534   -4.7927   27.1372 C.3     1  UNL1        0.0889
      9 C           7.4071   -5.4555   28.4355 C.3     1  UNL1        0.0293
     10 O           6.2250   -3.8915   28.0041 O.3     1  UNL1       -0.3867
     11 C           6.5265   -3.9415   26.0202 C.3     1  UNL1        0.0291
     12 C           7.1031   -4.4553   24.7343 C.3     1  UNL1        0.0296
     13 C           7.1339   -4.2467   23.2492 C.3     1  UNL1        0.0823
     14 C           6.6070   -3.3956   22.1321 C.3     1  UNL1        0.0694
     15 H           6.3164   -4.1613   28.9314 H       1  UNL1        0.2102
     16 C           5.6683   -2.2344   22.2757 C.ar    1  UNL1       -0.0183
     17 C           4.2858   -2.4500   22.8162 C.ar    1  UNL1       -0.0018
     18 C           3.3471   -1.2889   22.9598 C.ar    1  UNL1        0.0293
     19 C           3.7909    0.0879   22.5628 C.ar    1  UNL1        0.1401
     20 F           2.8521    1.2491   22.7064 F       1  UNL1       -0.2042
     21 C           5.1734    0.3035   22.0224 C.ar    1  UNL1        0.0293
     22 C           6.1121   -0.8576   21.8788 C.ar    1  UNL1       -0.0018
     23 O           6.9228   -3.3521   19.4782 O.3     1  UNL1       -0.3522
     24 C           4.7417   -4.5136   18.6758 C.3     1  UNL1        0.0370
     25 C           5.5178   -3.2620   18.9606 C.3     1  UNL1        0.1375
     26 C           4.8889   -1.9203   18.7277 C.ar    1  UNL1        0.0044
     27 C           5.6520   -0.8492   18.0062 C.ar    1  UNL1        0.0019
     28 C           5.0231    0.4925   17.7733 C.ar    1  UNL1        0.0711
     29 C           3.6310    0.7632   18.2620 C.ar    1  UNL1        0.0077
     30 C           2.8679   -0.3078   18.9836 C.ar    1  UNL1        0.0711
     31 C           3.4968   -1.6495   19.2164 C.ar    1  UNL1        0.0019
     32 C           5.7862    1.5635   17.0518 C.3     1  UNL1        0.4186
     33 F           6.5492    2.6345   16.3304 F       1  UNL1       -0.1659
     34 F           6.6023    0.5140   16.3571 F       1  UNL1       -0.1659
     35 F           4.9701    2.6130   17.7466 F       1  UNL1       -0.1659
     36 C           1.4758   -0.0370   19.4723 C.3     1  UNL1        0.4186
     37 F           0.0837    0.2337   19.9610 F       1  UNL1       -0.1659
     38 F           1.4296    1.2149   18.6473 F       1  UNL1       -0.1659
     39 F           1.5219   -1.2889   20.2973 F       1  UNL1       -0.1659
@<TRIPOS>BOND
     1    25    24    1
     2    25    23    1
     3     1    23    1
     4     1     2    1
     5     2     3    1
     6     3     4   am
     7     4     5    2
     8     4     6    1
     9     6     7    1
    10     7     8    1
    11     8     9    1
    12     8    10    1
    13     8    11    1
    14    12    11    1
    15    12    13    1
    16    13    14    1
    17    14    16    1
    18    16    17   ar
    19    17    18   ar
    20    18    19   ar
    21    19    20    1
    22    19    21   ar
    23    21    22   ar
    24    25    26    1
    25    26    27   ar
    26    27    28   ar
    27    28    32    1
    28    32    33    1
    29    32    34    1
    30    32    35    1
    31    28    29   ar
    32    29    30   ar
    33    30    36    1
    34    36    37    1
    35    36    38    1
    36    36    39    1
    37    30    31   ar
    38    14     1    1
    39    22    16   ar
    40    31    26   ar
    41    13     3    1
    42    12     6    1
    43    10    15    1
@<TRIPOS>MOLECULE
*****
 39 43 0 0 0
SMALL
GASTEIGER

@<TRIPOS>ATOM
      1 C           2.7023    1.4958   24.6036 C.3     1  UNL1        0.1408
      2 C           2.4523    1.7732   26.0563 C.3     1  UNL1        0.1231
      3 N           1.0482    2.2820   26.1961 N.am    1  UNL1       -0.2783
      4 C           0.0258    2.7679   27.1804 C.2     1  UNL1        0.2253
      5 O           0.2191    2.8942   28.6625 O.2     1  UNL1       -0.2749
      6 C          -1.2238    3.1053   26.4223 C.3     1  UNL1        0.0807
      7 C          -2.6279    3.6142   26.5621 C.3     1  UNL1        0.0360
      8 C          -3.2457    3.6513   25.1958 C.3     1  UNL1        0.0889
      9 C          -4.4497    4.1675   25.9263 C.3     1  UNL1        0.0293
     10 O          -4.1152    3.7963   23.9821 O.3     1  UNL1       -0.3867
     11 C          -2.2234    3.1654   24.2115 C.3     1  UNL1        0.0291
     12 C          -0.9738    2.8280   24.9695 C.3     1  UNL1        0.0296
     13 C           0.4303    2.3191   24.8297 C.3     1  UNL1        0.0823
     14 C           1.4527    1.8333   23.8455 C.3     1  UNL1        0.0694
     15 H          -4.9850    4.1348   24.2461 H       1  UNL1        0.2102
     16 C           1.2593    1.7069   22.3633 C.ar    1  UNL1       -0.0183
     17 C           0.6526    0.4609   21.7896 C.ar    1  UNL1       -0.0018
     18 C           0.4593    0.3346   20.3075 C.ar    1  UNL1        0.0293
     19 C           0.8727    1.4544   19.3991 C.ar    1  UNL1        0.1401
     20 F           0.6794    1.3281   17.9169 F       1  UNL1       -0.2042
     21 C           1.4794    2.7005   19.9728 C.ar    1  UNL1        0.0293
     22 C           1.6727    2.8268   21.4549 C.ar    1  UNL1       -0.0018
     23 O           3.9779    0.9729   24.0125 O.3     1  UNL1       -0.3522
     24 C           4.1948   -1.5263   24.6887 C.3     1  UNL1        0.0370
     25 C           4.0884   -0.4724   23.6266 C.3     1  UNL1        0.1375
     26 C           4.0924   -0.8639   22.1786 C.ar    1  UNL1        0.0044
     27 C           3.9357   -2.3044   21.7906 C.ar    1  UNL1        0.0019
     28 C           3.9398   -2.6958   20.3426 C.ar    1  UNL1        0.0711
     29 C           4.1004   -1.6468   19.2825 C.ar    1  UNL1        0.0077
     30 C           4.2571   -0.2063   19.6705 C.ar    1  UNL1        0.0711
     31 C           4.2530    0.1852   21.1185 C.ar    1  UNL1        0.0019
     32 C           3.7831   -4.1362   19.9546 C.3     1  UNL1        0.4186
     33 F           3.6265   -5.5767   19.5665 F       1  UNL1       -0.1659
     34 F           4.1309   -4.5510   21.3535 F       1  UNL1       -0.1659
     35 F           3.4353   -3.7216   18.5556 F       1  UNL1       -0.1659
     36 C           4.4177    0.8428   18.6104 C.3     1  UNL1        0.4186
     37 F           4.5784    1.8918   17.5504 F       1  UNL1       -0.1659
     38 F           3.4874    0.0799   17.7145 F       1  UNL1       -0.1659
     39 F           5.3480    1.6056   19.5063 F       1  UNL1       -0.1659
@<TRIPOS>BOND
     1    25    24    1
     2    25    23    1
     3     1    23    1
     4     1     2    1
     5     2     3    1
     6     3     4   am
     7     4     5    2
     8     4     6    1
     9     6     7    1
    10     7     8    1
    11     8     9    1
    12     8    10    1
    13     8    11    1
    14    12    11    1
    15    12    13    1
    16    13    14    1
    17    14    16    1
    18    16    17   ar
    19    17    18   ar
    20    18    19   ar
    21    19    20    1
    22    19    21   ar
    23    21    22   ar
    24    25    26    1
    25    26    27   ar
    26    27    28   ar
    27    28    32    1
    28    32    33    1
    29    32    34    1
    30    32    35    1
    31    28    29   ar
    32    29    30   ar
    33    30    36    1
    34    36    37    1
    35    36    38    1
    36    36    39    1
    37    30    31   ar
    38    14     1    1
    39    22    16   ar
    40    31    26   ar
    41    13     3    1
    42    12     6    1
    43    10    15    1
@<TRIPOS>MOLECULE
*****
 39 43 0 0 0
SMALL
GASTEIGER

@<TRIPOS>ATOM
      1 C           7.8333   -1.9174   23.1895 C.3     1  UNL1        0.1408
      2 C           8.1298   -2.5812   24.5014 C.3     1  UNL1        0.1231
      3 N           7.0110   -2.2592   25.4472 N.am    1  UNL1       -0.2783
      4 C           6.5027   -2.4704   26.8426 C.2     1  UNL1        0.2253
      5 O           7.1781   -3.2730   27.9148 O.2     1  UNL1       -0.2749
      6 C           5.2005   -1.7382   26.9775 C.3     1  UNL1        0.0807
      7 C           4.0817   -1.4163   27.9233 C.3     1  UNL1        0.0360
      8 C           3.0936   -0.5535   27.1957 C.3     1  UNL1        0.0889
      9 C           2.3462   -0.5858   28.4958 C.3     1  UNL1        0.0293
     10 O           1.9493    0.3025   26.7400 O.3     1  UNL1       -0.3867
     11 C           3.6018   -0.3422   25.8003 C.3     1  UNL1        0.0291
     12 C           4.9040   -1.0744   25.6655 C.3     1  UNL1        0.0296
     13 C           6.0228   -1.3964   24.7197 C.3     1  UNL1        0.0823
     14 C           6.5311   -1.1852   23.3244 C.3     1  UNL1        0.0694
     15 H           1.3177    0.4124   27.4680 H       1  UNL1        0.2102
     16 C           5.8557   -0.3826   22.2521 C.ar    1  UNL1       -0.0183
     17 C           4.4664   -0.7378   21.8120 C.ar    1  UNL1       -0.0018
     18 C           3.7911    0.0648   20.7398 C.ar    1  UNL1        0.0293
     19 C           4.5050    1.2226   20.1075 C.ar    1  UNL1        0.1401
     20 F           3.8296    2.0252   19.0352 F       1  UNL1       -0.2042
     21 C           5.8943    1.5778   20.5476 C.ar    1  UNL1        0.0293
     22 C           6.5696    0.7753   21.6198 C.ar    1  UNL1       -0.0018
     23 O           8.6886   -1.9755   21.9586 O.3     1  UNL1       -0.3522
     24 C           9.1533   -4.2075   20.7126 C.3     1  UNL1        0.0370
     25 C           8.3590   -2.9438   20.8614 C.3     1  UNL1        0.1375
     26 C           7.2350   -2.6484   19.9131 C.ar    1  UNL1        0.0044
     27 C           7.3410   -1.4945   18.9605 C.ar    1  UNL1        0.0019
     28 C           6.2170   -1.1991   18.0122 C.ar    1  UNL1        0.0711
     29 C           4.9870   -2.0576   18.0163 C.ar    1  UNL1        0.0077
     30 C           4.8810   -3.2116   18.9688 C.ar    1  UNL1        0.0711
     31 C           6.0050   -3.5070   19.9172 C.ar    1  UNL1        0.0019
     32 C           6.3230   -0.0452   17.0597 C.3     1  UNL1        0.4186
     33 F           6.4291    1.1087   16.1072 F       1  UNL1       -0.1659
     34 F           4.9330   -0.3225   16.5689 F       1  UNL1       -0.1659
     35 F           7.7131    0.2322   17.5504 F       1  UNL1       -0.1659
     36 C           3.6510   -4.0701   18.9729 C.3     1  UNL1        0.4186
     37 F           2.4210   -4.9287   18.9770 F       1  UNL1       -0.1659
     38 F           2.8831   -2.9668   19.6385 F       1  UNL1       -0.1659
     39 F           4.4188   -5.1734   18.3074 F       1  UNL1       -0.1659
@<TRIPOS>BOND
     1    25    24    1
     2    25    23    1
     3     1    23    1
     4     1     2    1
     5     2     3    1
     6     3     4   am
     7     4     5    2
     8     4     6    1
     9     6     7    1
    10     7     8    1
    11     8     9    1
    12     8    10    1
    13     8    11    1
    14    12    11    1
    15    12    13    1
    16    13    14    1
    17    14    16    1
    18    16    17   ar
    19    17    18   ar
    20    18    19   ar
    21    19    20    1
    22    19    21   ar
    23    21    22   ar
    24    25    26    1
    25    26    27   ar
    26    27    28   ar
    27    28    32    1
    28    32    33    1
    29    32    34    1
    30    32    35    1
    31    28    29   ar
    32    29    30   ar
    33    30    36    1
    34    36    37    1
    35    36    38    1
    36    36    39    1
    37    30    31   ar
    38    14     1    1
    39    22    16   ar
    40    31    26   ar
    41    13     3    1
    42    12     6    1
    43    10    15    1
