@<TRIPOS>MOLECULE
*****
 29 32 0 0 0
SMALL
GASTEIGER

@<TRIPOS>ATOM
      1 C          -6.1060  -15.9945   24.2494 C.3     1  UNL1        0.0510
      2 N          -5.4253  -15.0671   25.2119 N.3     1  UNL1       -0.3227
      3 C          -6.3359  -17.1746   23.3524 C.3     1  UNL1        0.0654
      4 C          -7.6276  -17.3053   22.6012 C.3     1  UNL1        0.2034
      5 N          -8.6895  -16.2559   22.7470 N.pl3   1  UNL1       -0.1931
      6 C          -8.4597  -15.0758   23.6440 C.3     1  UNL1        0.2034
      7 C          -7.1679  -14.9452   24.3952 C.3     1  UNL1        0.0654
      8 H          -4.5028  -15.4352   25.4439 H       1  UNL1        0.1188
      9 H          -5.9839  -14.9892   26.0618 H       1  UNL1        0.1188
     10 C          -9.9812  -16.3866   21.9957 C.2     1  UNL1        0.3205
     11 N         -10.1219  -15.7744   20.6336 N.2     1  UNL1        0.0097
     12 C         -11.4136  -15.9051   19.8824 C.2     1  UNL1        0.4717
     13 N         -12.5647  -16.6480   20.4932 N.2     1  UNL1        0.0158
     14 C         -12.4240  -17.2602   21.8553 C.2     1  UNL1        0.3714
     15 N         -13.3780  -18.0447   22.7065 N.2     1  UNL1       -0.0339
     16 C         -12.6758  -18.3988   23.9838 C.2     1  UNL1        0.2323
     17 C         -11.2879  -17.8332   23.9221 C.2     1  UNL1        0.0486
     18 C         -11.1323  -17.1295   22.6066 C.3     1  UNL1        0.2428
     19 C          -4.8077  -16.7218   24.4379 C.3     1  UNL1        0.0408
     20 C          -2.1836  -17.5970   20.8884 C.ar    1  UNL1       -0.0228
     21 C          -2.2741  -16.2003   21.4280 C.ar    1  UNL1       -0.0046
     22 C          -3.1488  -15.9086   22.6112 C.ar    1  UNL1       -0.0045
     23 C          -3.9330  -17.0135   23.2547 C.ar    1  UNL1       -0.0209
     24 C          -3.8426  -18.4102   22.7151 C.ar    1  UNL1       -0.0045
     25 C          -2.9678  -18.7019   21.5319 C.ar    1  UNL1       -0.0046
     26 C          -0.1735  -17.1650   20.3663 C.3     1  UNL1        0.0044
     27 C          -1.3089  -17.8887   19.7053 C.3     1  UNL1        0.0189
     28 C          -2.4444  -18.6124   19.0443 C.3     1  UNL1        0.0044
     29 C          -0.4342  -18.1805   18.5222 C.3     1  UNL1        0.0044
@<TRIPOS>BOND
     1    26    27    1
     2    27    28    1
     3    27    29    1
     4    27    20    1
     5    20    21   ar
     6    21    22   ar
     7    22    23   ar
     8    23    19    1
     9    19     1    1
    10     1     2    1
    11     1     3    1
    12     3     4    1
    13     4     5    1
    14     5    10    1
    15    10    11    2
    16    11    12    1
    17    12    13    2
    18    13    14    1
    19    14    15    2
    20    15    16    1
    21    16    17    2
    22    17    18    1
    23     5     6    1
    24     6     7    1
    25    23    24   ar
    26    24    25   ar
    27    25    20   ar
    28     7     1    1
    29    18    10    1
    30    18    14    1
    31     2     8    1
    32     2     9    1
@<TRIPOS>MOLECULE
*****
 29 32 0 0 0
SMALL
GASTEIGER

@<TRIPOS>ATOM
      1 C          -6.7955  -15.7239   25.0111 C.3     1  UNL1        0.0510
      2 N          -6.4043  -15.6599   26.4577 N.3     1  UNL1       -0.3227
      3 C          -6.6910  -15.6355   23.5173 C.3     1  UNL1        0.0654
      4 C          -7.8784  -15.9636   22.6616 C.3     1  UNL1        0.2034
      5 N          -9.1705  -16.3802   23.2997 N.pl3   1  UNL1       -0.1931
      6 C          -9.2752  -16.4685   24.7934 C.3     1  UNL1        0.2034
      7 C          -8.0876  -16.1404   25.6491 C.3     1  UNL1        0.0654
      8 H          -5.4302  -15.3671   26.5338 H       1  UNL1        0.1188
      9 H          -6.5164  -16.5810   26.8813 H       1  UNL1        0.1188
     10 C         -10.3580  -16.7083   22.4439 C.2     1  UNL1        0.3205
     11 N         -11.6584  -15.9924   22.6592 N.2     1  UNL1        0.0097
     12 C         -12.8458  -16.3204   21.8036 C.2     1  UNL1        0.4717
     13 N         -12.7329  -17.3645   20.7324 N.2     1  UNL1        0.0158
     14 C         -11.4325  -18.0804   20.5171 C.2     1  UNL1        0.3714
     15 N         -11.0234  -19.1482   19.5463 N.2     1  UNL1       -0.0339
     16 C          -9.5831  -19.4800   19.8020 C.2     1  UNL1        0.2323
     17 C          -9.1020  -18.6173   20.9309 C.2     1  UNL1        0.0486
     18 C         -10.2450  -17.7523   21.3728 C.3     1  UNL1        0.2428
     19 C          -5.3676  -15.2852   24.8754 C.3     1  UNL1        0.0408
     20 C          -2.6296  -17.3962   21.9948 C.ar    1  UNL1       -0.0228
     21 C          -2.7775  -15.9047   21.9330 C.ar    1  UNL1       -0.0046
     22 C          -3.6902  -15.2011   22.8932 C.ar    1  UNL1       -0.0045
     23 C          -4.4549  -15.9888   23.9152 C.ar    1  UNL1       -0.0209
     24 C          -4.3071  -17.4803   23.9771 C.ar    1  UNL1       -0.0045
     25 C          -3.3944  -18.1839   23.0169 C.ar    1  UNL1       -0.0046
     26 C          -1.1514  -16.7790   20.6043 C.3     1  UNL1        0.0044
     27 C          -1.7170  -18.0999   21.0347 C.3     1  UNL1        0.0189
     28 C          -2.2826  -19.4207   21.4651 C.3     1  UNL1        0.0044
     29 C          -0.8043  -18.8035   20.0745 C.3     1  UNL1        0.0044
@<TRIPOS>BOND
     1    26    27    1
     2    27    28    1
     3    27    29    1
     4    27    20    1
     5    20    21   ar
     6    21    22   ar
     7    22    23   ar
     8    23    19    1
     9    19     1    1
    10     1     2    1
    11     1     3    1
    12     3     4    1
    13     4     5    1
    14     5    10    1
    15    10    11    2
    16    11    12    1
    17    12    13    2
    18    13    14    1
    19    14    15    2
    20    15    16    1
    21    16    17    2
    22    17    18    1
    23     5     6    1
    24     6     7    1
    25    23    24   ar
    26    24    25   ar
    27    25    20   ar
    28     7     1    1
    29    18    10    1
    30    18    14    1
    31     2     8    1
    32     2     9    1
@<TRIPOS>MOLECULE
*****
 29 32 0 0 0
SMALL
GASTEIGER

@<TRIPOS>ATOM
      1 C         -12.6370   -6.5598   18.2395 C.3     1  UNL1        0.0510
      2 N         -12.2496   -7.6708   19.1698 N.3     1  UNL1       -0.3227
      3 C         -13.2775   -5.8458   17.0862 C.3     1  UNL1        0.0654
      4 C         -13.0547   -4.3746   16.8978 C.3     1  UNL1        0.2034
      5 N         -12.1913   -3.6171   17.8628 N.pl3   1  UNL1       -0.1931
      6 C         -11.5508   -4.3310   19.0160 C.3     1  UNL1        0.2034
      7 C         -11.7737   -5.8024   19.2044 C.3     1  UNL1        0.0654
      8 H         -12.6800   -8.5413   18.8577 H       1  UNL1        0.1188
      9 H         -12.5704   -7.4519   20.1130 H       1  UNL1        0.1188
     10 C         -11.9686   -2.1457   17.6744 C.2     1  UNL1        0.3205
     11 N         -10.7250   -1.6567   16.9929 N.2     1  UNL1        0.0097
     12 C         -10.5022   -0.1854   16.8045 C.2     1  UNL1        0.4717
     13 N         -11.5230    0.7970   17.2976 N.2     1  UNL1        0.0158
     14 C         -12.7665    0.3079   17.9791 C.2     1  UNL1        0.3714
     15 N         -13.9409    1.0335   18.5659 N.2     1  UNL1       -0.0339
     16 C         -14.8896    0.0105   19.1169 C.2     1  UNL1        0.2323
     17 C         -14.3014   -1.3473   18.8707 C.2     1  UNL1        0.0486
     18 C         -12.9893   -1.1634   18.1675 C.3     1  UNL1        0.2428
     19 C         -13.3657   -7.7030   17.5976 C.3     1  UNL1        0.0408
     20 C         -17.5375   -8.7419   18.9271 C.ar    1  UNL1       -0.0228
     21 C         -17.0154   -7.3483   19.1156 C.ar    1  UNL1       -0.0046
     22 C         -15.6248   -7.0021   18.6725 C.ar    1  UNL1       -0.0045
     23 C         -14.7563   -8.0493   18.0408 C.ar    1  UNL1       -0.0209
     24 C         -15.2784   -9.4428   17.8523 C.ar    1  UNL1       -0.0045
     25 C         -16.6690   -9.7891   18.2954 C.ar    1  UNL1       -0.0046
     26 C         -18.8236   -8.0858   20.4812 C.3     1  UNL1        0.0044
     27 C         -18.9281   -9.0882   19.3702 C.3     1  UNL1        0.0189
     28 C         -19.0324  -10.0906   18.2593 C.3     1  UNL1        0.0044
     29 C         -20.3187   -9.4345   19.8135 C.3     1  UNL1        0.0044
@<TRIPOS>BOND
     1    26    27    1
     2    27    28    1
     3    27    29    1
     4    27    20    1
     5    20    21   ar
     6    21    22   ar
     7    22    23   ar
     8    23    19    1
     9    19     1    1
    10     1     2    1
    11     1     3    1
    12     3     4    1
    13     4     5    1
    14     5    10    1
    15    10    11    2
    16    11    12    1
    17    12    13    2
    18    13    14    1
    19    14    15    2
    20    15    16    1
    21    16    17    2
    22    17    18    1
    23     5     6    1
    24     6     7    1
    25    23    24   ar
    26    24    25   ar
    27    25    20   ar
    28     7     1    1
    29    18    10    1
    30    18    14    1
    31     2     8    1
    32     2     9    1
@<TRIPOS>MOLECULE
*****
 29 32 0 0 0
SMALL
GASTEIGER

@<TRIPOS>ATOM
      1 C         -12.4817   -5.9434   18.8527 C.3     1  UNL1        0.0510
      2 N         -11.1008   -5.7013   18.3195 N.3     1  UNL1       -0.3227
      3 C         -13.7238   -5.7766   19.6770 C.3     1  UNL1        0.0654
      4 C         -14.8862   -6.7033   19.4779 C.3     1  UNL1        0.2034
      5 N         -14.8067   -7.7970   18.4543 N.pl3   1  UNL1       -0.1931
      6 C         -13.5647   -7.9639   17.6300 C.3     1  UNL1        0.2034
      7 C         -12.4022   -7.0371   17.8292 C.3     1  UNL1        0.0654
      8 H         -10.6834   -4.9071   18.8047 H       1  UNL1        0.1188
      9 H         -11.1523   -5.5008   17.3207 H       1  UNL1        0.1188
     10 C         -15.9693   -8.7238   18.2551 C.2     1  UNL1        0.3205
     11 N         -15.9269  -10.1124   18.8208 N.2     1  UNL1        0.0097
     12 C         -17.0894  -11.0391   18.6217 C.2     1  UNL1        0.4717
     13 N         -18.2943  -10.5773   17.8568 N.2     1  UNL1        0.0158
     14 C         -18.3367   -9.1887   17.2911 C.2     1  UNL1        0.3714
     15 N         -19.3808   -8.4591   16.4990 N.2     1  UNL1       -0.0339
     16 C         -18.8635   -7.0814   16.2086 C.2     1  UNL1        0.2323
     17 C         -17.4997   -6.9595   16.8212 C.2     1  UNL1        0.0486
     18 C         -17.1741   -8.2620   17.4903 C.3     1  UNL1        0.2428
     19 C         -12.0817   -4.7657   19.6910 C.3     1  UNL1        0.0408
     20 C         -12.8920   -0.5866   18.2319 C.ar    1  UNL1       -0.0228
     21 C         -11.4944   -1.1311   18.2094 C.ar    1  UNL1       -0.0046
     22 C         -11.2244   -2.5241   18.6958 C.ar    1  UNL1       -0.0045
     23 C         -12.3517   -3.3727   19.2046 C.ar    1  UNL1       -0.0209
     24 C         -13.7493   -2.8282   19.2271 C.ar    1  UNL1       -0.0045
     25 C         -14.0194   -1.4352   18.7407 C.ar    1  UNL1       -0.0046
     26 C         -11.8388    0.8164   17.0393 C.3     1  UNL1        0.0044
     27 C         -13.1621    0.8064   17.7455 C.3     1  UNL1        0.0189
     28 C         -14.4854    0.7963   18.4517 C.3     1  UNL1        0.0044
     29 C         -13.4322    2.1994   17.2591 C.3     1  UNL1        0.0044
@<TRIPOS>BOND
     1    26    27    1
     2    27    28    1
     3    27    29    1
     4    27    20    1
     5    20    21   ar
     6    21    22   ar
     7    22    23   ar
     8    23    19    1
     9    19     1    1
    10     1     2    1
    11     1     3    1
    12     3     4    1
    13     4     5    1
    14     5    10    1
    15    10    11    2
    16    11    12    1
    17    12    13    2
    18    13    14    1
    19    14    15    2
    20    15    16    1
    21    16    17    2
    22    17    18    1
    23     5     6    1
    24     6     7    1
    25    23    24   ar
    26    24    25   ar
    27    25    20   ar
    28     7     1    1
    29    18    10    1
    30    18    14    1
    31     2     8    1
    32     2     9    1
@<TRIPOS>MOLECULE
*****
 29 32 0 0 0
SMALL
GASTEIGER

@<TRIPOS>ATOM
      1 C           6.4754   -3.4487   32.1831 C.3     1  UNL1        0.0510
      2 N           6.5798   -4.9088   32.5103 N.3     1  UNL1       -0.3227
      3 C           6.8237   -2.1010   31.6239 C.3     1  UNL1        0.0654
      4 C           5.9049   -0.9365   31.8463 C.3     1  UNL1        0.2034
      5 N           4.6377   -1.1195   32.6279 N.pl3   1  UNL1       -0.1931
      6 C           4.2894   -2.4670   33.1871 C.3     1  UNL1        0.2034
      7 C           5.2083   -3.6316   32.9647 C.3     1  UNL1        0.0654
      8 H           7.4401   -5.2857   32.1127 H       1  UNL1        0.1188
      9 H           5.7786   -5.4032   32.1178 H       1  UNL1        0.1188
     10 C           3.7189    0.0452   32.8502 C.2     1  UNL1        0.3205
     11 N           3.8065    0.8377   34.1208 N.2     1  UNL1        0.0097
     12 C           2.8877    2.0022   34.3431 C.2     1  UNL1        0.4717
     13 N           1.8813    2.3744   33.2950 N.2     1  UNL1        0.0158
     14 C           1.7937    1.5819   32.0245 C.2     1  UNL1        0.3714
     15 N           0.9090    1.7110   30.8200 N.2     1  UNL1       -0.0339
     16 C           1.2811    0.6261   29.8533 C.2     1  UNL1        0.2323
     17 C           2.3957   -0.1734   30.4602 C.2     1  UNL1        0.0486
     18 C           2.7125    0.4173   31.8021 C.3     1  UNL1        0.2428
     19 C           7.7788   -3.7727   31.5152 C.3     1  UNL1        0.0408
     20 C           7.8175   -6.1283   27.6811 C.ar    1  UNL1       -0.0228
     21 C           6.6485   -5.2470   28.0081 C.ar    1  UNL1       -0.0046
     22 C           6.6357   -4.4618   29.2862 C.ar    1  UNL1       -0.0045
     23 C           7.7917   -4.5579   30.2371 C.ar    1  UNL1       -0.0209
     24 C           8.9606   -5.4392   29.9101 C.ar    1  UNL1       -0.0045
     25 C           8.9735   -6.2244   28.6320 C.ar    1  UNL1       -0.0046
     26 C           7.5170   -5.6650   25.6329 C.3     1  UNL1        0.0044
     27 C           7.8304   -6.9135   26.4031 C.3     1  UNL1        0.0189
     28 C           8.1437   -8.1619   27.1732 C.3     1  UNL1        0.0044
     29 C           7.8433   -7.6987   25.1250 C.3     1  UNL1        0.0044
@<TRIPOS>BOND
     1    26    27    1
     2    27    28    1
     3    27    29    1
     4    27    20    1
     5    20    21   ar
     6    21    22   ar
     7    22    23   ar
     8    23    19    1
     9    19     1    1
    10     1     2    1
    11     1     3    1
    12     3     4    1
    13     4     5    1
    14     5    10    1
    15    10    11    2
    16    11    12    1
    17    12    13    2
    18    13    14    1
    19    14    15    2
    20    15    16    1
    21    16    17    2
    22    17    18    1
    23     5     6    1
    24     6     7    1
    25    23    24   ar
    26    24    25   ar
    27    25    20   ar
    28     7     1    1
    29    18    10    1
    30    18    14    1
    31     2     8    1
    32     2     9    1
@<TRIPOS>MOLECULE
*****
 29 32 0 0 0
SMALL
GASTEIGER

@<TRIPOS>ATOM
      1 C           1.7812    2.5559   19.9684 C.3     1  UNL1        0.0510
      2 N           3.1941    2.8352   19.5494 N.3     1  UNL1       -0.3227
      3 C           0.3904    1.9943   19.9501 C.3     1  UNL1        0.0654
      4 C          -0.5734    2.3422   21.0454 C.3     1  UNL1        0.2034
      5 N          -0.1464    3.2518   22.1593 N.pl3   1  UNL1       -0.1931
      6 C           1.2443    3.8133   22.1776 C.3     1  UNL1        0.2034
      7 C           2.2082    3.4653   21.0821 C.3     1  UNL1        0.0654
      8 H           3.3961    2.3381   18.6820 H       1  UNL1        0.1188
      9 H           3.8337    2.5201   20.2788 H       1  UNL1        0.1188
     10 C          -1.1103    3.5997   23.2547 C.2     1  UNL1        0.3205
     11 N          -2.2002    4.5996   23.0051 N.2     1  UNL1        0.0097
     12 C          -3.1640    4.9476   24.1004 C.2     1  UNL1        0.4717
     13 N          -3.0380    4.2956   25.4455 N.2     1  UNL1        0.0158
     14 C          -1.9481    3.2956   25.6951 C.2     1  UNL1        0.3714
     15 N          -1.5784    2.4961   26.9092 N.2     1  UNL1       -0.0339
     16 C          -0.3860    1.6541   26.5641 C.2     1  UNL1        0.2323
     17 C          -0.0188    1.9331   25.1368 C.2     1  UNL1        0.0486
     18 C          -0.9843    2.9477   24.5997 C.3     1  UNL1        0.2428
     19 C           1.8449    1.7434   18.7091 C.3     1  UNL1        0.0408
     20 C           3.7787   -2.3198   18.7487 C.ar    1  UNL1       -0.0228
     21 C           2.8898   -1.9012   19.8821 C.ar    1  UNL1       -0.0046
     22 C           2.2452   -0.5468   19.8689 C.ar    1  UNL1       -0.0045
     23 C           2.4895    0.3890   18.7223 C.ar    1  UNL1       -0.0209
     24 C           3.3784   -0.0296   17.5889 C.ar    1  UNL1       -0.0045
     25 C           4.0230   -1.3840   17.6021 C.ar    1  UNL1       -0.0046
     26 C           5.7300   -3.0560   18.3609 C.3     1  UNL1        0.0044
     27 C           4.4234   -3.6741   18.7618 C.3     1  UNL1        0.0189
     28 C           3.1168   -4.2922   19.1627 C.3     1  UNL1        0.0044
     29 C           5.0681   -5.0285   18.7749 C.3     1  UNL1        0.0044
@<TRIPOS>BOND
     1    26    27    1
     2    27    28    1
     3    27    29    1
     4    27    20    1
     5    20    21   ar
     6    21    22   ar
     7    22    23   ar
     8    23    19    1
     9    19     1    1
    10     1     2    1
    11     1     3    1
    12     3     4    1
    13     4     5    1
    14     5    10    1
    15    10    11    2
    16    11    12    1
    17    12    13    2
    18    13    14    1
    19    14    15    2
    20    15    16    1
    21    16    17    2
    22    17    18    1
    23     5     6    1
    24     6     7    1
    25    23    24   ar
    26    24    25   ar
    27    25    20   ar
    28     7     1    1
    29    18    10    1
    30    18    14    1
    31     2     8    1
    32     2     9    1
@<TRIPOS>MOLECULE
*****
 29 32 0 0 0
SMALL
GASTEIGER

@<TRIPOS>ATOM
      1 C           6.3191   -3.2071   32.5092 C.3     1  UNL1        0.0510
      2 N           6.2761   -4.7064   32.5111 N.3     1  UNL1       -0.3227
      3 C           6.8119   -1.8114   32.2660 C.3     1  UNL1        0.0654
      4 C           5.9945   -0.6379   32.7182 C.3     1  UNL1        0.2034
      5 N           4.6841   -0.8600   33.4137 N.pl3   1  UNL1       -0.1931
      6 C           4.1912   -2.2557   33.6569 C.3     1  UNL1        0.2034
      7 C           5.0087   -3.4292   33.2046 C.3     1  UNL1        0.0654
      8 H           7.1145   -5.0712   32.0590 H       1  UNL1        0.1188
      9 H           5.4505   -5.0236   32.0029 H       1  UNL1        0.1188
     10 C           3.8666    0.3135   33.8660 C.2     1  UNL1        0.3205
     11 N           2.9360    0.9938   32.9062 N.2     1  UNL1        0.0097
     12 C           2.1185    2.1672   33.3584 C.2     1  UNL1        0.4717
     13 N           2.2317    2.6607   34.7705 N.2     1  UNL1        0.0158
     14 C           3.1624    1.9805   35.7302 C.2     1  UNL1        0.3714
     15 N           3.4829    2.2406   37.1723 N.2     1  UNL1       -0.0339
     16 C           4.4985    1.2277   37.6113 C.2     1  UNL1        0.2323
     17 C           4.8056    0.3417   36.4406 C.2     1  UNL1        0.0486
     18 C           3.9798    0.8069   35.2780 C.3     1  UNL1        0.2428
     19 C           7.6145   -3.5056   31.8144 C.3     1  UNL1        0.0408
     20 C           7.6391   -6.0260   28.0864 C.ar    1  UNL1       -0.0228
     21 C           8.5627   -6.3564   29.2213 C.ar    1  UNL1       -0.0046
     22 C           8.5544   -5.5163   30.4639 C.ar    1  UNL1       -0.0045
     23 C           7.6227   -4.3458   30.5717 C.ar    1  UNL1       -0.0209
     24 C           6.6991   -4.0153   29.4369 C.ar    1  UNL1       -0.0045
     25 C           6.7073   -4.8554   28.1943 C.ar    1  UNL1       -0.0046
     26 C           7.0236   -5.7377   26.0770 C.3     1  UNL1        0.0044
     27 C           7.6472   -6.8661   26.8437 C.3     1  UNL1        0.0189
     28 C           8.2707   -7.9943   27.6106 C.3     1  UNL1        0.0044
     29 C           7.6553   -7.7061   25.6010 C.3     1  UNL1        0.0044
@<TRIPOS>BOND
     1    26    27    1
     2    27    28    1
     3    27    29    1
     4    27    20    1
     5    20    21   ar
     6    21    22   ar
     7    22    23   ar
     8    23    19    1
     9    19     1    1
    10     1     2    1
    11     1     3    1
    12     3     4    1
    13     4     5    1
    14     5    10    1
    15    10    11    2
    16    11    12    1
    17    12    13    2
    18    13    14    1
    19    14    15    2
    20    15    16    1
    21    16    17    2
    22    17    18    1
    23     5     6    1
    24     6     7    1
    25    23    24   ar
    26    24    25   ar
    27    25    20   ar
    28     7     1    1
    29    18    10    1
    30    18    14    1
    31     2     8    1
    32     2     9    1
@<TRIPOS>MOLECULE
*****
 29 32 0 0 0
SMALL
GASTEIGER

@<TRIPOS>ATOM
      1 C           6.1261   -2.4871   18.6165 C.3     1  UNL1        0.0510
      2 N           6.5909   -1.5232   17.5655 N.3     1  UNL1       -0.3227
      3 C           5.2189   -3.3891   19.3998 C.3     1  UNL1        0.0654
      4 C           5.7471   -4.1348   20.5892 C.3     1  UNL1        0.2034
      5 N           7.1827   -3.9786   20.9955 N.pl3   1  UNL1       -0.1931
      6 C           8.0899   -3.0767   20.2123 C.3     1  UNL1        0.2034
      7 C           7.5616   -2.3309   19.0228 C.3     1  UNL1        0.0654
      8 H           5.8143   -1.2974   16.9440 H       1  UNL1        0.1188
      9 H           7.3461   -1.9464   17.0261 H       1  UNL1        0.1188
     10 C           7.7109   -4.7244   22.1850 C.2     1  UNL1        0.3205
     11 N           8.6134   -5.9063   21.9889 N.2     1  UNL1        0.0097
     12 C           9.1416   -6.6521   23.1783 C.2     1  UNL1        0.4717
     13 N           8.7673   -6.2159   24.5639 N.2     1  UNL1        0.0158
     14 C           7.8648   -5.0339   24.7599 C.2     1  UNL1        0.3714
     15 N           7.3270   -4.3759   25.9959 N.2     1  UNL1       -0.0339
     16 C           6.4664   -3.2234   25.5704 C.2     1  UNL1        0.2323
     17 C           6.4723   -3.1692   24.0713 C.2     1  UNL1        0.0486
     18 C           7.3366   -4.2881   23.5705 C.3     1  UNL1        0.2428
     19 C           4.8521   -2.3086   17.8453 C.3     1  UNL1        0.0408
     20 C           1.6462    0.4391   19.4021 C.ar    1  UNL1       -0.0228
     21 C           2.4681    0.8428   18.2140 C.ar    1  UNL1       -0.0046
     22 C           3.5367   -0.0731   17.6951 C.ar    1  UNL1       -0.0045
     23 C           3.7835   -1.3927   18.3642 C.ar    1  UNL1       -0.0209
     24 C           2.9615   -1.7964   19.5523 C.ar    1  UNL1       -0.0045
     25 C           1.8929   -0.8805   20.0712 C.ar    1  UNL1       -0.0046
     26 C           0.5968    2.1111   18.6257 C.3     1  UNL1        0.0044
     27 C           0.5776    1.3549   19.9210 C.3     1  UNL1        0.0189
     28 C           0.5585    0.5987   21.2162 C.3     1  UNL1        0.0044
     29 C          -0.4910    2.2708   20.4399 C.3     1  UNL1        0.0044
@<TRIPOS>BOND
     1    26    27    1
     2    27    28    1
     3    27    29    1
     4    27    20    1
     5    20    21   ar
     6    21    22   ar
     7    22    23   ar
     8    23    19    1
     9    19     1    1
    10     1     2    1
    11     1     3    1
    12     3     4    1
    13     4     5    1
    14     5    10    1
    15    10    11    2
    16    11    12    1
    17    12    13    2
    18    13    14    1
    19    14    15    2
    20    15    16    1
    21    16    17    2
    22    17    18    1
    23     5     6    1
    24     6     7    1
    25    23    24   ar
    26    24    25   ar
    27    25    20   ar
    28     7     1    1
    29    18    10    1
    30    18    14    1
    31     2     8    1
    32     2     9    1
@<TRIPOS>MOLECULE
*****
 29 32 0 0 0
SMALL
GASTEIGER

@<TRIPOS>ATOM
      1 C           8.6333   -6.1307   24.2288 C.3     1  UNL1        0.0510
      2 N           8.4018   -7.0288   23.0499 N.3     1  UNL1       -0.3227
      3 C           8.9358   -4.8925   25.0196 C.3     1  UNL1        0.0654
      4 C           8.9536   -4.9456   26.5185 C.3     1  UNL1        0.2034
      5 N           8.6689   -6.2369   27.2267 N.pl3   1  UNL1       -0.1931
      6 C           8.3664   -7.4751   26.4360 C.3     1  UNL1        0.2034
      7 C           8.3487   -7.4220   24.9370 C.3     1  UNL1        0.0654
      8 H           8.5084   -6.4933   22.1884 H       1  UNL1        0.1188
      9 H           7.4585   -7.4142   23.0961 H       1  UNL1        0.1188
     10 C           8.6867   -6.2900   28.7257 C.2     1  UNL1        0.3205
     11 N           9.5178   -7.3212   29.4298 N.2     1  UNL1        0.0097
     12 C           9.5356   -7.3742   30.9287 C.2     1  UNL1        0.4717
     13 N           8.7223   -6.3960   31.7236 N.2     1  UNL1        0.0158
     14 C           7.8912   -5.3649   31.0194 C.2     1  UNL1        0.3714
     15 N           6.9938   -4.2779   31.5325 N.2     1  UNL1       -0.0339
     16 C           6.4213   -3.5531   30.3505 C.2     1  UNL1        0.2323
     17 C           6.9649   -4.1921   29.1071 C.2     1  UNL1        0.0486
     18 C           7.8734   -5.3118   29.5205 C.3     1  UNL1        0.2428
     19 C           8.8376   -5.1513   23.1112 C.3     1  UNL1        0.0408
     20 C           5.2852   -3.2306   21.1258 C.ar    1  UNL1       -0.0228
     21 C           6.5143   -3.5425   20.3246 C.ar    1  UNL1       -0.0046
     22 C           7.6985   -4.1828   20.9865 C.ar    1  UNL1       -0.0045
     23 C           7.6534   -4.5111   22.4494 C.ar    1  UNL1       -0.0209
     24 C           6.4243   -4.1991   23.2506 C.ar    1  UNL1       -0.0045
     25 C           5.2401   -3.5589   22.5887 C.ar    1  UNL1       -0.0046
     26 C           3.9865   -3.7625   19.5351 C.3     1  UNL1        0.0044
     27 C           4.1010   -2.5903   20.4641 C.3     1  UNL1        0.0189
     28 C           4.2156   -1.4183   21.3930 C.3     1  UNL1        0.0044
     29 C           2.9168   -1.9502   19.8023 C.3     1  UNL1        0.0044
@<TRIPOS>BOND
     1    26    27    1
     2    27    28    1
     3    27    29    1
     4    27    20    1
     5    20    21   ar
     6    21    22   ar
     7    22    23   ar
     8    23    19    1
     9    19     1    1
    10     1     2    1
    11     1     3    1
    12     3     4    1
    13     4     5    1
    14     5    10    1
    15    10    11    2
    16    11    12    1
    17    12    13    2
    18    13    14    1
    19    14    15    2
    20    15    16    1
    21    16    17    2
    22    17    18    1
    23     5     6    1
    24     6     7    1
    25    23    24   ar
    26    24    25   ar
    27    25    20   ar
    28     7     1    1
    29    18    10    1
    30    18    14    1
    31     2     8    1
    32     2     9    1
