@<TRIPOS>MOLECULE
*****
 20 22 0 0 0
SMALL
GASTEIGER

@<TRIPOS>ATOM
      1 C          -8.4196  -18.8226   21.7038 C.ar    1  UNL1        0.1628
      2 N          -9.1897  -18.1764   20.5906 N.ar    1  UNL1       -0.2204
      3 C         -10.6310  -17.8115   20.7889 C.ar    1  UNL1        0.1098
      4 C         -11.3023  -18.0927   22.1005 C.ar    1  UNL1        0.0412
      5 C         -12.7436  -17.7278   22.2988 C.ar    1  UNL1        0.0035
      6 C         -13.4148  -18.0090   23.6104 C.ar    1  UNL1        0.0002
      7 C         -12.6447  -18.6552   24.7237 C.ar    1  UNL1        0.0015
      8 C         -11.2034  -19.0201   24.5254 C.ar    1  UNL1        0.0192
      9 C         -10.5322  -18.7389   23.2138 C.ar    1  UNL1        0.0849
     10 N          -9.0908  -19.1038   23.0154 N.ar    1  UNL1       -0.2265
     11 C          -4.4776  -18.9115   22.1537 C.ar    1  UNL1        0.1388
     12 C          -4.0956  -19.9174   21.1087 C.ar    1  UNL1        0.0369
     13 C          -5.1549  -20.5584   20.2620 C.ar    1  UNL1        0.0032
     14 C          -6.5962  -20.1935   20.4604 C.ar    1  UNL1        0.0032
     15 C          -6.9782  -19.1875   21.5055 C.ar    1  UNL1        0.0388
     16 C          -5.9189  -18.5465   22.3521 C.ar    1  UNL1        0.0399
     17 C          -2.4773  -17.2711   22.3954 C.3     1  UNL1        0.2525
     18 O          -3.4181  -18.2705   23.0004 O.3     1  UNL1       -0.4714
     19 S         -11.4011  -17.1653   19.6756 S.3     1  UNL1       -0.0939
     20 C         -11.3911  -15.6730   19.5243 C.3     1  UNL1        0.0757
@<TRIPOS>BOND
     1    17    18    1
     2    18    11    1
     3    11    12   ar
     4    12    13   ar
     5    13    14   ar
     6    14    15   ar
     7    15     1    1
     8     1     2   ar
     9     2     3   ar
    10     3    19    1
    11    19    20    1
    12     3     4   ar
    13     4     5   ar
    14     5     6   ar
    15     6     7   ar
    16     7     8   ar
    17     8     9   ar
    18     9    10   ar
    19    15    16   ar
    20    16    11   ar
    21    10     1   ar
    22     9     4   ar
@<TRIPOS>MOLECULE
*****
 20 22 0 0 0
SMALL
GASTEIGER

@<TRIPOS>ATOM
      1 C          -8.2575  -17.5800   22.8959 C.ar    1  UNL1        0.1628
      2 N          -7.5749  -16.4953   23.6753 N.ar    1  UNL1       -0.2204
      3 C          -6.0775  -16.4581   23.7556 C.ar    1  UNL1        0.1098
      4 C          -5.2627  -17.5056   23.0564 C.ar    1  UNL1        0.0412
      5 C          -3.7653  -17.4684   23.1366 C.ar    1  UNL1        0.0035
      6 C          -2.9505  -18.5158   22.4375 C.ar    1  UNL1        0.0002
      7 C          -3.6331  -19.6006   21.6581 C.ar    1  UNL1        0.0015
      8 C          -5.1305  -19.6378   21.5778 C.ar    1  UNL1        0.0192
      9 C          -5.9452  -18.5903   22.2770 C.ar    1  UNL1        0.0849
     10 N          -7.4427  -18.6275   22.1968 N.ar    1  UNL1       -0.2265
     11 C         -11.9573  -17.0161   21.5757 C.ar    1  UNL1        0.1388
     12 C         -12.7496  -17.6917   22.6554 C.ar    1  UNL1        0.0369
     13 C         -12.0446  -18.3300   23.8153 C.ar    1  UNL1        0.0032
     14 C         -10.5472  -18.2927   23.8955 C.ar    1  UNL1        0.0032
     15 C          -9.7549  -17.6172   22.8157 C.ar    1  UNL1        0.0388
     16 C         -10.4599  -16.9789   21.6558 C.ar    1  UNL1        0.0399
     17 C         -11.8689  -15.7311   19.3193 C.3     1  UNL1        0.2525
     18 O         -12.6624  -16.3778   20.4157 O.3     1  UNL1       -0.4714
     19 S          -5.3949  -15.3733   24.5349 S.3     1  UNL1       -0.0939
     20 C          -5.5100  -15.3381   26.0301 C.3     1  UNL1        0.0757
@<TRIPOS>BOND
     1    17    18    1
     2    18    11    1
     3    11    12   ar
     4    12    13   ar
     5    13    14   ar
     6    14    15   ar
     7    15     1    1
     8     1     2   ar
     9     2     3   ar
    10     3    19    1
    11    19    20    1
    12     3     4   ar
    13     4     5   ar
    14     5     6   ar
    15     6     7   ar
    16     7     8   ar
    17     8     9   ar
    18     9    10   ar
    19    15    16   ar
    20    16    11   ar
    21    10     1   ar
    22     9     4   ar
@<TRIPOS>MOLECULE
*****
 20 22 0 0 0
SMALL
GASTEIGER

@<TRIPOS>ATOM
      1 C          -7.4254  -18.4843   21.8876 C.ar    1  UNL1        0.1628
      2 N          -7.4581  -17.5104   23.0280 N.ar    1  UNL1       -0.2204
      3 C          -8.7614  -16.9090   23.4635 C.ar    1  UNL1        0.1098
      4 C         -10.0320  -17.2815   22.7586 C.ar    1  UNL1        0.0412
      5 C         -11.3353  -16.6801   23.1941 C.ar    1  UNL1        0.0035
      6 C         -12.6059  -17.0526   22.4892 C.ar    1  UNL1        0.0002
      7 C         -12.5731  -18.0265   21.3488 C.ar    1  UNL1        0.0015
      8 C         -11.2698  -18.6279   20.9133 C.ar    1  UNL1        0.0192
      9 C          -9.9993  -18.2554   21.6182 C.ar    1  UNL1        0.0849
     10 N          -8.6959  -18.8568   21.1828 N.ar    1  UNL1       -0.2265
     11 C          -3.5266  -19.1458   21.5528 C.ar    1  UNL1        0.1388
     12 C          -3.5154  -20.2885   20.5812 C.ar    1  UNL1        0.0369
     13 C          -4.8074  -20.8298   20.0451 C.ar    1  UNL1        0.0032
     14 C          -6.1107  -20.2284   20.4806 C.ar    1  UNL1        0.0032
     15 C          -6.1220  -19.0857   21.4522 C.ar    1  UNL1        0.0388
     16 C          -4.8299  -18.5444   21.9883 C.ar    1  UNL1        0.0399
     17 C          -2.0153  -17.1224   22.1629 C.3     1  UNL1        0.2525
     18 O          -2.2344  -18.6044   22.0889 O.3     1  UNL1       -0.4714
     19 S          -8.7942  -15.9351   24.6039 S.3     1  UNL1       -0.0939
     20 C          -7.5695  -15.1395   24.9461 C.3     1  UNL1        0.0757
@<TRIPOS>BOND
     1    17    18    1
     2    18    11    1
     3    11    12   ar
     4    12    13   ar
     5    13    14   ar
     6    14    15   ar
     7    15     1    1
     8     1     2   ar
     9     2     3   ar
    10     3    19    1
    11    19    20    1
    12     3     4   ar
    13     4     5   ar
    14     5     6   ar
    15     6     7   ar
    16     7     8   ar
    17     8     9   ar
    18     9    10   ar
    19    15    16   ar
    20    16    11   ar
    21    10     1   ar
    22     9     4   ar
@<TRIPOS>MOLECULE
*****
 20 22 0 0 0
SMALL
GASTEIGER

@<TRIPOS>ATOM
      1 C          -7.4085  -18.2408   22.2718 C.ar    1  UNL1        0.1628
      2 N          -6.9675  -17.0554   23.0781 N.ar    1  UNL1       -0.2204
      3 C          -5.5064  -16.8076   23.3100 C.ar    1  UNL1        0.1098
      4 C          -4.4862  -17.7453   22.7354 C.ar    1  UNL1        0.0412
      5 C          -3.0252  -17.4975   22.9672 C.ar    1  UNL1        0.0035
      6 C          -2.0051  -18.4351   22.3926 C.ar    1  UNL1        0.0002
      7 C          -2.4461  -19.6206   21.5863 C.ar    1  UNL1        0.0015
      8 C          -3.9071  -19.8684   21.3544 C.ar    1  UNL1        0.0192
      9 C          -4.9272  -18.9307   21.9290 C.ar    1  UNL1        0.0849
     10 N          -6.3884  -19.1785   21.6972 N.ar    1  UNL1       -0.2265
     11 C         -11.3040  -18.5973   22.9410 C.ar    1  UNL1        0.1388
     12 C         -11.7919  -18.9841   21.5763 C.ar    1  UNL1        0.0369
     13 C         -10.8186  -19.1232   20.4434 C.ar    1  UNL1        0.0032
     14 C          -9.3575  -18.8754   20.6753 C.ar    1  UNL1        0.0032
     15 C          -8.8697  -18.4886   22.0400 C.ar    1  UNL1        0.0388
     16 C          -9.8429  -18.3496   23.1728 C.ar    1  UNL1        0.0399
     17 C         -13.6658  -17.9545   23.8122 C.3     1  UNL1        0.2525
     18 O         -12.2773  -18.4583   24.0739 O.3     1  UNL1       -0.4714
     19 S          -5.0654  -15.6222   24.1163 S.3     1  UNL1       -0.0939
     20 C          -5.5979  -15.4189   25.5038 C.3     1  UNL1        0.0757
@<TRIPOS>BOND
     1    17    18    1
     2    18    11    1
     3    11    12   ar
     4    12    13   ar
     5    13    14   ar
     6    14    15   ar
     7    15     1    1
     8     1     2   ar
     9     2     3   ar
    10     3    19    1
    11    19    20    1
    12     3     4   ar
    13     4     5   ar
    14     5     6   ar
    15     6     7   ar
    16     7     8   ar
    17     8     9   ar
    18     9    10   ar
    19    15    16   ar
    20    16    11   ar
    21    10     1   ar
    22     9     4   ar
@<TRIPOS>MOLECULE
*****
 20 22 0 0 0
SMALL
GASTEIGER

@<TRIPOS>ATOM
      1 C          -7.6339  -19.1276   21.6667 C.ar    1  UNL1        0.1628
      2 N          -8.2343  -19.6604   22.9339 N.ar    1  UNL1       -0.2204
      3 C          -9.6709  -19.3776   23.2599 C.ar    1  UNL1        0.1098
      4 C         -10.5071  -18.5619   22.3188 C.ar    1  UNL1        0.0412
      5 C         -11.9436  -18.2791   22.6449 C.ar    1  UNL1        0.0035
      6 C         -12.7797  -17.4635   21.7039 C.ar    1  UNL1        0.0002
      7 C         -12.1793  -16.9307   20.4367 C.ar    1  UNL1        0.0015
      8 C         -10.7427  -17.2135   20.1106 C.ar    1  UNL1        0.0192
      9 C          -9.9066  -18.0291   21.0517 C.ar    1  UNL1        0.0849
     10 N          -8.4700  -18.3120   20.7257 N.ar    1  UNL1       -0.2265
     11 C          -3.6699  -18.9449   21.7214 C.ar    1  UNL1        0.1388
     12 C          -3.3243  -19.9763   20.6885 C.ar    1  UNL1        0.0369
     13 C          -4.4152  -20.7248   19.9818 C.ar    1  UNL1        0.0032
     14 C          -5.8517  -20.4419   20.3078 C.ar    1  UNL1        0.0032
     15 C          -6.1973  -19.4105   21.3407 C.ar    1  UNL1        0.0388
     16 C          -5.1064  -18.6620   22.0475 C.ar    1  UNL1        0.0399
     17 C          -2.4060  -16.7248   22.1946 C.3     1  UNL1        0.2525
     18 O          -2.5789  -18.1964   22.4282 O.3     1  UNL1       -0.4714
     19 S         -10.2713  -19.9104   24.5271 S.3     1  UNL1       -0.0939
     20 C          -9.8664  -21.2609   25.0389 C.3     1  UNL1        0.0757
@<TRIPOS>BOND
     1    17    18    1
     2    18    11    1
     3    11    12   ar
     4    12    13   ar
     5    13    14   ar
     6    14    15   ar
     7    15     1    1
     8     1     2   ar
     9     2     3   ar
    10     3    19    1
    11    19    20    1
    12     3     4   ar
    13     4     5   ar
    14     5     6   ar
    15     6     7   ar
    16     7     8   ar
    17     8     9   ar
    18     9    10   ar
    19    15    16   ar
    20    16    11   ar
    21    10     1   ar
    22     9     4   ar
@<TRIPOS>MOLECULE
*****
 20 22 0 0 0
SMALL
GASTEIGER

@<TRIPOS>ATOM
      1 C          -4.7597  -17.0841   22.9639 C.ar    1  UNL1        0.1628
      2 N          -5.1644  -18.3513   22.2708 N.ar    1  UNL1       -0.2204
      3 C          -4.2655  -18.9599   21.2357 C.ar    1  UNL1        0.1098
      4 C          -2.9618  -18.3014   20.8937 C.ar    1  UNL1        0.0412
      5 C          -2.0629  -18.9100   19.8586 C.ar    1  UNL1        0.0035
      6 C          -0.7594  -18.2515   19.5166 C.ar    1  UNL1        0.0002
      7 C          -0.3547  -16.9842   20.2098 C.ar    1  UNL1        0.0015
      8 C          -1.2536  -16.3756   21.2448 C.ar    1  UNL1        0.0192
      9 C          -2.5572  -17.0342   21.5868 C.ar    1  UNL1        0.0849
     10 N          -3.4562  -16.4255   22.6219 N.ar    1  UNL1       -0.2265
     11 C          -8.0388  -15.8139   24.8035 C.ar    1  UNL1        0.1388
     12 C          -7.4566  -15.2582   26.0693 C.ar    1  UNL1        0.0369
     13 C          -5.9754  -15.3110   26.2999 C.ar    1  UNL1        0.0032
     14 C          -5.0765  -15.9197   25.2648 C.ar    1  UNL1        0.0032
     15 C          -5.6587  -16.4754   23.9990 C.ar    1  UNL1        0.0388
     16 C          -7.1399  -16.4226   23.7684 C.ar    1  UNL1        0.0399
     17 C         -10.1339  -16.5512   23.4554 C.3     1  UNL1        0.2525
     18 O          -9.5201  -15.7610   24.5729 O.3     1  UNL1       -0.4714
     19 S          -4.6701  -20.2272   20.5426 S.3     1  UNL1       -0.0939
     20 C          -6.1148  -20.6278   20.4954 C.3     1  UNL1        0.0757
@<TRIPOS>BOND
     1    17    18    1
     2    18    11    1
     3    11    12   ar
     4    12    13   ar
     5    13    14   ar
     6    14    15   ar
     7    15     1    1
     8     1     2   ar
     9     2     3   ar
    10     3    19    1
    11    19    20    1
    12     3     4   ar
    13     4     5   ar
    14     5     6   ar
    15     6     7   ar
    16     7     8   ar
    17     8     9   ar
    18     9    10   ar
    19    15    16   ar
    20    16    11   ar
    21    10     1   ar
    22     9     4   ar
@<TRIPOS>MOLECULE
*****
 20 22 0 0 0
SMALL
GASTEIGER

@<TRIPOS>ATOM
      1 C          -6.6815  -18.8700   21.5157 C.ar    1  UNL1        0.1628
      2 N          -7.4550  -19.3145   20.3098 N.ar    1  UNL1       -0.2204
      3 C          -8.9533  -19.3687   20.3579 C.ar    1  UNL1        0.1098
      4 C          -9.6780  -18.9783   21.6119 C.ar    1  UNL1        0.0412
      5 C         -11.1762  -19.0325   21.6600 C.ar    1  UNL1        0.0035
      6 C         -11.9009  -18.6422   22.9139 C.ar    1  UNL1        0.0002
      7 C         -11.1274  -18.1977   24.1198 C.ar    1  UNL1        0.0015
      8 C          -9.6292  -18.1435   24.0717 C.ar    1  UNL1        0.0192
      9 C          -8.9045  -18.5338   22.8177 C.ar    1  UNL1        0.0849
     10 N          -7.4062  -18.4797   22.7696 N.ar    1  UNL1       -0.2265
     11 C          -2.9739  -18.8344   20.1007 C.ar    1  UNL1        0.1388
     12 C          -2.1868  -18.7075   21.3713 C.ar    1  UNL1        0.0369
     13 C          -2.8979  -18.6348   22.6900 C.ar    1  UNL1        0.0032
     14 C          -4.3961  -18.6890   22.7381 C.ar    1  UNL1        0.0032
     15 C          -5.1832  -18.8158   21.4675 C.ar    1  UNL1        0.0388
     16 C          -4.4721  -18.8885   20.1488 C.ar    1  UNL1        0.0399
     17 C          -1.5569  -17.6983   18.2429 C.3     1  UNL1        0.2525
     18 O          -2.2627  -18.9071   18.7820 O.3     1  UNL1       -0.4714
     19 S          -9.7268  -19.8132   19.1521 S.3     1  UNL1       -0.0939
     20 C          -9.0764  -20.6936   18.1265 C.3     1  UNL1        0.0757
@<TRIPOS>BOND
     1    17    18    1
     2    18    11    1
     3    11    12   ar
     4    12    13   ar
     5    13    14   ar
     6    14    15   ar
     7    15     1    1
     8     1     2   ar
     9     2     3   ar
    10     3    19    1
    11    19    20    1
    12     3     4   ar
    13     4     5   ar
    14     5     6   ar
    15     6     7   ar
    16     7     8   ar
    17     8     9   ar
    18     9    10   ar
    19    15    16   ar
    20    16    11   ar
    21    10     1   ar
    22     9     4   ar
@<TRIPOS>MOLECULE
*****
 20 22 0 0 0
SMALL
GASTEIGER

@<TRIPOS>ATOM
      1 C          -7.7658  -17.7978   22.6066 C.ar    1  UNL1        0.1628
      2 N          -8.5569  -18.6409   23.5624 N.ar    1  UNL1       -0.2204
      3 C         -10.0553  -18.6462   23.4945 C.ar    1  UNL1        0.1098
      4 C         -10.7627  -17.8084   22.4709 C.ar    1  UNL1        0.0412
      5 C         -12.2612  -17.8137   22.4030 C.ar    1  UNL1        0.0035
      6 C         -12.9685  -16.9760   21.3794 C.ar    1  UNL1        0.0002
      7 C         -12.1774  -16.1329   20.4237 C.ar    1  UNL1        0.0015
      8 C         -10.6790  -16.1276   20.4915 C.ar    1  UNL1        0.0192
      9 C          -9.9716  -16.9654   21.5151 C.ar    1  UNL1        0.0849
     10 N          -8.4731  -16.9601   21.5830 N.ar    1  UNL1       -0.2265
     11 C          -3.9822  -18.8481   22.0314 C.ar    1  UNL1        0.1388
     12 C          -3.2705  -17.7819   22.8104 C.ar    1  UNL1        0.0369
     13 C          -4.0572  -16.7211   23.5214 C.ar    1  UNL1        0.0032
     14 C          -5.5556  -16.7264   23.4535 C.ar    1  UNL1        0.0032
     15 C          -6.2673  -17.7925   22.6745 C.ar    1  UNL1        0.0388
     16 C          -5.4806  -18.8534   21.9635 C.ar    1  UNL1        0.0399
     17 C          -3.7125  -20.4948   20.0400 C.3     1  UNL1        0.2525
     18 O          -3.1954  -19.9090   21.3204 O.3     1  UNL1       -0.4714
     19 S         -10.8464  -19.4892   24.4503 S.3     1  UNL1       -0.0939
     20 C         -10.2155  -20.6902   25.0902 C.3     1  UNL1        0.0757
@<TRIPOS>BOND
     1    17    18    1
     2    18    11    1
     3    11    12   ar
     4    12    13   ar
     5    13    14   ar
     6    14    15   ar
     7    15     1    1
     8     1     2   ar
     9     2     3   ar
    10     3    19    1
    11    19    20    1
    12     3     4   ar
    13     4     5   ar
    14     5     6   ar
    15     6     7   ar
    16     7     8   ar
    17     8     9   ar
    18     9    10   ar
    19    15    16   ar
    20    16    11   ar
    21    10     1   ar
    22     9     4   ar
@<TRIPOS>MOLECULE
*****
 20 22 0 0 0
SMALL
GASTEIGER

@<TRIPOS>ATOM
      1 C          -8.2720  -18.3557   22.2771 C.ar    1  UNL1        0.1628
      2 N          -7.7962  -19.4999   21.4320 N.ar    1  UNL1       -0.2204
      3 C          -6.3273  -19.7704   21.2940 C.ar    1  UNL1        0.1098
      4 C          -5.3341  -18.8966   22.0013 C.ar    1  UNL1        0.0412
      5 C          -3.8652  -19.1671   21.8634 C.ar    1  UNL1        0.0035
      6 C          -2.8721  -18.2933   22.5706 C.ar    1  UNL1        0.0002
      7 C          -3.3479  -17.1491   23.4158 C.ar    1  UNL1        0.0015
      8 C          -4.8168  -16.8786   23.5537 C.ar    1  UNL1        0.0192
      9 C          -5.8099  -17.7524   22.8465 C.ar    1  UNL1        0.0849
     10 N          -7.2789  -17.4819   22.9844 N.ar    1  UNL1       -0.2265
     11 C         -11.9423  -17.0803   21.4694 C.ar    1  UNL1        0.1388
     12 C         -12.6789  -17.5444   22.6909 C.ar    1  UNL1        0.0369
     13 C         -11.9466  -18.2790   23.7744 C.ar    1  UNL1        0.0032
     14 C         -10.4776  -18.5494   23.6365 C.ar    1  UNL1        0.0032
     15 C          -9.7410  -18.0852   22.4150 C.ar    1  UNL1        0.0388
     16 C         -10.4733  -17.3507   21.3315 C.ar    1  UNL1        0.0399
     17 C         -11.9106  -15.7064   19.2645 C.3     1  UNL1        0.2525
     18 O         -12.6747  -16.3457   20.3859 O.3     1  UNL1       -0.4714
     19 S          -5.8515  -20.9147   20.4489 S.3     1  UNL1       -0.0939
     20 C          -6.7669  -21.5259   19.4299 C.3     1  UNL1        0.0757
@<TRIPOS>BOND
     1    17    18    1
     2    18    11    1
     3    11    12   ar
     4    12    13   ar
     5    13    14   ar
     6    14    15   ar
     7    15     1    1
     8     1     2   ar
     9     2     3   ar
    10     3    19    1
    11    19    20    1
    12     3     4   ar
    13     4     5   ar
    14     5     6   ar
    15     6     7   ar
    16     7     8   ar
    17     8     9   ar
    18     9    10   ar
    19    15    16   ar
    20    16    11   ar
    21    10     1   ar
    22     9     4   ar
