@<TRIPOS>MOLECULE
*****
 32 35 0 0 0
SMALL
GASTEIGER

@<TRIPOS>ATOM
      1 O          -8.8571  -17.8233   24.4906 O.2     1  UNL1       -0.2706
      2 C          -9.4709  -19.1748   24.2743 C.2     1  UNL1        0.2701
      3 N          -8.7928  -20.1726   23.3832 N.am    1  UNL1       -0.2999
      4 H          -9.1956  -21.0596   23.2412 H       1  UNL1        0.1496
      5 C          -7.5007  -19.8190   22.7083 C.3     1  UNL1        0.1035
      6 C          -6.8185  -18.5385   22.3277 C.3     1  UNL1        0.0933
      7 N          -5.6733  -19.3190   21.7538 N.3     1  UNL1       -0.2711
      8 C          -6.3554  -20.5996   22.1345 C.3     1  UNL1        0.0933
      9 C          -4.3812  -18.9654   21.0790 C.3     1  UNL1        0.0578
     10 C          -3.1856  -18.5844   21.9007 C.3     1  UNL1        0.0184
     11 C          -1.8935  -18.2308   21.2258 C.3     1  UNL1        0.0306
     12 C          -1.7970  -18.2582   19.7292 C.3     1  UNL1        0.1106
     13 O          -0.5050  -17.9046   19.0542 O.3     1  UNL1       -0.3845
     14 C          -2.9927  -18.6393   18.9075 C.3     1  UNL1        0.0306
     15 C          -4.2847  -18.9929   19.5823 C.3     1  UNL1        0.0184
     16 H          -0.6135  -17.9722   18.0927 H       1  UNL1        0.2103
     17 C         -10.7630  -19.5284   24.9492 C.3     1  UNL1        0.2850
     18 N         -12.0648  -19.3193   24.2336 N.pl3   1  UNL1       -0.2091
     19 H         -12.8130  -19.9419   24.3809 H       1  UNL1        0.2928
     20 C         -12.2263  -18.1616   23.2936 C.2     1  UNL1        0.3493
     21 N         -12.9554  -16.8837   23.5858 N.2     1  UNL1        0.0798
     22 N         -12.8668  -16.0109   22.3691 N.2     1  UNL1       -0.0381
     23 C         -12.0829  -16.7494   21.3249 C.2     1  UNL1        0.1169
     24 C         -11.6785  -16.3832   19.9277 C.3     1  UNL1        0.0759
     25 C         -10.8782  -17.3462   19.1018 C.2     1  UNL1       -0.0158
     26 C         -10.4824  -18.6755   19.6732 C.2     1  UNL1        0.0678
     27 C         -10.8868  -19.0416   21.0705 C.2     1  UNL1        0.0123
     28 C         -11.6871  -18.0786   21.8963 C.2     1  UNL1        0.1019
     29 C          -9.6821  -19.6385   18.8473 C.3     1  UNL1        0.4183
     30 F          -8.8817  -20.6015   18.0214 F       1  UNL1       -0.1659
     31 F         -10.9170  -20.0065   18.0796 F       1  UNL1       -0.1659
     32 F          -8.4471  -19.2706   19.6150 F       1  UNL1       -0.1659
@<TRIPOS>BOND
     1     1     2    2
     2     2    17    1
     3    17    18    1
     4    18    20    1
     5    20    21    2
     6    21    22    1
     7    22    23    2
     8    23    24    1
     9    24    25    1
    10    25    26    2
    11    26    29    1
    12    29    30    1
    13    29    31    1
    14    29    32    1
    15    26    27    1
    16    27    28    2
    17     2     3   am
    18     3     5    1
    19     5     6    1
    20     6     7    1
    21     9     7    1
    22     9    10    1
    23    10    11    1
    24    11    12    1
    25    12    13    1
    26    12    14    1
    27    14    15    1
    28     7     8    1
    29    28    20    1
    30     8     5    1
    31    28    23    1
    32    15     9    1
    33    18    19    1
    34     3     4    1
    35    13    16    1
@<TRIPOS>MOLECULE
*****
 32 35 0 0 0
SMALL
GASTEIGER

@<TRIPOS>ATOM
      1 O          -6.0012  -21.7825   21.0303 O.2     1  UNL1       -0.2706
      2 C          -5.3203  -20.6598   20.3051 C.2     1  UNL1        0.2701
      3 N          -5.9673  -19.3082   20.2387 N.am    1  UNL1       -0.2999
      4 H          -5.5203  -18.5714   19.7627 H       1  UNL1        0.1496
      5 C          -7.2952  -19.0793   20.8976 C.3     1  UNL1        0.1035
      6 C          -7.7439  -18.5040   22.2081 C.3     1  UNL1        0.0933
      7 N          -9.1733  -18.7556   21.8293 N.3     1  UNL1       -0.2711
      8 C          -8.7247  -19.3309   20.5187 C.3     1  UNL1        0.0933
      9 C         -10.5013  -18.5266   22.4881 C.3     1  UNL1        0.0578
     10 C         -11.5881  -17.7999   21.7527 C.3     1  UNL1        0.0184
     11 C         -12.9160  -17.5710   22.4116 C.3     1  UNL1        0.0306
     12 C         -13.1572  -18.0688   23.8059 C.3     1  UNL1        0.1106
     13 O         -14.4851  -17.8399   24.4648 O.3     1  UNL1       -0.3845
     14 C         -12.0704  -18.7955   24.5413 C.3     1  UNL1        0.0306
     15 C         -10.7425  -19.0244   23.8824 C.3     1  UNL1        0.0184
     16 H         -14.4736  -18.2216   25.3565 H       1  UNL1        0.2103
     17 C          -3.9923  -20.8888   19.6462 C.3     1  UNL1        0.2850
     18 N          -2.7252  -20.6975   20.4261 N.pl3   1  UNL1       -0.2091
     19 H          -2.3360  -21.4514   20.9255 H       1  UNL1        0.2928
     20 C          -2.0512  -19.3576   20.4450 C.2     1  UNL1        0.3493
     21 N          -0.8230  -18.9775   19.6723 N.2     1  UNL1        0.0798
     22 N          -0.4999  -17.5475   19.9897 N.2     1  UNL1       -0.0381
     23 C          -1.5284  -17.0438   20.9585 C.2     1  UNL1        0.1169
     24 C          -1.7157  -15.7111   21.6208 C.3     1  UNL1        0.0759
     25 C          -2.8618  -15.4971   22.5645 C.2     1  UNL1       -0.0158
     26 C          -3.8206  -16.6158   22.8459 C.2     1  UNL1        0.0678
     27 C          -3.6333  -17.9485   22.1836 C.2     1  UNL1        0.0123
     28 C          -2.4872  -18.1625   21.2399 C.2     1  UNL1        0.1019
     29 C          -4.9668  -16.4017   23.7896 C.3     1  UNL1        0.4183
     30 F          -6.1129  -16.1876   24.7332 F       1  UNL1       -0.1659
     31 F          -5.0091  -17.8742   24.0722 F       1  UNL1       -0.1659
     32 F          -4.9244  -14.9292   23.5069 F       1  UNL1       -0.1659
@<TRIPOS>BOND
     1     1     2    2
     2     2    17    1
     3    17    18    1
     4    18    20    1
     5    20    21    2
     6    21    22    1
     7    22    23    2
     8    23    24    1
     9    24    25    1
    10    25    26    2
    11    26    29    1
    12    29    30    1
    13    29    31    1
    14    29    32    1
    15    26    27    1
    16    27    28    2
    17     2     3   am
    18     3     5    1
    19     5     6    1
    20     6     7    1
    21     9     7    1
    22     9    10    1
    23    10    11    1
    24    11    12    1
    25    12    13    1
    26    12    14    1
    27    14    15    1
    28     7     8    1
    29    28    20    1
    30     8     5    1
    31    28    23    1
    32    15     9    1
    33    18    19    1
    34     3     4    1
    35    13    16    1
@<TRIPOS>MOLECULE
*****
 32 35 0 0 0
SMALL
GASTEIGER

@<TRIPOS>ATOM
      1 O          -8.9756  -19.1620   24.9147 O.2     1  UNL1       -0.2706
      2 C          -9.9907  -19.4958   23.8620 C.2     1  UNL1        0.2701
      3 N          -9.5588  -19.6924   22.4391 N.am    1  UNL1       -0.2999
      4 H         -10.2250  -19.9114   21.7481 H       1  UNL1        0.1496
      5 C          -8.1116  -19.5552   22.0688 C.3     1  UNL1        0.1035
      6 C          -7.2642  -18.4618   21.4890 C.3     1  UNL1        0.0933
      7 N          -6.0651  -19.3613   21.5453 N.3     1  UNL1       -0.2711
      8 C          -6.9125  -20.4547   22.1252 C.3     1  UNL1        0.0933
      9 C          -4.6180  -19.2241   21.1751 C.3     1  UNL1        0.0578
     10 C          -4.2130  -19.1915   19.7312 C.3     1  UNL1        0.0184
     11 C          -2.7659  -19.0544   19.3610 C.3     1  UNL1        0.0306
     12 C          -1.7237  -18.9498   20.4347 C.3     1  UNL1        0.1106
     13 O          -0.2766  -18.8126   20.0646 O.3     1  UNL1       -0.3845
     14 C          -2.1287  -18.9823   21.8787 C.3     1  UNL1        0.0306
     15 C          -3.5758  -19.1195   22.2488 C.3     1  UNL1        0.0184
     16 H           0.2595  -18.7577   20.8711 H       1  UNL1        0.2103
     17 C         -11.4378  -19.6330   24.2322 C.3     1  UNL1        0.2850
     18 N         -12.4253  -18.5909   23.7972 N.pl3   1  UNL1       -0.2091
     19 H         -13.2613  -18.4641   24.3014 H       1  UNL1        0.2928
     20 C         -12.1390  -17.7421   22.5941 C.2     1  UNL1        0.3493
     21 N         -12.9569  -17.6887   21.3379 N.2     1  UNL1        0.0798
     22 N         -12.3078  -16.7113   20.4033 N.2     1  UNL1       -0.0381
     23 C         -11.0887  -16.1606   21.0819 C.2     1  UNL1        0.1169
     24 C         -10.0602  -15.1614   20.6419 C.3     1  UNL1        0.0759
     25 C          -8.9273  -14.7993   21.5559 C.2     1  UNL1       -0.0158
     26 C          -8.8229  -15.4364   22.9098 C.2     1  UNL1        0.0678
     27 C          -9.8514  -16.4356   23.3499 C.2     1  UNL1        0.0123
     28 C         -10.9843  -16.7977   22.4359 C.2     1  UNL1        0.1019
     29 C          -7.6899  -15.0742   23.8238 C.3     1  UNL1        0.4183
     30 F          -6.5570  -14.7120   24.7377 F       1  UNL1       -0.1659
     31 F          -8.6532  -14.9432   24.9661 F       1  UNL1       -0.1659
     32 F          -6.7267  -15.2052   22.6815 F       1  UNL1       -0.1659
@<TRIPOS>BOND
     1     1     2    2
     2     2    17    1
     3    17    18    1
     4    18    20    1
     5    20    21    2
     6    21    22    1
     7    22    23    2
     8    23    24    1
     9    24    25    1
    10    25    26    2
    11    26    29    1
    12    29    30    1
    13    29    31    1
    14    29    32    1
    15    26    27    1
    16    27    28    2
    17     2     3   am
    18     3     5    1
    19     5     6    1
    20     6     7    1
    21     9     7    1
    22     9    10    1
    23    10    11    1
    24    11    12    1
    25    12    13    1
    26    12    14    1
    27    14    15    1
    28     7     8    1
    29    28    20    1
    30     8     5    1
    31    28    23    1
    32    15     9    1
    33    18    19    1
    34     3     4    1
    35    13    16    1
@<TRIPOS>MOLECULE
*****
 32 35 0 0 0
SMALL
GASTEIGER

@<TRIPOS>ATOM
      1 O         -11.1660   -6.3455   19.1319 O.2     1  UNL1       -0.2706
      2 C         -11.1628   -5.3377   18.0209 C.2     1  UNL1        0.2701
      3 N         -12.3071   -5.2852   17.0526 N.am    1  UNL1       -0.2999
      4 H         -12.3049   -4.6237   16.3234 H       1  UNL1        0.1496
      5 C         -13.4547   -6.2404   17.1953 C.3     1  UNL1        0.1035
      6 C         -14.6386   -6.3470   18.1101 C.3     1  UNL1        0.0933
      7 N         -15.0777   -7.5915   17.3970 N.3     1  UNL1       -0.2711
      8 C         -13.8938   -7.4850   16.4822 C.3     1  UNL1        0.0933
      9 C         -16.2253   -8.5468   17.5398 C.3     1  UNL1        0.0578
     10 C         -17.5456   -8.2339   16.9003 C.3     1  UNL1        0.0184
     11 C         -18.6932   -9.1892   17.0430 C.3     1  UNL1        0.0306
     12 C         -18.5206  -10.4574   17.8252 C.3     1  UNL1        0.1106
     13 O         -19.6681  -11.4127   17.9680 O.3     1  UNL1       -0.3845
     14 C         -17.2003  -10.7702   18.4647 C.3     1  UNL1        0.0306
     15 C         -16.0527   -9.8150   18.3220 C.3     1  UNL1        0.0184
     16 H         -19.3899  -12.1751   18.4992 H       1  UNL1        0.2103
     17 C         -10.0151   -4.3824   17.8782 C.3     1  UNL1        0.2850
     18 N          -9.9985   -3.1068   18.6673 N.pl3   1  UNL1       -0.2091
     19 H          -9.4092   -3.0205   19.4512 H       1  UNL1        0.2928
     20 C         -10.8798   -1.9626   18.2620 C.2     1  UNL1        0.3493
     21 N         -10.4418   -0.7286   17.5304 N.2     1  UNL1        0.0798
     22 N         -11.6451    0.1450   17.3334 N.2     1  UNL1       -0.0381
     23 C         -12.8268   -0.5491   17.9431 C.2     1  UNL1        0.1169
     24 C         -14.2724   -0.1633   18.0500 C.3     1  UNL1        0.0759
     25 C         -15.2449   -1.0802   18.7307 C.2     1  UNL1       -0.0158
     26 C         -14.7719   -2.3828   19.3046 C.2     1  UNL1        0.0678
     27 C         -13.3263   -2.7686   19.1978 C.2     1  UNL1        0.0123
     28 C         -12.3538   -1.8517   18.5171 C.2     1  UNL1        0.1019
     29 C         -15.7446   -3.2997   19.9853 C.3     1  UNL1        0.4183
     30 F         -16.7172   -4.2166   20.6660 F       1  UNL1       -0.1659
     31 F         -14.6716   -3.7276   20.9422 F       1  UNL1       -0.1659
     32 F         -16.8175   -2.8719   19.0284 F       1  UNL1       -0.1659
@<TRIPOS>BOND
     1     1     2    2
     2     2    17    1
     3    17    18    1
     4    18    20    1
     5    20    21    2
     6    21    22    1
     7    22    23    2
     8    23    24    1
     9    24    25    1
    10    25    26    2
    11    26    29    1
    12    29    30    1
    13    29    31    1
    14    29    32    1
    15    26    27    1
    16    27    28    2
    17     2     3   am
    18     3     5    1
    19     5     6    1
    20     6     7    1
    21     9     7    1
    22     9    10    1
    23    10    11    1
    24    11    12    1
    25    12    13    1
    26    12    14    1
    27    14    15    1
    28     7     8    1
    29    28    20    1
    30     8     5    1
    31    28    23    1
    32    15     9    1
    33    18    19    1
    34     3     4    1
    35    13    16    1
@<TRIPOS>MOLECULE
*****
 32 35 0 0 0
SMALL
GASTEIGER

@<TRIPOS>ATOM
      1 O          -9.8024  -16.8603   19.8398 O.2     1  UNL1       -0.2706
      2 C         -10.4510  -18.0944   20.3933 C.2     1  UNL1        0.2701
      3 N          -9.6072  -19.2609   20.8141 N.am    1  UNL1       -0.2999
      4 H         -10.0329  -20.0709   21.1773 H       1  UNL1        0.1496
      5 C          -8.1146  -19.1933   20.6814 C.3     1  UNL1        0.1035
      6 C          -7.1033  -19.8020   19.7559 C.3     1  UNL1        0.0933
      7 N          -6.0037  -19.0976   20.4939 N.3     1  UNL1       -0.2711
      8 C          -7.0149  -18.4888   21.4195 C.3     1  UNL1        0.0933
      9 C          -4.5111  -19.0300   20.3612 C.3     1  UNL1        0.0578
     10 C          -3.8936  -18.3522   19.1742 C.3     1  UNL1        0.0184
     11 C          -2.4010  -18.2846   19.0415 C.3     1  UNL1        0.0306
     12 C          -1.5259  -18.8948   20.0959 C.3     1  UNL1        0.1106
     13 O          -0.0333  -18.8273   19.9634 O.3     1  UNL1       -0.3845
     14 C          -2.1435  -19.5727   21.2830 C.3     1  UNL1        0.0306
     15 C          -3.6360  -19.6403   21.4157 C.3     1  UNL1        0.0184
     16 H           0.3790  -19.2661   20.7238 H       1  UNL1        0.2103
     17 C         -11.9436  -18.1620   20.5259 C.3     1  UNL1        0.2850
     18 N         -12.6126  -17.6214   21.7549 N.pl3   1  UNL1       -0.2091
     19 H         -13.3891  -17.0221   21.6695 H       1  UNL1        0.2928
     20 C         -12.0986  -17.9938   23.1140 C.2     1  UNL1        0.3493
     21 N         -12.7804  -18.8988   24.0970 N.2     1  UNL1        0.0798
     22 N         -11.9157  -18.9909   25.3192 N.2     1  UNL1       -0.0381
     23 C         -10.6995  -18.1429   25.0916 C.2     1  UNL1        0.1169
     24 C          -9.5038  -17.8523   25.9492 C.3     1  UNL1        0.0759
     25 C          -8.4211  -16.9454   25.4440 C.2     1  UNL1       -0.0158
     26 C          -8.5341  -16.3292   24.0811 C.2     1  UNL1        0.0678
     27 C          -9.7299  -16.6198   23.2235 C.2     1  UNL1        0.0123
     28 C         -10.8126  -17.5267   23.7287 C.2     1  UNL1        0.1019
     29 C          -7.4513  -15.4222   23.5760 C.3     1  UNL1        0.4183
     30 F          -6.3686  -14.5154   23.0707 F       1  UNL1       -0.1659
     31 F          -6.8040  -15.4414   24.9289 F       1  UNL1       -0.1659
     32 F          -8.0987  -15.4031   22.2230 F       1  UNL1       -0.1659
@<TRIPOS>BOND
     1     1     2    2
     2     2    17    1
     3    17    18    1
     4    18    20    1
     5    20    21    2
     6    21    22    1
     7    22    23    2
     8    23    24    1
     9    24    25    1
    10    25    26    2
    11    26    29    1
    12    29    30    1
    13    29    31    1
    14    29    32    1
    15    26    27    1
    16    27    28    2
    17     2     3   am
    18     3     5    1
    19     5     6    1
    20     6     7    1
    21     9     7    1
    22     9    10    1
    23    10    11    1
    24    11    12    1
    25    12    13    1
    26    12    14    1
    27    14    15    1
    28     7     8    1
    29    28    20    1
    30     8     5    1
    31    28    23    1
    32    15     9    1
    33    18    19    1
    34     3     4    1
    35    13    16    1
@<TRIPOS>MOLECULE
*****
 32 35 0 0 0
SMALL
GASTEIGER

@<TRIPOS>ATOM
      1 O          -8.1236  -15.7154   22.8916 O.2     1  UNL1       -0.2706
      2 C          -7.9239  -16.0773   24.3335 C.2     1  UNL1        0.2701
      3 N          -6.6080  -16.6320   24.7924 N.am    1  UNL1       -0.2999
      4 H          -6.4770  -16.8695   25.7388 H       1  UNL1        0.1496
      5 C          -5.4916  -16.8247   23.8093 C.3     1  UNL1        0.1035
      6 C          -5.0913  -17.9141   22.8591 C.3     1  UNL1        0.0933
      7 N          -3.9128  -17.0972   22.4189 N.3     1  UNL1       -0.2711
      8 C          -4.3131  -16.0078   23.3691 C.3     1  UNL1        0.0933
      9 C          -2.7964  -17.2900   21.4358 C.3     1  UNL1        0.0578
     10 C          -2.8602  -18.4084   20.4383 C.3     1  UNL1        0.0184
     11 C          -1.7438  -18.6012   19.4552 C.3     1  UNL1        0.0306
     12 C          -0.5636  -17.6755   19.4695 C.3     1  UNL1        0.1106
     13 O           0.5527  -17.8681   18.4864 O.3     1  UNL1       -0.3845
     14 C          -0.4999  -16.5570   20.4670 C.3     1  UNL1        0.0306
     15 C          -1.6162  -16.3643   21.4501 C.3     1  UNL1        0.0184
     16 H           1.2312  -17.1901   18.6307 H       1  UNL1        0.2103
     17 C          -9.0403  -15.8846   25.3167 C.3     1  UNL1        0.2850
     18 N          -9.7863  -17.0731   25.8469 N.pl3   1  UNL1       -0.2091
     19 H         -10.1713  -17.0486   26.7527 H       1  UNL1        0.2928
     20 C          -9.9456  -18.2988   24.9971 C.2     1  UNL1        0.3493
     21 N          -9.5848  -19.6997   25.3938 N.2     1  UNL1        0.0798
     22 N          -9.9100  -20.6055   24.2433 N.2     1  UNL1       -0.0381
     23 C         -10.4717  -19.7645   23.1355 C.2     1  UNL1        0.1169
     24 C         -10.9660  -20.1126   21.7628 C.3     1  UNL1        0.0759
     25 C         -11.4823  -19.0351   20.8560 C.2     1  UNL1       -0.0158
     26 C         -11.5044  -17.6095   21.3219 C.2     1  UNL1        0.0678
     27 C         -11.0101  -17.2613   22.6946 C.2     1  UNL1        0.0123
     28 C         -10.4938  -18.3388   23.6014 C.2     1  UNL1        0.1019
     29 C         -12.0208  -16.5320   20.4150 C.3     1  UNL1        0.4183
     30 F         -12.5371  -15.4545   19.5081 F       1  UNL1       -0.1659
     31 F         -12.6001  -15.8141   21.5978 F       1  UNL1       -0.1659
     32 F         -11.4414  -17.2498   19.2323 F       1  UNL1       -0.1659
@<TRIPOS>BOND
     1     1     2    2
     2     2    17    1
     3    17    18    1
     4    18    20    1
     5    20    21    2
     6    21    22    1
     7    22    23    2
     8    23    24    1
     9    24    25    1
    10    25    26    2
    11    26    29    1
    12    29    30    1
    13    29    31    1
    14    29    32    1
    15    26    27    1
    16    27    28    2
    17     2     3   am
    18     3     5    1
    19     5     6    1
    20     6     7    1
    21     9     7    1
    22     9    10    1
    23    10    11    1
    24    11    12    1
    25    12    13    1
    26    12    14    1
    27    14    15    1
    28     7     8    1
    29    28    20    1
    30     8     5    1
    31    28    23    1
    32    15     9    1
    33    18    19    1
    34     3     4    1
    35    13    16    1
@<TRIPOS>MOLECULE
*****
 32 35 0 0 0
SMALL
GASTEIGER

@<TRIPOS>ATOM
      1 O           5.8791   -4.2397   22.6991 O.2     1  UNL1       -0.2706
      2 C           7.2390   -4.2511   22.0661 C.2     1  UNL1        0.2701
      3 N           8.4516   -4.5439   22.8990 N.am    1  UNL1       -0.2999
      4 H           9.3441   -4.5514   22.4835 H       1  UNL1        0.1496
      5 C           8.3043   -4.8255   24.3650 C.3     1  UNL1        0.1035
      6 C           7.7872   -5.9754   25.1775 C.3     1  UNL1        0.0933
      7 N           8.0960   -5.2235   26.4382 N.3     1  UNL1       -0.2711
      8 C           8.6132   -4.0736   25.6257 C.3     1  UNL1        0.0933
      9 C           7.9487   -5.5051   27.9042 C.3     1  UNL1        0.0578
     10 C           8.9639   -6.3538   28.6106 C.3     1  UNL1        0.0184
     11 C           8.8167   -6.6353   30.0766 C.3     1  UNL1        0.0306
     12 C           7.6541   -6.0682   30.8361 C.3     1  UNL1        0.1106
     13 O           7.5068   -6.3496   32.3020 O.3     1  UNL1       -0.3845
     14 C           6.6389   -5.2195   30.1296 C.3     1  UNL1        0.0306
     15 C           6.7862   -4.9380   28.6637 C.3     1  UNL1        0.0184
     16 H           6.7084   -5.9119   32.6366 H       1  UNL1        0.2103
     17 C           7.3862   -3.9695   20.6001 C.3     1  UNL1        0.2850
     18 N           6.1671   -3.7994   19.7429 N.pl3   1  UNL1       -0.2091
     19 H           5.4379   -4.4594   19.7876 H       1  UNL1        0.2928
     20 C           6.0590   -2.6239   18.8175 C.2     1  UNL1        0.3493
     21 N           7.0838   -2.1994   17.8078 N.2     1  UNL1        0.0798
     22 N           6.5652   -0.9796   17.1056 N.2     1  UNL1       -0.0381
     23 C           5.2199   -0.6501   17.6814 C.2     1  UNL1        0.1169
     24 C           4.2393    0.4440   17.3790 C.3     1  UNL1        0.0759
     25 C           2.9459    0.5218   18.1345 C.2     1  UNL1       -0.0158
     26 C           2.6330   -0.4944   19.1925 C.2     1  UNL1        0.0678
     27 C           3.6136   -1.5885   19.4950 C.2     1  UNL1        0.0123
     28 C           4.9070   -1.6663   18.7394 C.2     1  UNL1        0.1019
     29 C           1.3395   -0.4166   19.9481 C.3     1  UNL1        0.4183
     30 F           0.0460   -0.3387   20.7036 F       1  UNL1       -0.1659
     31 F           1.9666   -1.1488   21.0972 F       1  UNL1       -0.1659
     32 F           0.7124    0.3157   18.7990 F       1  UNL1       -0.1659
@<TRIPOS>BOND
     1     1     2    2
     2     2    17    1
     3    17    18    1
     4    18    20    1
     5    20    21    2
     6    21    22    1
     7    22    23    2
     8    23    24    1
     9    24    25    1
    10    25    26    2
    11    26    29    1
    12    29    30    1
    13    29    31    1
    14    29    32    1
    15    26    27    1
    16    27    28    2
    17     2     3   am
    18     3     5    1
    19     5     6    1
    20     6     7    1
    21     9     7    1
    22     9    10    1
    23    10    11    1
    24    11    12    1
    25    12    13    1
    26    12    14    1
    27    14    15    1
    28     7     8    1
    29    28    20    1
    30     8     5    1
    31    28    23    1
    32    15     9    1
    33    18    19    1
    34     3     4    1
    35    13    16    1
@<TRIPOS>MOLECULE
*****
 32 35 0 0 0
SMALL
GASTEIGER

@<TRIPOS>ATOM
      1 O          -9.3638  -18.7498   19.4844 O.2     1  UNL1       -0.2706
      2 C          -9.6610  -19.6103   20.6765 C.2     1  UNL1        0.2701
      3 N          -8.5466  -20.0570   21.5757 N.am    1  UNL1       -0.2999
      4 H          -8.7417  -20.6218   22.3581 H       1  UNL1        0.1496
      5 C          -7.1349  -19.6430   21.2827 C.3     1  UNL1        0.1035
      6 C          -6.0624  -20.1185   20.3481 C.3     1  UNL1        0.0933
      7 N          -5.1385  -19.0576   20.8684 N.3     1  UNL1       -0.2711
      8 C          -6.2110  -18.5820   21.8030 C.3     1  UNL1        0.0933
      9 C          -3.7268  -18.6436   20.5754 C.3     1  UNL1        0.0578
     10 C          -3.3254  -18.2860   19.1751 C.3     1  UNL1        0.0184
     11 C          -1.9137  -17.8720   18.8821 C.3     1  UNL1        0.0306
     12 C          -0.9034  -17.8157   19.9894 C.3     1  UNL1        0.1106
     13 O           0.5082  -17.4018   19.6966 O.3     1  UNL1       -0.3845
     14 C          -1.3050  -18.1734   21.3898 C.3     1  UNL1        0.0306
     15 C          -2.7166  -18.5873   21.6827 C.3     1  UNL1        0.0184
     16 H           1.0267  -17.4187   20.5162 H       1  UNL1        0.2103
     17 C         -11.0727  -20.0242   20.9695 C.3     1  UNL1        0.2850
     18 N         -11.7588  -19.5263   22.2071 N.pl3   1  UNL1       -0.2091
     19 H         -12.7419  -19.5280   22.2594 H       1  UNL1        0.2928
     20 C         -10.9469  -19.0259   23.3649 C.2     1  UNL1        0.3493
     21 N         -10.8943  -19.6363   24.7341 N.2     1  UNL1        0.0798
     22 N          -9.9600  -18.8148   25.5721 N.2     1  UNL1       -0.0381
     23 C          -9.4353  -17.6967   24.7209 C.2     1  UNL1        0.1169
     24 C          -8.4809  -16.5767   25.0117 C.3     1  UNL1        0.0759
     25 C          -8.1365  -15.5872   23.9384 C.2     1  UNL1       -0.0158
     26 C          -8.7464  -15.7176   22.5743 C.2     1  UNL1        0.0678
     27 C          -9.7008  -16.8376   22.2834 C.2     1  UNL1        0.0123
     28 C         -10.0452  -17.8272   23.3568 C.2     1  UNL1        0.1019
     29 C          -8.4019  -14.7280   21.5009 C.3     1  UNL1        0.4183
     30 F          -8.0574  -13.7384   20.4276 F       1  UNL1       -0.1659
     31 F          -9.7283  -14.9766   20.8460 F       1  UNL1       -0.1659
     32 F          -7.0756  -14.4794   22.1559 F       1  UNL1       -0.1659
@<TRIPOS>BOND
     1     1     2    2
     2     2    17    1
     3    17    18    1
     4    18    20    1
     5    20    21    2
     6    21    22    1
     7    22    23    2
     8    23    24    1
     9    24    25    1
    10    25    26    2
    11    26    29    1
    12    29    30    1
    13    29    31    1
    14    29    32    1
    15    26    27    1
    16    27    28    2
    17     2     3   am
    18     3     5    1
    19     5     6    1
    20     6     7    1
    21     9     7    1
    22     9    10    1
    23    10    11    1
    24    11    12    1
    25    12    13    1
    26    12    14    1
    27    14    15    1
    28     7     8    1
    29    28    20    1
    30     8     5    1
    31    28    23    1
    32    15     9    1
    33    18    19    1
    34     3     4    1
    35    13    16    1
@<TRIPOS>MOLECULE
*****
 32 35 0 0 0
SMALL
GASTEIGER

@<TRIPOS>ATOM
      1 O          -1.0685    3.5203   18.8652 O.2     1  UNL1       -0.2706
      2 C          -1.5862    3.1255   20.2165 C.2     1  UNL1        0.2701
      3 N          -0.8831    2.0629   21.0080 N.am    1  UNL1       -0.2999
      4 H          -1.2229    1.8038   21.8949 H       1  UNL1        0.1496
      5 C           0.3378    1.3951   20.4480 C.3     1  UNL1        0.1035
      6 C           0.6392    0.0401   19.8798 C.3     1  UNL1        0.0933
      7 N           2.0645    0.4508   19.6562 N.3     1  UNL1       -0.2711
      8 C           1.7631    1.8059   20.2245 C.3     1  UNL1        0.0933
      9 C           3.2853   -0.2170   19.0963 C.3     1  UNL1        0.0578
     10 C           3.9821   -1.2874   19.8828 C.3     1  UNL1        0.0184
     11 C           5.2030   -1.9552   19.3229 C.3     1  UNL1        0.0306
     12 C           5.7271   -1.5526   17.9764 C.3     1  UNL1        0.1106
     13 O           6.9479   -2.2203   17.4164 O.3     1  UNL1       -0.3845
     14 C           5.0303   -0.4821   17.1898 C.3     1  UNL1        0.0306
     15 C           3.8095    0.1856   17.7497 C.3     1  UNL1        0.0184
     16 H           7.1503   -1.8457   16.5448 H       1  UNL1        0.2103
     17 C          -2.8071    3.7933   20.7764 C.3     1  UNL1        0.2850
     18 N          -3.9236    2.9647   21.3395 N.pl3   1  UNL1       -0.2091
     19 H          -4.1092    2.0717   20.9688 H       1  UNL1        0.2928
     20 C          -4.7574    3.4967   22.4672 C.2     1  UNL1        0.3493
     21 N          -6.1895    3.9333   22.3752 N.2     1  UNL1        0.0798
     22 N          -6.6225    4.3919   23.7361 N.2     1  UNL1       -0.0381
     23 C          -5.4581    4.2387   24.6692 C.2     1  UNL1        0.1169
     24 C          -5.2986    4.5315   26.1317 C.3     1  UNL1        0.0759
     25 C          -3.9863    4.2710   26.8099 C.2     1  UNL1       -0.0158
     26 C          -2.8336    3.7177   26.0256 C.2     1  UNL1        0.0678
     27 C          -2.9931    3.4249   24.5632 C.2     1  UNL1        0.0123
     28 C          -4.3054    3.6854   23.8850 C.2     1  UNL1        0.1019
     29 C          -1.5212    3.4572   26.7039 C.3     1  UNL1        0.4183
     30 F          -0.2090    3.1968   27.3822 F       1  UNL1       -0.1659
     31 F          -1.3895    2.1654   25.9531 F       1  UNL1       -0.1659
     32 F          -1.6529    4.7491   27.4547 F       1  UNL1       -0.1659
@<TRIPOS>BOND
     1     1     2    2
     2     2    17    1
     3    17    18    1
     4    18    20    1
     5    20    21    2
     6    21    22    1
     7    22    23    2
     8    23    24    1
     9    24    25    1
    10    25    26    2
    11    26    29    1
    12    29    30    1
    13    29    31    1
    14    29    32    1
    15    26    27    1
    16    27    28    2
    17     2     3   am
    18     3     5    1
    19     5     6    1
    20     6     7    1
    21     9     7    1
    22     9    10    1
    23    10    11    1
    24    11    12    1
    25    12    13    1
    26    12    14    1
    27    14    15    1
    28     7     8    1
    29    28    20    1
    30     8     5    1
    31    28    23    1
    32    15     9    1
    33    18    19    1
    34     3     4    1
    35    13    16    1
