@<TRIPOS>MOLECULE
*****
 31 35 0 0 0
SMALL
GASTEIGER

@<TRIPOS>ATOM
      1 C         -10.9905   -5.9179   18.9880 C.ar    1  UNL1        0.1388
      2 C         -10.9809   -4.4195   19.0565 C.ar    1  UNL1        0.0384
      3 C         -12.2748   -3.6632   19.1179 C.ar    1  UNL1        0.0221
      4 C         -13.5783   -4.4053   19.1108 C.ar    1  UNL1        0.0827
      5 C         -13.5880   -5.9037   19.0423 C.ar    1  UNL1        0.0217
      6 C         -12.2941   -6.6600   18.9809 C.ar    1  UNL1        0.0384
      7 C         -15.0172   -6.3589   19.0509 C.ar    1  UNL1        0.0163
      8 C         -15.8908   -5.1417   19.1247 C.ar    1  UNL1        0.0996
      9 N         -15.0016   -3.9343   19.1617 N.ar    1  UNL1       -0.2077
     10 C         -15.4899   -7.7814   18.9955 C.2     1  UNL1       -0.0222
     11 C         -14.8730   -8.7392   18.0197 C.2     1  UNL1       -0.0132
     12 C         -15.3457  -10.1617   17.9642 C.3     1  UNL1        0.0950
     13 N         -16.4352  -10.6263   18.8845 N.3     1  UNL1       -0.2935
     14 C         -17.0520   -9.6685   19.8603 C.3     1  UNL1        0.0735
     15 C         -16.5793   -8.2461   19.9158 C.3     1  UNL1        0.0432
     16 H         -16.0502  -11.3966   19.4313 H       1  UNL1        0.1236
     17 S         -15.4558   -2.5067   19.2366 S.O2    1  UNL1        0.0875
     18 O         -14.7486   -2.3506   20.5501 O.2     1  UNL1       -0.1475
     19 O         -16.1630   -2.6629   17.9230 O.2     1  UNL1       -0.1475
     20 C         -15.9100   -1.0791   19.3114 C.ar    1  UNL1        0.1467
     21 C         -17.1671   -0.7298   20.0513 C.ar    1  UNL1        0.1192
     22 N         -17.6214    0.6978   20.1261 N.ar    1  UNL1       -0.2409
     23 C         -16.8184    1.7761   19.4610 C.ar    1  UNL1        0.0989
     24 C         -15.5612    1.4269   18.7211 C.ar    1  UNL1        0.0205
     25 C         -14.7582    2.5052   18.0560 C.ar    1  UNL1        0.0016
     26 C         -13.5011    2.1560   17.3161 C.ar    1  UNL1        0.0001
     27 C         -13.0469    0.7283   17.2412 C.ar    1  UNL1        0.0000
     28 C         -13.8498   -0.3500   17.9063 C.ar    1  UNL1        0.0014
     29 C         -15.1070   -0.0007   18.6462 C.ar    1  UNL1        0.0221
     30 C          -9.6578   -8.0461   18.3212 C.3     1  UNL1        0.2525
     31 O          -9.6966   -6.6743   18.9267 O.3     1  UNL1       -0.4714
@<TRIPOS>BOND
     1    30    31    1
     2    31     1    1
     3     1     2   ar
     4     2     3   ar
     5     3     4   ar
     6     4     5   ar
     7     5     6   ar
     8     5     7   ar
     9     7    10    1
    10    10    11    2
    11    11    12    1
    12    12    13    1
    13    13    14    1
    14    14    15    1
    15     7     8   ar
    16     8     9   ar
    17     9    17    1
    18    17    18    2
    19    17    19    2
    20    17    20    1
    21    20    21   ar
    22    21    22   ar
    23    22    23   ar
    24    23    24   ar
    25    24    25   ar
    26    25    26   ar
    27    26    27   ar
    28    27    28   ar
    29    28    29   ar
    30     6     1   ar
    31    15    10    1
    32    29    20   ar
    33     9     4   ar
    34    29    24   ar
    35    13    16    1
@<TRIPOS>MOLECULE
*****
 31 35 0 0 0
SMALL
GASTEIGER

@<TRIPOS>ATOM
      1 C         -10.5386   -5.7724   18.9203 C.ar    1  UNL1        0.1388
      2 C         -10.4351   -4.2763   18.9525 C.ar    1  UNL1        0.0384
      3 C         -11.6792   -3.4389   18.9810 C.ar    1  UNL1        0.0221
      4 C         -13.0269   -4.0975   18.9774 C.ar    1  UNL1        0.0827
      5 C         -13.1304   -5.5936   18.9453 C.ar    1  UNL1        0.0217
      6 C         -11.8862   -6.4311   18.9168 C.ar    1  UNL1        0.0384
      7 C         -14.5855   -5.9578   18.9491 C.ar    1  UNL1        0.0163
      8 C         -15.3813   -4.6867   18.9836 C.ar    1  UNL1        0.0996
      9 N         -14.4180   -3.5370   19.0011 N.ar    1  UNL1       -0.2077
     10 C         -15.1464   -7.3487   18.9231 C.2     1  UNL1       -0.0222
     11 C         -14.5908   -8.3637   17.9685 C.2     1  UNL1       -0.0132
     12 C         -15.1517   -9.7546   17.9424 C.3     1  UNL1        0.0950
     13 N         -16.2682  -10.1306   18.8709 N.3     1  UNL1       -0.2935
     14 C         -16.8238   -9.1156   19.8255 C.3     1  UNL1        0.0735
     15 C         -16.2629   -7.7246   19.8516 C.3     1  UNL1        0.0432
     16 H         -15.9322  -10.9117   19.4343 H       1  UNL1        0.1236
     17 S         -14.7819   -2.0823   19.0361 S.O2    1  UNL1        0.0875
     18 O         -15.0724   -2.1195   17.5649 O.2     1  UNL1       -0.1475
     19 O         -14.4915   -2.0450   20.5072 O.2     1  UNL1       -0.1475
     20 C         -15.1459   -0.6275   19.0711 C.ar    1  UNL1        0.1467
     21 C         -14.1292    0.4092   18.6947 C.ar    1  UNL1        0.1192
     22 N         -14.4932    1.8640   18.7297 N.ar    1  UNL1       -0.2409
     23 C         -15.8738    2.2820   19.1410 C.ar    1  UNL1        0.0989
     24 C         -16.8905    1.2453   19.5174 C.ar    1  UNL1        0.0205
     25 C         -18.2710    1.6633   19.9287 C.ar    1  UNL1        0.0016
     26 C         -19.2877    0.6266   20.3050 C.ar    1  UNL1        0.0001
     27 C         -18.9237   -0.8281   20.2700 C.ar    1  UNL1        0.0000
     28 C         -17.5432   -1.2462   19.8587 C.ar    1  UNL1        0.0014
     29 C         -16.5265   -0.2095   19.4824 C.ar    1  UNL1        0.0221
     30 C          -9.3980   -8.1047   18.8239 C.3     1  UNL1        0.2525
     31 O          -9.2945   -6.6098   18.8918 O.3     1  UNL1       -0.4714
@<TRIPOS>BOND
     1    30    31    1
     2    31     1    1
     3     1     2   ar
     4     2     3   ar
     5     3     4   ar
     6     4     5   ar
     7     5     6   ar
     8     5     7   ar
     9     7    10    1
    10    10    11    2
    11    11    12    1
    12    12    13    1
    13    13    14    1
    14    14    15    1
    15     7     8   ar
    16     8     9   ar
    17     9    17    1
    18    17    18    2
    19    17    19    2
    20    17    20    1
    21    20    21   ar
    22    21    22   ar
    23    22    23   ar
    24    23    24   ar
    25    24    25   ar
    26    25    26   ar
    27    26    27   ar
    28    27    28   ar
    29    28    29   ar
    30     6     1   ar
    31    15    10    1
    32    29    20   ar
    33     9     4   ar
    34    29    24   ar
    35    13    16    1
@<TRIPOS>MOLECULE
*****
 31 35 0 0 0
SMALL
GASTEIGER

@<TRIPOS>ATOM
      1 C         -12.6478    1.7110   17.4883 C.ar    1  UNL1        0.1388
      2 C         -11.8844    0.4493   17.2139 C.ar    1  UNL1        0.0384
      3 C         -12.4575   -0.8769   17.6172 C.ar    1  UNL1        0.0221
      4 C         -13.7941   -0.9414   18.2949 C.ar    1  UNL1        0.0827
      5 C         -14.5575    0.3203   18.5694 C.ar    1  UNL1        0.0217
      6 C         -13.9844    1.6465   18.1661 C.ar    1  UNL1        0.0384
      7 C         -15.8421   -0.0535   19.2478 C.ar    1  UNL1        0.0163
      8 C         -15.8725   -1.5462   19.3926 C.ar    1  UNL1        0.0996
      9 N         -14.6068   -2.0949   18.8037 N.ar    1  UNL1       -0.2077
     10 C         -16.9089    0.8983   19.7017 C.2     1  UNL1       -0.0222
     11 C         -17.7499    1.6199   18.6907 C.2     1  UNL1       -0.0132
     12 C         -18.8167    2.5716   19.1446 C.3     1  UNL1        0.0950
     13 N         -19.0425    2.8019   20.6096 N.3     1  UNL1       -0.2935
     14 C         -18.2015    2.0803   21.6205 C.3     1  UNL1        0.0735
     15 C         -17.1347    1.1285   21.1666 C.3     1  UNL1        0.0432
     16 H         -20.0125    2.5514   20.8009 H       1  UNL1        0.1236
     17 S         -14.2214   -3.5430   18.7355 S.O2    1  UNL1        0.0875
     18 O         -14.3765   -3.5140   17.2438 O.2     1  UNL1       -0.1475
     19 O         -14.0664   -3.5720   20.2272 O.2     1  UNL1       -0.1475
     20 C         -13.8361   -4.9910   18.6673 C.ar    1  UNL1        0.1467
     21 C         -14.8948   -6.0425   18.5144 C.ar    1  UNL1        0.1192
     22 N         -14.5095   -7.4906   18.4463 N.ar    1  UNL1       -0.2409
     23 C         -13.0654   -7.8871   18.5310 C.ar    1  UNL1        0.0989
     24 C         -12.0065   -6.8357   18.6839 C.ar    1  UNL1        0.0205
     25 C         -10.5624   -7.2323   18.7686 C.ar    1  UNL1        0.0016
     26 C          -9.5037   -6.1808   18.9215 C.ar    1  UNL1        0.0001
     27 C          -9.8890   -4.7328   18.9897 C.ar    1  UNL1        0.0000
     28 C         -11.3331   -4.3362   18.9050 C.ar    1  UNL1        0.0014
     29 C         -12.3919   -5.3876   18.7521 C.ar    1  UNL1        0.0221
     30 C         -12.9831    4.1372   16.6217 C.3     1  UNL1        0.2525
     31 O         -12.0746    3.0372   17.0851 O.3     1  UNL1       -0.4714
@<TRIPOS>BOND
     1    30    31    1
     2    31     1    1
     3     1     2   ar
     4     2     3   ar
     5     3     4   ar
     6     4     5   ar
     7     5     6   ar
     8     5     7   ar
     9     7    10    1
    10    10    11    2
    11    11    12    1
    12    12    13    1
    13    13    14    1
    14    14    15    1
    15     7     8   ar
    16     8     9   ar
    17     9    17    1
    18    17    18    2
    19    17    19    2
    20    17    20    1
    21    20    21   ar
    22    21    22   ar
    23    22    23   ar
    24    23    24   ar
    25    24    25   ar
    26    25    26   ar
    27    26    27   ar
    28    27    28   ar
    29    28    29   ar
    30     6     1   ar
    31    15    10    1
    32    29    20   ar
    33     9     4   ar
    34    29    24   ar
    35    13    16    1
@<TRIPOS>MOLECULE
*****
 31 35 0 0 0
SMALL
GASTEIGER

@<TRIPOS>ATOM
      1 C          -0.7272    1.6236   27.2695 C.ar    1  UNL1        0.1388
      2 C          -0.0225    1.1625   26.0283 C.ar    1  UNL1        0.0384
      3 C          -0.2787    1.8512   24.7206 C.ar    1  UNL1        0.0221
      4 C          -1.2396    3.0010   24.6542 C.ar    1  UNL1        0.0827
      5 C          -1.9444    3.4622   25.8955 C.ar    1  UNL1        0.0217
      6 C          -1.6882    2.7734   27.2031 C.ar    1  UNL1        0.0384
      7 C          -2.8305    4.6142   25.5245 C.ar    1  UNL1        0.0163
      8 C          -2.6733    4.8651   24.0540 C.ar    1  UNL1        0.0996
      9 N          -1.6901    3.8681   23.5161 N.ar    1  UNL1       -0.2077
     10 C          -3.7179    5.3808   26.4598 C.2     1  UNL1       -0.0222
     11 C          -5.1973    5.1327   26.4624 C.2     1  UNL1       -0.0132
     12 C          -6.0847    5.8992   27.3977 C.3     1  UNL1        0.0950
     13 N          -5.4928    6.9140   28.3304 N.3     1  UNL1       -0.2935
     14 C          -4.0134    7.1621   28.3278 C.3     1  UNL1        0.0735
     15 C          -3.1260    6.3955   27.3925 C.3     1  UNL1        0.0432
     16 H          -5.7411    6.6246   29.2764 H       1  UNL1        0.1236
     17 S          -1.2370    3.7576   22.0904 S.O2    1  UNL1        0.0875
     18 O           0.0546    4.4309   22.4488 O.2     1  UNL1       -0.1475
     19 O          -2.5286    3.0842   21.7321 O.2     1  UNL1       -0.1475
     20 C          -0.7839    3.6470   20.6648 C.ar    1  UNL1        0.1467
     21 C          -1.0502    4.7678   19.7042 C.ar    1  UNL1        0.1192
     22 N          -0.5971    4.6573   18.2785 N.ar    1  UNL1       -0.2409
     23 C           0.1223    3.4260   17.8135 C.ar    1  UNL1        0.0989
     24 C           0.3886    2.3051   18.7742 C.ar    1  UNL1        0.0205
     25 C           1.1080    1.0737   18.3092 C.ar    1  UNL1        0.0016
     26 C           1.3743   -0.0470   19.2698 C.ar    1  UNL1        0.0001
     27 C           0.9212    0.0635   20.6954 C.ar    1  UNL1        0.0000
     28 C           0.2018    1.2948   21.1605 C.ar    1  UNL1        0.0014
     29 C          -0.0645    2.4156   20.1998 C.ar    1  UNL1        0.0221
     30 C          -1.4474   -0.0796   29.0945 C.3     1  UNL1        0.2525
     31 O          -0.4710    0.9348   28.5772 O.3     1  UNL1       -0.4714
@<TRIPOS>BOND
     1    30    31    1
     2    31     1    1
     3     1     2   ar
     4     2     3   ar
     5     3     4   ar
     6     4     5   ar
     7     5     6   ar
     8     5     7   ar
     9     7    10    1
    10    10    11    2
    11    11    12    1
    12    12    13    1
    13    13    14    1
    14    14    15    1
    15     7     8   ar
    16     8     9   ar
    17     9    17    1
    18    17    18    2
    19    17    19    2
    20    17    20    1
    21    20    21   ar
    22    21    22   ar
    23    22    23   ar
    24    23    24   ar
    25    24    25   ar
    26    25    26   ar
    27    26    27   ar
    28    27    28   ar
    29    28    29   ar
    30     6     1   ar
    31    15    10    1
    32    29    20   ar
    33     9     4   ar
    34    29    24   ar
    35    13    16    1
@<TRIPOS>MOLECULE
*****
 31 35 0 0 0
SMALL
GASTEIGER

@<TRIPOS>ATOM
      1 C          -0.0056    2.3680   24.5979 C.ar    1  UNL1        0.1388
      2 C           1.1064    1.3624   24.5477 C.ar    1  UNL1        0.0384
      3 C           1.6018    0.8574   23.2251 C.ar    1  UNL1        0.0221
      4 C           0.9853    1.3578   21.9525 C.ar    1  UNL1        0.0827
      5 C          -0.1267    2.3634   22.0027 C.ar    1  UNL1        0.0217
      6 C          -0.6221    2.8684   23.3253 C.ar    1  UNL1        0.0384
      7 C          -0.5368    2.6715   20.5931 C.ar    1  UNL1        0.0163
      8 C           0.3217    1.8565   19.6719 C.ar    1  UNL1        0.0996
      9 N           1.2624    1.0446   20.5120 N.ar    1  UNL1       -0.2077
     10 C          -1.6159    3.6270   20.1777 C.2     1  UNL1       -0.0222
     11 C          -3.0557    3.2850   20.4229 C.2     1  UNL1       -0.0132
     12 C          -4.1348    4.2404   20.0075 C.3     1  UNL1        0.0950
     13 N          -3.7742    5.5379   19.3469 N.3     1  UNL1       -0.2935
     14 C          -2.3344    5.8799   19.1016 C.3     1  UNL1        0.0735
     15 C          -1.2553    4.9245   19.5170 C.3     1  UNL1        0.0432
     16 H          -4.1584    6.2818   19.9295 H       1  UNL1        0.1236
     17 S           2.2983    0.0874   20.0014 S.O2    1  UNL1        0.0875
     18 O           3.3430    1.1579   20.1142 O.2     1  UNL1       -0.1475
     19 O           1.2537   -0.9830   19.8886 O.2     1  UNL1       -0.1475
     20 C           3.3343   -0.8697   19.4907 C.ar    1  UNL1        0.1467
     21 C           3.6848   -0.8876   18.0324 C.ar    1  UNL1        0.1192
     22 N           4.7208   -1.8447   17.5217 N.ar    1  UNL1       -0.2409
     23 C           5.4061   -2.7839   18.4694 C.ar    1  UNL1        0.0989
     24 C           5.0555   -2.7661   19.9278 C.ar    1  UNL1        0.0205
     25 C           5.7409   -3.7053   20.8754 C.ar    1  UNL1        0.0016
     26 C           5.3903   -3.6874   22.3338 C.ar    1  UNL1        0.0001
     27 C           4.3544   -2.7303   22.8444 C.ar    1  UNL1        0.0000
     28 C           3.6690   -1.7911   21.8968 C.ar    1  UNL1        0.0014
     29 C           4.0196   -1.8089   20.4385 C.ar    1  UNL1        0.0221
     30 C          -0.8205    1.9051   27.0210 C.3     1  UNL1        0.2525
     31 O          -0.5010    2.8730   25.9205 O.3     1  UNL1       -0.4714
@<TRIPOS>BOND
     1    30    31    1
     2    31     1    1
     3     1     2   ar
     4     2     3   ar
     5     3     4   ar
     6     4     5   ar
     7     5     6   ar
     8     5     7   ar
     9     7    10    1
    10    10    11    2
    11    11    12    1
    12    12    13    1
    13    13    14    1
    14    14    15    1
    15     7     8   ar
    16     8     9   ar
    17     9    17    1
    18    17    18    2
    19    17    19    2
    20    17    20    1
    21    20    21   ar
    22    21    22   ar
    23    22    23   ar
    24    23    24   ar
    25    24    25   ar
    26    25    26   ar
    27    26    27   ar
    28    27    28   ar
    29    28    29   ar
    30     6     1   ar
    31    15    10    1
    32    29    20   ar
    33     9     4   ar
    34    29    24   ar
    35    13    16    1
@<TRIPOS>MOLECULE
*****
 31 35 0 0 0
SMALL
GASTEIGER

@<TRIPOS>ATOM
      1 C           5.4420   -2.0729   26.5037 C.ar    1  UNL1        0.1388
      2 C           4.7289   -1.1489   25.5615 C.ar    1  UNL1        0.0384
      3 C           4.7787   -1.4000   24.0836 C.ar    1  UNL1        0.0221
      4 C           5.5417   -2.5750   23.5478 C.ar    1  UNL1        0.0827
      5 C           6.2548   -3.4990   24.4900 C.ar    1  UNL1        0.0217
      6 C           6.2050   -3.2479   25.9679 C.ar    1  UNL1        0.0384
      7 C           6.9215   -4.5676   23.6753 C.ar    1  UNL1        0.0163
      8 C           6.6204   -4.3040   22.2297 C.ar    1  UNL1        0.0996
      9 N           5.7676   -3.0725   22.1508 N.ar    1  UNL1       -0.2077
     10 C           7.7447   -5.7008   24.2121 C.2     1  UNL1       -0.0222
     11 C           8.7120   -6.4155   23.3156 C.2     1  UNL1       -0.0132
     12 C           9.5353   -7.5487   23.8523 C.3     1  UNL1        0.0950
     13 N           9.3912   -7.9673   25.2855 N.3     1  UNL1       -0.2935
     14 C           8.4239   -7.2526   26.1820 C.3     1  UNL1        0.0735
     15 C           7.6006   -6.1194   25.6452 C.3     1  UNL1        0.0432
     16 H          10.3125   -7.8748   25.7133 H       1  UNL1        0.1236
     17 S           5.2344   -2.4482   20.8955 S.O2    1  UNL1        0.0875
     18 O           6.1908   -1.3042   21.0582 O.2     1  UNL1       -0.1475
     19 O           4.2779   -3.5922   20.7328 O.2     1  UNL1       -0.1475
     20 C           4.7012   -1.8239   19.6402 C.ar    1  UNL1        0.1467
     21 C           5.4301   -2.0089   18.3423 C.ar    1  UNL1        0.1192
     22 N           4.8969   -1.3846   17.0870 N.ar    1  UNL1       -0.2409
     23 C           3.6347   -0.5752   17.1295 C.ar    1  UNL1        0.0989
     24 C           2.9057   -0.3901   18.4273 C.ar    1  UNL1        0.0205
     25 C           1.6436    0.4192   18.4698 C.ar    1  UNL1        0.0016
     26 C           0.9146    0.6043   19.7676 C.ar    1  UNL1        0.0001
     27 C           1.4479   -0.0201   21.0230 C.ar    1  UNL1        0.0000
     28 C           2.7100   -0.8294   20.9805 C.ar    1  UNL1        0.0014
     29 C           3.4389   -1.0145   19.6827 C.ar    1  UNL1        0.0221
     30 C           6.3822   -2.4893   28.8897 C.3     1  UNL1        0.2525
     31 O           5.3922   -1.8218   27.9817 O.3     1  UNL1       -0.4714
@<TRIPOS>BOND
     1    30    31    1
     2    31     1    1
     3     1     2   ar
     4     2     3   ar
     5     3     4   ar
     6     4     5   ar
     7     5     6   ar
     8     5     7   ar
     9     7    10    1
    10    10    11    2
    11    11    12    1
    12    12    13    1
    13    13    14    1
    14    14    15    1
    15     7     8   ar
    16     8     9   ar
    17     9    17    1
    18    17    18    2
    19    17    19    2
    20    17    20    1
    21    20    21   ar
    22    21    22   ar
    23    22    23   ar
    24    23    24   ar
    25    24    25   ar
    26    25    26   ar
    27    26    27   ar
    28    27    28   ar
    29    28    29   ar
    30     6     1   ar
    31    15    10    1
    32    29    20   ar
    33     9     4   ar
    34    29    24   ar
    35    13    16    1
@<TRIPOS>MOLECULE
*****
 31 35 0 0 0
SMALL
GASTEIGER

@<TRIPOS>ATOM
      1 C         -13.0574    0.5877   18.0385 C.ar    1  UNL1        0.1388
      2 C         -12.4211   -0.7290   17.7048 C.ar    1  UNL1        0.0384
      3 C         -13.1428   -2.0088   18.0072 C.ar    1  UNL1        0.0221
      4 C         -14.5007   -1.9718   18.6433 C.ar    1  UNL1        0.0827
      5 C         -15.1370   -0.6550   18.9770 C.ar    1  UNL1        0.0217
      6 C         -14.4154    0.6247   18.6746 C.ar    1  UNL1        0.0384
      7 C         -16.4756   -0.9305   19.5954 C.ar    1  UNL1        0.0163
      8 C         -16.6665   -2.4175   19.6439 C.ar    1  UNL1        0.0996
      9 N         -15.4460   -3.0611   19.0554 N.ar    1  UNL1       -0.2077
     10 C         -17.4518    0.1000   20.0802 C.2     1  UNL1       -0.0222
     11 C         -18.8255    0.1718   19.4820 C.2     1  UNL1       -0.0132
     12 C         -19.8017    1.2023   19.9668 C.3     1  UNL1        0.0950
     13 N         -19.4042    2.1610   21.0498 N.3     1  UNL1       -0.2935
     14 C         -18.0304    2.0892   21.6479 C.3     1  UNL1        0.0735
     15 C         -17.0542    1.0587   21.1631 C.3     1  UNL1        0.0432
     16 H         -20.0657    2.0314   21.8152 H       1  UNL1        0.1236
     17 S         -15.2119   -4.5351   18.9055 S.O2    1  UNL1        0.0875
     18 O         -14.6718   -4.5915   20.3038 O.2     1  UNL1       -0.1475
     19 O         -15.7520   -4.4786   17.5073 O.2     1  UNL1       -0.1475
     20 C         -14.9777   -6.0091   18.7556 C.ar    1  UNL1        0.1467
     21 C         -13.6560   -6.5114   18.2549 C.ar    1  UNL1        0.1192
     22 N         -13.4219   -7.9855   18.1050 N.ar    1  UNL1       -0.2409
     23 C         -14.5095   -8.9571   18.4557 C.ar    1  UNL1        0.0989
     24 C         -15.8312   -8.4548   18.9564 C.ar    1  UNL1        0.0205
     25 C         -16.9188   -9.4264   19.3071 C.ar    1  UNL1        0.0016
     26 C         -18.2405   -8.9241   19.8078 C.ar    1  UNL1        0.0001
     27 C         -18.4746   -7.4500   19.9577 C.ar    1  UNL1        0.0000
     28 C         -17.3871   -6.4784   19.6070 C.ar    1  UNL1        0.0014
     29 C         -16.0654   -6.9808   19.1063 C.ar    1  UNL1        0.0221
     30 C         -12.9025    2.8295   16.7345 C.3     1  UNL1        0.2525
     31 O         -12.3358    1.8675   17.7361 O.3     1  UNL1       -0.4714
@<TRIPOS>BOND
     1    30    31    1
     2    31     1    1
     3     1     2   ar
     4     2     3   ar
     5     3     4   ar
     6     4     5   ar
     7     5     6   ar
     8     5     7   ar
     9     7    10    1
    10    10    11    2
    11    11    12    1
    12    12    13    1
    13    13    14    1
    14    14    15    1
    15     7     8   ar
    16     8     9   ar
    17     9    17    1
    18    17    18    2
    19    17    19    2
    20    17    20    1
    21    20    21   ar
    22    21    22   ar
    23    22    23   ar
    24    23    24   ar
    25    24    25   ar
    26    25    26   ar
    27    26    27   ar
    28    27    28   ar
    29    28    29   ar
    30     6     1   ar
    31    15    10    1
    32    29    20   ar
    33     9     4   ar
    34    29    24   ar
    35    13    16    1
@<TRIPOS>MOLECULE
*****
 31 35 0 0 0
SMALL
GASTEIGER

@<TRIPOS>ATOM
      1 C          -2.7522    4.1043   24.4917 C.ar    1  UNL1        0.1388
      2 C          -2.4211    4.0663   23.0292 C.ar    1  UNL1        0.0384
      3 C          -1.2771    3.2282   22.5407 C.ar    1  UNL1        0.0221
      4 C          -0.4640    2.4281   23.5148 C.ar    1  UNL1        0.0827
      5 C          -0.7951    2.4661   24.9773 C.ar    1  UNL1        0.0217
      6 C          -1.9391    3.3043   25.4658 C.ar    1  UNL1        0.0384
      7 C           0.1773    1.5783   25.6959 C.ar    1  UNL1        0.0163
      8 C           1.1093    0.9916   24.6774 C.ar    1  UNL1        0.0996
      9 N           0.7129    1.5168   23.3294 N.ar    1  UNL1       -0.2077
     10 C           0.2117    1.3222   27.1734 C.2     1  UNL1       -0.0222
     11 C          -0.9547    0.6627   27.8477 C.2     1  UNL1       -0.0132
     12 C          -0.9203    0.4065   29.3252 C.3     1  UNL1        0.0950
     13 N           0.2805    0.8099   30.1285 N.3     1  UNL1       -0.2935
     14 C           1.4469    1.4694   29.4543 C.3     1  UNL1        0.0735
     15 C           1.4125    1.7255   27.9767 C.3     1  UNL1        0.0432
     16 H           0.6367   -0.0372   30.5712 H       1  UNL1        0.1236
     17 S           1.3769    1.1883   22.0251 S.O2    1  UNL1        0.0875
     18 O           2.5928    1.9569   22.4505 O.2     1  UNL1       -0.1475
     19 O           0.1610    0.4198   21.5996 O.2     1  UNL1       -0.1475
     20 C           2.0409    0.8599   20.7208 C.ar    1  UNL1        0.1467
     21 C           1.8525    1.7600   19.5357 C.ar    1  UNL1        0.1192
     22 N           2.5165    1.4315   18.2314 N.ar    1  UNL1       -0.2409
     23 C           3.3688    0.2030   18.1121 C.ar    1  UNL1        0.0989
     24 C           3.5572   -0.6971   19.2972 C.ar    1  UNL1        0.0205
     25 C           4.4095   -1.9257   19.1779 C.ar    1  UNL1        0.0016
     26 C           4.5978   -2.8257   20.3629 C.ar    1  UNL1        0.0001
     27 C           3.9338   -2.4973   21.6673 C.ar    1  UNL1        0.0000
     28 C           3.0815   -1.2688   21.7865 C.ar    1  UNL1        0.0014
     29 C           2.8932   -0.3687   20.6015 C.ar    1  UNL1        0.0221
     30 C          -4.7336    4.4706   26.1318 C.3     1  UNL1        0.2525
     31 O          -3.8962    4.9425   24.9802 O.3     1  UNL1       -0.4714
@<TRIPOS>BOND
     1    30    31    1
     2    31     1    1
     3     1     2   ar
     4     2     3   ar
     5     3     4   ar
     6     4     5   ar
     7     5     6   ar
     8     5     7   ar
     9     7    10    1
    10    10    11    2
    11    11    12    1
    12    12    13    1
    13    13    14    1
    14    14    15    1
    15     7     8   ar
    16     8     9   ar
    17     9    17    1
    18    17    18    2
    19    17    19    2
    20    17    20    1
    21    20    21   ar
    22    21    22   ar
    23    22    23   ar
    24    23    24   ar
    25    24    25   ar
    26    25    26   ar
    27    26    27   ar
    28    27    28   ar
    29    28    29   ar
    30     6     1   ar
    31    15    10    1
    32    29    20   ar
    33     9     4   ar
    34    29    24   ar
    35    13    16    1
@<TRIPOS>MOLECULE
*****
 31 35 0 0 0
SMALL
GASTEIGER

@<TRIPOS>ATOM
      1 C           5.0922    1.9590   17.8525 C.ar    1  UNL1        0.1388
      2 C           4.2190    3.0987   18.2868 C.ar    1  UNL1        0.0384
      3 C           3.1235    2.8663   19.2847 C.ar    1  UNL1        0.0221
      4 C           2.9012    1.4941   19.8484 C.ar    1  UNL1        0.0827
      5 C           3.7744    0.3544   19.4141 C.ar    1  UNL1        0.0217
      6 C           4.8699    0.5868   18.4162 C.ar    1  UNL1        0.0384
      7 C           3.3206   -0.8788   20.1374 C.ar    1  UNL1        0.0163
      8 C           2.1669   -0.5013   21.0187 C.ar    1  UNL1        0.0996
      9 N           1.9077    0.9653   20.8400 N.ar    1  UNL1       -0.2077
     10 C           3.9159   -2.2491   20.0031 C.2     1  UNL1       -0.0222
     11 C           3.1612   -3.3274   19.2835 C.2     1  UNL1       -0.0132
     12 C           3.7565   -4.6977   19.1492 C.3     1  UNL1        0.0950
     13 N           5.1064   -4.9896   19.7344 N.3     1  UNL1       -0.2935
     14 C           5.8611   -3.9112   20.4539 C.3     1  UNL1        0.0735
     15 C           5.2658   -2.5410   20.5883 C.3     1  UNL1        0.0432
     16 H           5.6996   -5.3011   18.9653 H       1  UNL1        0.1236
     17 S           0.8422    1.7630   21.5316 S.O2    1  UNL1        0.0875
     18 O          -0.2125    0.9156   20.8840 O.2     1  UNL1       -0.1475
     19 O           1.8969    2.6104   22.1793 O.2     1  UNL1       -0.1475
     20 C          -0.2234    2.5607   22.2232 C.ar    1  UNL1        0.1467
     21 C          -1.0796    3.5088   21.4371 C.ar    1  UNL1        0.1192
     22 N          -2.1452    4.3065   22.1287 N.ar    1  UNL1       -0.2409
     23 C          -2.3545    4.1561   23.6064 C.ar    1  UNL1        0.0989
     24 C          -1.4982    3.2080   24.3926 C.ar    1  UNL1        0.0205
     25 C          -1.7075    3.0576   25.8702 C.ar    1  UNL1        0.0016
     26 C          -0.8512    2.1096   26.6563 C.ar    1  UNL1        0.0001
     27 C           0.2143    1.3119   25.9647 C.ar    1  UNL1        0.0000
     28 C           0.4236    1.4622   24.4870 C.ar    1  UNL1        0.0014
     29 C          -0.4326    2.4103   23.7010 C.ar    1  UNL1        0.0221
     30 C           6.9083    1.0248   16.2467 C.3     1  UNL1        0.2525
     31 O           6.1877    2.1914   16.8546 O.3     1  UNL1       -0.4714
@<TRIPOS>BOND
     1    30    31    1
     2    31     1    1
     3     1     2   ar
     4     2     3   ar
     5     3     4   ar
     6     4     5   ar
     7     5     6   ar
     8     5     7   ar
     9     7    10    1
    10    10    11    2
    11    11    12    1
    12    12    13    1
    13    13    14    1
    14    14    15    1
    15     7     8   ar
    16     8     9   ar
    17     9    17    1
    18    17    18    2
    19    17    19    2
    20    17    20    1
    21    20    21   ar
    22    21    22   ar
    23    22    23   ar
    24    23    24   ar
    25    24    25   ar
    26    25    26   ar
    27    26    27   ar
    28    27    28   ar
    29    28    29   ar
    30     6     1   ar
    31    15    10    1
    32    29    20   ar
    33     9     4   ar
    34    29    24   ar
    35    13    16    1
