@<TRIPOS>MOLECULE
*****
 32 35 0 0 0
SMALL
GASTEIGER

@<TRIPOS>ATOM
      1 F         -10.1930  -18.7694   19.2762 F       1  UNL1       -0.2012
      2 C          -9.2412  -19.2620   20.3258 C.ar    1  UNL1        0.1710
      3 C          -7.7937  -19.4655   19.9894 C.ar    1  UNL1        0.0301
      4 C          -6.8420  -19.9581   21.0389 C.ar    1  UNL1        0.0037
      5 C          -7.3378  -20.2472   22.4248 C.ar    1  UNL1        0.0965
      6 N          -8.7853  -20.0437   22.7612 N.ar    1  UNL1       -0.2274
      7 C          -9.7371  -19.5511   21.7116 C.ar    1  UNL1        0.1564
      8 N         -11.1846  -19.3476   22.0479 N.pl3   1  UNL1       -0.3126
      9 H         -11.8681  -19.9410   21.6606 H       1  UNL1        0.1486
     10 C         -11.5909  -18.2400   22.9743 C.3     1  UNL1        0.1170
     11 C         -10.5936  -17.6607   23.9335 C.ar    1  UNL1        0.0166
     12 C          -9.9548  -16.3353   23.6415 C.ar    1  UNL1        0.0004
     13 C          -8.9576  -15.7558   24.6006 C.ar    1  UNL1        0.0228
     14 C          -8.5992  -16.5019   25.8516 C.ar    1  UNL1        0.1526
     15 N          -9.2379  -17.8273   26.1435 N.ar    1  UNL1       -0.2401
     16 C         -10.2352  -18.4067   25.1844 C.ar    1  UNL1        0.0961
     17 C          -7.6020  -15.9225   26.8107 C.3     1  UNL1        0.4348
     18 F          -6.6047  -15.3432   27.7697 F       1  UNL1       -0.1644
     19 F          -6.6916  -15.5928   25.6649 F       1  UNL1       -0.1644
     20 F          -8.5122  -16.2523   27.9564 F       1  UNL1       -0.1644
     21 C          -5.3943  -20.1616   20.7026 C.3     1  UNL1        0.0559
     22 C          -4.3459  -19.3099   21.3549 C.ar    1  UNL1        0.0043
     23 C          -4.2541  -18.9904   22.8176 C.ar    1  UNL1        0.0966
     24 N          -3.0567  -18.1112   23.0257 N.ar    1  UNL1       -0.2273
     25 C          -2.4084  -17.8875   21.6916 C.ar    1  UNL1        0.1403
     26 N          -1.1955  -17.1049   21.2837 N.ar    1  UNL1       -0.3367
     27 C          -0.7795  -17.0631   19.8432 C.ar    1  UNL1        0.0850
     28 C          -1.5763  -17.8039   18.8106 C.ar    1  UNL1        0.0747
     29 CL         -1.1601  -17.7622   17.3701 Cl      1  UNL1       -0.0807
     30 C          -2.7891  -18.5866   19.2185 C.ar    1  UNL1        0.0156
     31 C          -3.2052  -18.6283   20.6590 C.ar    1  UNL1        0.0327
     32 H          -0.6726  -16.6186   21.9615 H       1  UNL1        0.1674
@<TRIPOS>BOND
     1     1     2    1
     2     2     3   ar
     3     3     4   ar
     4     4    21    1
     5    21    22    1
     6    22    23   ar
     7    23    24   ar
     8    24    25   ar
     9    25    26   ar
    10    26    27   ar
    11    27    28   ar
    12    28    29    1
    13    28    30   ar
    14    30    31   ar
    15     4     5   ar
    16     5     6   ar
    17     6     7   ar
    18     7     8    1
    19     8    10    1
    20    10    11    1
    21    11    12   ar
    22    12    13   ar
    23    13    14   ar
    24    14    17    1
    25    17    18    1
    26    17    19    1
    27    17    20    1
    28    14    15   ar
    29    15    16   ar
    30     7     2   ar
    31    16    11   ar
    32    31    22   ar
    33    31    25    1
    34    26    32    1
    35     8     9    1
@<TRIPOS>MOLECULE
*****
 32 35 0 0 0
SMALL
GASTEIGER

@<TRIPOS>ATOM
      1 F          -8.1161  -14.2188   24.3880 F       1  UNL1       -0.2012
      2 C          -8.6431  -15.5391   24.8668 C.ar    1  UNL1        0.1710
      3 C          -9.6249  -16.3031   24.0288 C.ar    1  UNL1        0.0301
      4 C         -10.1519  -17.6233   24.5076 C.ar    1  UNL1        0.0037
      5 C          -9.6971  -18.1795   25.8243 C.ar    1  UNL1        0.0965
      6 N          -8.7153  -17.4155   26.6623 N.ar    1  UNL1       -0.2274
      7 C          -8.1883  -16.0952   26.1836 C.ar    1  UNL1        0.1564
      8 N          -7.2065  -15.3311   27.0215 N.pl3   1  UNL1       -0.3126
      9 H          -7.4025  -15.1528   27.9697 H       1  UNL1        0.1486
     10 C          -5.9261  -14.8387   26.4148 C.3     1  UNL1        0.1170
     11 C          -5.1744  -15.7024   25.4457 C.ar    1  UNL1        0.0166
     12 C          -4.4499  -16.9218   25.9337 C.ar    1  UNL1        0.0004
     13 C          -3.6982  -17.7855   24.9647 C.ar    1  UNL1        0.0228
     14 C          -3.6710  -17.4298   23.5077 C.ar    1  UNL1        0.1526
     15 N          -4.3955  -16.2103   23.0198 N.ar    1  UNL1       -0.2401
     16 C          -5.1473  -15.3466   23.9888 C.ar    1  UNL1        0.0961
     17 C          -2.9193  -18.2934   22.5387 C.3     1  UNL1        0.4348
     18 F          -2.1677  -19.1571   21.5696 F       1  UNL1       -0.1644
     19 F          -3.7397  -19.4773   22.9576 F       1  UNL1       -0.1644
     20 F          -2.0990  -17.1095   22.1197 F       1  UNL1       -0.1644
     21 C         -11.1338  -18.3875   23.6696 C.3     1  UNL1        0.0559
     22 C         -10.9967  -18.3977   22.1759 C.ar    1  UNL1        0.0043
     23 C         -12.0272  -17.9270   21.1927 C.ar    1  UNL1        0.0966
     24 N         -11.4724  -18.1188   19.8123 N.ar    1  UNL1       -0.2273
     25 C         -10.0992  -18.7082   19.9424 C.ar    1  UNL1        0.1403
     26 N          -9.0785  -19.1101   18.9194 N.ar    1  UNL1       -0.3367
     27 C          -7.7638  -19.6844   19.3571 C.ar    1  UNL1        0.0850
     28 C          -7.4698  -19.8568   20.8179 C.ar    1  UNL1        0.0747
     29 CL         -6.1550  -20.4311   21.2556 Cl      1  UNL1       -0.0807
     30 C          -8.4905  -19.4548   21.8409 C.ar    1  UNL1        0.0156
     31 C          -9.8052  -18.8805   21.4031 C.ar    1  UNL1        0.0327
     32 H          -9.2715  -18.9970   17.9606 H       1  UNL1        0.1674
@<TRIPOS>BOND
     1     1     2    1
     2     2     3   ar
     3     3     4   ar
     4     4    21    1
     5    21    22    1
     6    22    23   ar
     7    23    24   ar
     8    24    25   ar
     9    25    26   ar
    10    26    27   ar
    11    27    28   ar
    12    28    29    1
    13    28    30   ar
    14    30    31   ar
    15     4     5   ar
    16     5     6   ar
    17     6     7   ar
    18     7     8    1
    19     8    10    1
    20    10    11    1
    21    11    12   ar
    22    12    13   ar
    23    13    14   ar
    24    14    17    1
    25    17    18    1
    26    17    19    1
    27    17    20    1
    28    14    15   ar
    29    15    16   ar
    30     7     2   ar
    31    16    11   ar
    32    31    22   ar
    33    31    25    1
    34    26    32    1
    35     8     9    1
@<TRIPOS>MOLECULE
*****
 32 35 0 0 0
SMALL
GASTEIGER

@<TRIPOS>ATOM
      1 F          -5.7074  -16.6653   27.1677 F       1  UNL1       -0.2012
      2 C          -5.2945  -16.3378   25.7633 C.ar    1  UNL1        0.1710
      3 C          -4.0794  -16.9857   25.1685 C.ar    1  UNL1        0.0301
      4 C          -3.6665  -16.6583   23.7642 C.ar    1  UNL1        0.0037
      5 C          -4.4686  -15.6829   22.9547 C.ar    1  UNL1        0.0965
      6 N          -5.6836  -15.0349   23.5495 N.ar    1  UNL1       -0.2274
      7 C          -6.0966  -15.3624   24.9539 C.ar    1  UNL1        0.1564
      8 N          -7.3116  -14.7145   25.5488 N.pl3   1  UNL1       -0.3126
      9 H          -7.3278  -13.7414   25.6970 H       1  UNL1        0.1486
     10 C          -8.5019  -15.5493   25.9179 C.3     1  UNL1        0.1170
     11 C          -9.0659  -16.5289   24.9318 C.ar    1  UNL1        0.0166
     12 C          -9.5185  -17.8822   25.3942 C.ar    1  UNL1        0.0004
     13 C         -10.0824  -18.8619   24.4082 C.ar    1  UNL1        0.0228
     14 C         -10.1938  -18.4883   22.9598 C.ar    1  UNL1        0.1526
     15 N          -9.7413  -17.1350   22.4973 N.ar    1  UNL1       -0.2401
     16 C          -9.1773  -16.1553   23.4834 C.ar    1  UNL1        0.0961
     17 C         -10.7578  -19.4678   21.9738 C.3     1  UNL1        0.4348
     18 F         -11.3218  -20.4475   20.9878 F       1  UNL1       -0.1644
     19 F         -10.6047  -20.5693   22.9805 F       1  UNL1       -0.1644
     20 F         -10.9109  -18.3665   20.9671 F       1  UNL1       -0.1644
     21 C          -2.4514  -17.3062   23.1692 C.3     1  UNL1        0.0559
     22 C          -2.5808  -18.1574   21.9409 C.ar    1  UNL1        0.0043
     23 C          -1.5638  -18.2855   20.8458 C.ar    1  UNL1        0.0966
     24 N          -2.1045  -19.2372   19.8202 N.ar    1  UNL1       -0.2273
     25 C          -3.4556  -19.6973   20.2814 C.ar    1  UNL1        0.1403
     26 N          -4.4559  -20.6377   19.6772 N.ar    1  UNL1       -0.3367
     27 C          -5.7505  -20.9108   20.3837 C.ar    1  UNL1        0.0850
     28 C          -6.0450  -20.2434   21.6944 C.ar    1  UNL1        0.0747
     29 CL         -7.3397  -20.5165   22.4009 Cl      1  UNL1       -0.0807
     30 C          -5.0447  -19.3030   22.2986 C.ar    1  UNL1        0.0156
     31 C          -3.7500  -19.0299   21.5921 C.ar    1  UNL1        0.0327
     32 H          -4.2626  -21.0757   18.8169 H       1  UNL1        0.1674
@<TRIPOS>BOND
     1     1     2    1
     2     2     3   ar
     3     3     4   ar
     4     4    21    1
     5    21    22    1
     6    22    23   ar
     7    23    24   ar
     8    24    25   ar
     9    25    26   ar
    10    26    27   ar
    11    27    28   ar
    12    28    29    1
    13    28    30   ar
    14    30    31   ar
    15     4     5   ar
    16     5     6   ar
    17     6     7   ar
    18     7     8    1
    19     8    10    1
    20    10    11    1
    21    11    12   ar
    22    12    13   ar
    23    13    14   ar
    24    14    17    1
    25    17    18    1
    26    17    19    1
    27    17    20    1
    28    14    15   ar
    29    15    16   ar
    30     7     2   ar
    31    16    11   ar
    32    31    22   ar
    33    31    25    1
    34    26    32    1
    35     8     9    1
@<TRIPOS>MOLECULE
*****
 32 35 0 0 0
SMALL
GASTEIGER

@<TRIPOS>ATOM
      1 F          -6.7426  -16.3087   27.0236 F       1  UNL1       -0.2012
      2 C          -7.1960  -16.1173   25.6066 C.ar    1  UNL1        0.1710
      3 C          -8.6598  -16.1293   25.2796 C.ar    1  UNL1        0.0301
      4 C          -9.1132  -15.9379   23.8626 C.ar    1  UNL1        0.0037
      5 C          -8.1028  -15.7344   22.7728 C.ar    1  UNL1        0.0965
      6 N          -6.6390  -15.7223   23.0999 N.ar    1  UNL1       -0.2274
      7 C          -6.1856  -15.9138   24.5169 C.ar    1  UNL1        0.1564
      8 N          -4.7218  -15.9017   24.8440 N.pl3   1  UNL1       -0.3126
      9 H          -4.3239  -15.1204   25.2918 H       1  UNL1        0.1486
     10 C          -3.8642  -17.0800   24.4889 C.3     1  UNL1        0.1170
     11 C          -3.3716  -17.2526   23.0826 C.ar    1  UNL1        0.0166
     12 C          -3.4567  -18.5945   22.4176 C.ar    1  UNL1        0.0004
     13 C          -2.9641  -18.7672   21.0114 C.ar    1  UNL1        0.0228
     14 C          -2.3865  -17.5980   20.2701 C.ar    1  UNL1        0.1526
     15 N          -2.3014  -16.2562   20.9352 N.ar    1  UNL1       -0.2401
     16 C          -2.7940  -16.0835   22.3415 C.ar    1  UNL1        0.0961
     17 C          -1.8939  -17.7706   18.8639 C.3     1  UNL1        0.4348
     18 F          -1.4014  -17.9431   17.4576 F       1  UNL1       -0.1644
     19 F          -3.1033  -17.0461   18.3514 F       1  UNL1       -0.1644
     20 F          -0.6845  -18.4951   19.3764 F       1  UNL1       -0.1644
     21 C         -10.5772  -15.9500   23.5354 C.3     1  UNL1        0.0559
     22 C         -11.0589  -16.6082   22.2766 C.ar    1  UNL1        0.0043
     23 C         -12.3687  -16.3504   21.5925 C.ar    1  UNL1        0.0966
     24 N         -12.4347  -17.2227   20.3740 N.ar    1  UNL1       -0.2273
     25 C         -11.1657  -18.0196   20.3050 C.ar    1  UNL1        0.1403
     26 N         -10.6746  -19.0419   19.3234 N.ar    1  UNL1       -0.3367
     27 C          -9.3333  -19.6845   19.5177 C.ar    1  UNL1        0.0850
     28 C          -8.4830  -19.3047   20.6936 C.ar    1  UNL1        0.0747
     29 CL         -7.1415  -19.9473   20.8879 Cl      1  UNL1       -0.0807
     30 C          -8.9741  -18.2823   21.6752 C.ar    1  UNL1        0.0156
     31 C         -10.3154  -17.6398   21.4809 C.ar    1  UNL1        0.0327
     32 H         -11.2327  -19.2912   18.5516 H       1  UNL1        0.1674
@<TRIPOS>BOND
     1     1     2    1
     2     2     3   ar
     3     3     4   ar
     4     4    21    1
     5    21    22    1
     6    22    23   ar
     7    23    24   ar
     8    24    25   ar
     9    25    26   ar
    10    26    27   ar
    11    27    28   ar
    12    28    29    1
    13    28    30   ar
    14    30    31   ar
    15     4     5   ar
    16     5     6   ar
    17     6     7   ar
    18     7     8    1
    19     8    10    1
    20    10    11    1
    21    11    12   ar
    22    12    13   ar
    23    13    14   ar
    24    14    17    1
    25    17    18    1
    26    17    19    1
    27    17    20    1
    28    14    15   ar
    29    15    16   ar
    30     7     2   ar
    31    16    11   ar
    32    31    22   ar
    33    31    25    1
    34    26    32    1
    35     8     9    1
@<TRIPOS>MOLECULE
*****
 32 35 0 0 0
SMALL
GASTEIGER

@<TRIPOS>ATOM
      1 F          -4.0407  -21.1897   20.0297 F       1  UNL1       -0.2012
      2 C          -5.1441  -20.2410   20.3938 C.ar    1  UNL1        0.1710
      3 C          -6.5169  -20.4319   19.8203 C.ar    1  UNL1        0.0301
      4 C          -7.6202  -19.4832   20.1844 C.ar    1  UNL1        0.0037
      5 C          -7.3508  -18.3437   21.1218 C.ar    1  UNL1        0.0965
      6 N          -5.9780  -18.1528   21.6953 N.ar    1  UNL1       -0.2274
      7 C          -4.8746  -19.1015   21.3313 C.ar    1  UNL1        0.1564
      8 N          -3.5017  -18.9107   21.9047 N.pl3   1  UNL1       -0.3126
      9 H          -2.8673  -19.6632   21.9238 H       1  UNL1        0.1486
     10 C          -3.0955  -17.5732   22.4490 C.3     1  UNL1        0.1170
     11 C          -3.8816  -16.9463   23.5622 C.ar    1  UNL1        0.0166
     12 C          -3.8697  -17.5641   24.9290 C.ar    1  UNL1        0.0004
     13 C          -4.6557  -16.9373   26.0423 C.ar    1  UNL1        0.0228
     14 C          -5.4535  -15.6926   25.7887 C.ar    1  UNL1        0.1526
     15 N          -5.4654  -15.0748   24.4219 N.ar    1  UNL1       -0.2401
     16 C          -4.6794  -15.7017   23.3086 C.ar    1  UNL1        0.0961
     17 C          -6.2395  -15.0657   26.9018 C.3     1  UNL1        0.4348
     18 F          -7.0254  -14.4387   28.0150 F       1  UNL1       -0.1644
     19 F          -5.3290  -13.8739   26.8734 F       1  UNL1       -0.1644
     20 F          -7.1499  -16.2575   26.9303 F       1  UNL1       -0.1644
     21 C          -8.9932  -19.6740   19.6109 C.3     1  UNL1        0.0559
     22 C         -10.1678  -18.9749   20.2285 C.ar    1  UNL1        0.0043
     23 C         -11.1265  -18.0662   19.5179 C.ar    1  UNL1        0.0966
     24 N         -12.1411  -17.5914   20.5155 N.ar    1  UNL1       -0.2273
     25 C         -11.8095  -18.2067   21.8426 C.ar    1  UNL1        0.1403
     26 N         -12.4605  -18.0989   23.1897 N.ar    1  UNL1       -0.3367
     27 C         -11.8918  -18.8461   24.3594 C.ar    1  UNL1        0.0850
     28 C         -10.6722  -19.7011   24.1821 C.ar    1  UNL1        0.0747
     29 CL        -10.1036  -20.4484   25.3519 Cl      1  UNL1       -0.0807
     30 C         -10.0212  -19.8090   22.8350 C.ar    1  UNL1        0.0156
     31 C         -10.5899  -19.0618   21.6653 C.ar    1  UNL1        0.0327
     32 H         -13.2609  -17.5377   23.3061 H       1  UNL1        0.1674
@<TRIPOS>BOND
     1     1     2    1
     2     2     3   ar
     3     3     4   ar
     4     4    21    1
     5    21    22    1
     6    22    23   ar
     7    23    24   ar
     8    24    25   ar
     9    25    26   ar
    10    26    27   ar
    11    27    28   ar
    12    28    29    1
    13    28    30   ar
    14    30    31   ar
    15     4     5   ar
    16     5     6   ar
    17     6     7   ar
    18     7     8    1
    19     8    10    1
    20    10    11    1
    21    11    12   ar
    22    12    13   ar
    23    13    14   ar
    24    14    17    1
    25    17    18    1
    26    17    19    1
    27    17    20    1
    28    14    15   ar
    29    15    16   ar
    30     7     2   ar
    31    16    11   ar
    32    31    22   ar
    33    31    25    1
    34    26    32    1
    35     8     9    1
@<TRIPOS>MOLECULE
*****
 32 35 0 0 0
SMALL
GASTEIGER

@<TRIPOS>ATOM
      1 F          -9.5216   -6.0637   19.4807 F       1  UNL1       -0.2012
      2 C         -10.1939   -5.2343   18.4271 C.ar    1  UNL1        0.1710
      3 C         -10.0328   -3.7430   18.4305 C.ar    1  UNL1        0.0301
      4 C         -10.7051   -2.9136   17.3769 C.ar    1  UNL1        0.0037
      5 C         -11.5386   -3.5756   16.3199 C.ar    1  UNL1        0.0965
      6 N         -11.6998   -5.0668   16.3165 N.ar    1  UNL1       -0.2274
      7 C         -11.0274   -5.8962   17.3701 C.ar    1  UNL1        0.1564
      8 N         -11.1885   -7.3875   17.3668 N.pl3   1  UNL1       -0.3126
      9 H         -10.4757   -7.9605   17.7313 H       1  UNL1        0.1486
     10 C         -12.4357   -8.0059   16.8080 C.3     1  UNL1        0.1170
     11 C         -13.6922   -8.0312   17.6270 C.ar    1  UNL1        0.0166
     12 C         -14.0262   -6.8762   18.5239 C.ar    1  UNL1        0.0004
     13 C         -15.2826   -6.9015   19.3429 C.ar    1  UNL1        0.0228
     14 C         -16.2050   -8.0818   19.2650 C.ar    1  UNL1        0.1526
     15 N         -15.8710   -9.2368   18.3681 N.ar    1  UNL1       -0.2401
     16 C         -14.6145   -9.2115   17.5491 C.ar    1  UNL1        0.0961
     17 C         -17.4614   -8.1071   20.0839 C.3     1  UNL1        0.4348
     18 F         -18.7179   -8.1324   20.9029 F       1  UNL1       -0.1644
     19 F         -17.5645   -6.6148   19.9718 F       1  UNL1       -0.1644
     20 F         -17.3583   -9.5993   20.1961 F       1  UNL1       -0.1644
     21 C         -10.5440   -1.4222   17.3803 C.3     1  UNL1        0.0559
     22 C         -11.7263   -0.5407   17.6544 C.ar    1  UNL1        0.0043
     23 C         -11.8993    0.8734   17.1852 C.ar    1  UNL1        0.0966
     24 N         -13.2231    1.3694   17.6868 N.ar    1  UNL1       -0.2273
     25 C         -13.8682    0.2618   18.4660 C.ar    1  UNL1        0.1403
     26 N         -15.1784    0.1758   19.1911 N.ar    1  UNL1       -0.3367
     27 C         -15.5636   -1.0909   19.8962 C.ar    1  UNL1        0.0850
     28 C         -14.6385   -2.2715   19.8762 C.ar    1  UNL1        0.0747
     29 CL        -15.0236   -3.5382   20.5814 Cl      1  UNL1       -0.0807
     30 C         -13.3282   -2.1854   19.1511 C.ar    1  UNL1        0.0156
     31 C         -12.9431   -0.9187   18.4460 C.ar    1  UNL1        0.0327
     32 H         -15.7856    0.9506   19.2042 H       1  UNL1        0.1674
@<TRIPOS>BOND
     1     1     2    1
     2     2     3   ar
     3     3     4   ar
     4     4    21    1
     5    21    22    1
     6    22    23   ar
     7    23    24   ar
     8    24    25   ar
     9    25    26   ar
    10    26    27   ar
    11    27    28   ar
    12    28    29    1
    13    28    30   ar
    14    30    31   ar
    15     4     5   ar
    16     5     6   ar
    17     6     7   ar
    18     7     8    1
    19     8    10    1
    20    10    11    1
    21    11    12   ar
    22    12    13   ar
    23    13    14   ar
    24    14    17    1
    25    17    18    1
    26    17    19    1
    27    17    20    1
    28    14    15   ar
    29    15    16   ar
    30     7     2   ar
    31    16    11   ar
    32    31    22   ar
    33    31    25    1
    34    26    32    1
    35     8     9    1
@<TRIPOS>MOLECULE
*****
 32 35 0 0 0
SMALL
GASTEIGER

@<TRIPOS>ATOM
      1 F         -14.1009   -3.1953   20.8116 F       1  UNL1       -0.2012
      2 C         -15.1688   -3.4177   19.7819 C.ar    1  UNL1        0.1710
      3 C         -16.3305   -4.3157   20.0883 C.ar    1  UNL1        0.0301
      4 C         -17.3983   -4.5382   19.0586 C.ar    1  UNL1        0.0037
      5 C         -17.3044   -3.8626   17.7226 C.ar    1  UNL1        0.0965
      6 N         -16.1427   -2.9646   17.4163 N.ar    1  UNL1       -0.2274
      7 C         -15.0748   -2.7422   18.4460 C.ar    1  UNL1        0.1564
      8 N         -13.9131   -1.8442   18.1397 N.pl3   1  UNL1       -0.3126
      9 H         -13.8719   -0.9417   18.5311 H       1  UNL1        0.1486
     10 C         -12.8140   -2.3211   17.2372 C.3     1  UNL1        0.1170
     11 C         -12.0705   -3.5827   17.5627 C.ar    1  UNL1        0.0166
     12 C         -11.8757   -4.6316   16.5082 C.ar    1  UNL1        0.0004
     13 C         -11.1323   -5.8931   16.8336 C.ar    1  UNL1        0.0228
     14 C         -10.5836   -6.1057   18.2133 C.ar    1  UNL1        0.1526
     15 N         -10.7784   -5.0568   19.2678 N.ar    1  UNL1       -0.2401
     16 C         -11.5219   -3.7952   18.9424 C.ar    1  UNL1        0.0961
     17 C          -9.8402   -7.3672   18.5387 C.3     1  UNL1        0.4348
     18 F          -9.0966   -8.6286   18.8642 F       1  UNL1       -0.1644
     19 F          -9.1248   -6.6586   19.6508 F       1  UNL1       -0.1644
     20 F         -10.5554   -8.0756   17.4268 F       1  UNL1       -0.1644
     21 C         -18.5602   -5.4363   19.3649 C.3     1  UNL1        0.0559
     22 C         -18.3455   -6.9122   19.5249 C.ar    1  UNL1        0.0043
     23 C         -19.2119   -7.8488   20.3137 C.ar    1  UNL1        0.0966
     24 N         -18.6285   -9.2260   20.2005 N.ar    1  UNL1       -0.2273
     25 C         -17.4016   -9.1406   19.3418 C.ar    1  UNL1        0.1403
     26 N         -16.4211  -10.1803   18.8862 N.ar    1  UNL1       -0.3367
     27 C         -15.2656   -9.7899   18.0130 C.ar    1  UNL1        0.0850
     28 C         -15.0907   -8.3598   17.5955 C.ar    1  UNL1        0.0747
     29 CL        -13.9352   -7.9695   16.7222 Cl      1  UNL1       -0.0807
     30 C         -16.0712   -7.3202   18.0511 C.ar    1  UNL1        0.0156
     31 C         -17.2267   -7.7106   18.9243 C.ar    1  UNL1        0.0327
     32 H         -16.5359  -11.1189   19.1602 H       1  UNL1        0.1674
@<TRIPOS>BOND
     1     1     2    1
     2     2     3   ar
     3     3     4   ar
     4     4    21    1
     5    21    22    1
     6    22    23   ar
     7    23    24   ar
     8    24    25   ar
     9    25    26   ar
    10    26    27   ar
    11    27    28   ar
    12    28    29    1
    13    28    30   ar
    14    30    31   ar
    15     4     5   ar
    16     5     6   ar
    17     6     7   ar
    18     7     8    1
    19     8    10    1
    20    10    11    1
    21    11    12   ar
    22    12    13   ar
    23    13    14   ar
    24    14    17    1
    25    17    18    1
    26    17    19    1
    27    17    20    1
    28    14    15   ar
    29    15    16   ar
    30     7     2   ar
    31    16    11   ar
    32    31    22   ar
    33    31    25    1
    34    26    32    1
    35     8     9    1
@<TRIPOS>MOLECULE
*****
 32 35 0 0 0
SMALL
GASTEIGER

@<TRIPOS>ATOM
      1 F          -3.8833  -20.4000   22.9329 F       1  UNL1       -0.2012
      2 C          -4.8155  -19.8960   21.8712 C.ar    1  UNL1        0.1710
      3 C          -6.2577  -20.3078   21.8825 C.ar    1  UNL1        0.0301
      4 C          -7.1899  -19.8039   20.8208 C.ar    1  UNL1        0.0037
      5 C          -6.6797  -18.8882   19.7479 C.ar    1  UNL1        0.0965
      6 N          -5.2374  -18.4764   19.7366 N.ar    1  UNL1       -0.2274
      7 C          -4.3053  -18.9804   20.7983 C.ar    1  UNL1        0.1564
      8 N          -2.8630  -18.5686   20.7870 N.pl3   1  UNL1       -0.3126
      9 H          -2.2363  -18.9876   20.1537 H       1  UNL1        0.1486
     10 C          -2.3754  -17.5184   21.7406 C.3     1  UNL1        0.1170
     11 C          -3.2935  -16.9811   22.7982 C.ar    1  UNL1        0.0166
     12 C          -3.4504  -17.7136   24.0978 C.ar    1  UNL1        0.0004
     13 C          -4.3685  -17.1764   25.1554 C.ar    1  UNL1        0.0228
     14 C          -5.1296  -15.9066   24.9134 C.ar    1  UNL1        0.1526
     15 N          -4.9726  -15.1742   23.6139 N.ar    1  UNL1       -0.2401
     16 C          -4.0545  -15.7114   22.5562 C.ar    1  UNL1        0.0961
     17 C          -6.0476  -15.3694   25.9710 C.3     1  UNL1        0.4348
     18 F          -6.9657  -14.8320   27.0285 F       1  UNL1       -0.1644
     19 F          -6.6867  -14.4668   24.9575 F       1  UNL1       -0.1644
     20 F          -5.4086  -16.2719   26.9844 F       1  UNL1       -0.1644
     21 C          -8.6323  -20.2157   20.8321 C.3     1  UNL1        0.0559
     22 C          -9.5795  -19.6030   21.8208 C.ar    1  UNL1        0.0043
     23 C          -9.7888  -20.0525   23.2365 C.ar    1  UNL1        0.0966
     24 N         -10.8223  -19.1606   23.8579 N.ar    1  UNL1       -0.2273
     25 C         -11.2517  -18.1598   22.8264 C.ar    1  UNL1        0.1403
     26 N         -12.2429  -17.0348   22.8709 N.ar    1  UNL1       -0.3367
     27 C         -12.4659  -16.1834   21.6563 C.ar    1  UNL1        0.0850
     28 C         -11.6978  -16.4568   20.3973 C.ar    1  UNL1        0.0747
     29 CL        -11.9209  -15.6053   19.1827 Cl      1  UNL1       -0.0807
     30 C         -10.7066  -17.5818   20.3528 C.ar    1  UNL1        0.0156
     31 C         -10.4836  -18.4333   21.5673 C.ar    1  UNL1        0.0327
     32 H         -12.7470  -16.8554   23.6972 H       1  UNL1        0.1674
@<TRIPOS>BOND
     1     1     2    1
     2     2     3   ar
     3     3     4   ar
     4     4    21    1
     5    21    22    1
     6    22    23   ar
     7    23    24   ar
     8    24    25   ar
     9    25    26   ar
    10    26    27   ar
    11    27    28   ar
    12    28    29    1
    13    28    30   ar
    14    30    31   ar
    15     4     5   ar
    16     5     6   ar
    17     6     7   ar
    18     7     8    1
    19     8    10    1
    20    10    11    1
    21    11    12   ar
    22    12    13   ar
    23    13    14   ar
    24    14    17    1
    25    17    18    1
    26    17    19    1
    27    17    20    1
    28    14    15   ar
    29    15    16   ar
    30     7     2   ar
    31    16    11   ar
    32    31    22   ar
    33    31    25    1
    34    26    32    1
    35     8     9    1
@<TRIPOS>MOLECULE
*****
 32 35 0 0 0
SMALL
GASTEIGER

@<TRIPOS>ATOM
      1 F          -6.1913  -18.6294   21.4146 F       1  UNL1       -0.2012
      2 C          -7.3266  -19.1078   20.5589 C.ar    1  UNL1        0.1710
      3 C          -8.6415  -18.3867   20.5856 C.ar    1  UNL1        0.0301
      4 C          -9.7768  -18.8652   19.7298 C.ar    1  UNL1        0.0037
      5 C          -9.5969  -20.0647   18.8474 C.ar    1  UNL1        0.0965
      6 N          -8.2820  -20.7859   18.8206 N.ar    1  UNL1       -0.2274
      7 C          -7.1468  -20.3074   19.6764 C.ar    1  UNL1        0.1564
      8 N          -5.8317  -21.0285   19.6497 N.pl3   1  UNL1       -0.3126
      9 H          -5.6043  -21.6095   18.8882 H       1  UNL1        0.1486
     10 C          -4.8633  -20.8643   20.7834 C.3     1  UNL1        0.1170
     11 C          -3.6397  -20.0145   20.6076 C.ar    1  UNL1        0.0166
     12 C          -3.4081  -19.2920   19.3136 C.ar    1  UNL1        0.0004
     13 C          -2.1846  -18.4422   19.1377 C.ar    1  UNL1        0.0228
     14 C          -1.1928  -18.3149   20.2558 C.ar    1  UNL1        0.1526
     15 N          -1.4245  -19.0374   21.5497 N.ar    1  UNL1       -0.2401
     16 C          -2.6480  -19.8872   21.7256 C.ar    1  UNL1        0.0961
     17 C           0.0307  -17.4651   20.0799 C.3     1  UNL1        0.4348
     18 F           1.2542  -16.6154   19.9041 F       1  UNL1       -0.1644
     19 F           0.8169  -18.6794   19.6831 F       1  UNL1       -0.1644
     20 F          -0.7555  -16.2509   20.4768 F       1  UNL1       -0.1644
     21 C         -11.0919  -18.1440   19.7565 C.3     1  UNL1        0.0559
     22 C         -11.7591  -17.8492   21.0672 C.ar    1  UNL1        0.0043
     23 C         -12.8347  -16.8298   21.2994 C.ar    1  UNL1        0.0966
     24 N         -13.2081  -16.8726   22.7515 N.ar    1  UNL1       -0.2273
     25 C         -12.3634  -17.9185   23.4168 C.ar    1  UNL1        0.1403
     26 N         -12.2939  -18.3992   24.8359 N.ar    1  UNL1       -0.3367
     27 C         -11.3289  -19.4834   25.2141 C.ar    1  UNL1        0.0850
     28 C         -10.4333  -20.0870   24.1732 C.ar    1  UNL1        0.0747
     29 CL         -9.4682  -21.1713   24.5514 Cl      1  UNL1       -0.0807
     30 C         -10.5027  -19.6063   22.7540 C.ar    1  UNL1        0.0156
     31 C         -11.4678  -18.5220   22.3758 C.ar    1  UNL1        0.0327
     32 H         -12.8817  -18.0030   25.5192 H       1  UNL1        0.1674
@<TRIPOS>BOND
     1     1     2    1
     2     2     3   ar
     3     3     4   ar
     4     4    21    1
     5    21    22    1
     6    22    23   ar
     7    23    24   ar
     8    24    25   ar
     9    25    26   ar
    10    26    27   ar
    11    27    28   ar
    12    28    29    1
    13    28    30   ar
    14    30    31   ar
    15     4     5   ar
    16     5     6   ar
    17     6     7   ar
    18     7     8    1
    19     8    10    1
    20    10    11    1
    21    11    12   ar
    22    12    13   ar
    23    13    14   ar
    24    14    17    1
    25    17    18    1
    26    17    19    1
    27    17    20    1
    28    14    15   ar
    29    15    16   ar
    30     7     2   ar
    31    16    11   ar
    32    31    22   ar
    33    31    25    1
    34    26    32    1
    35     8     9    1
