@<TRIPOS>MOLECULE
*****
 30 33 0 0 0
SMALL
GASTEIGER

@<TRIPOS>ATOM
      1 C          -5.4573  -15.5172   24.8779 C.3     1  UNL1        0.0219
      2 C          -5.6605  -16.5135   23.7750 C.3     1  UNL1        0.0820
      3 C          -4.5122  -16.8958   22.8888 C.3     1  UNL1        0.0671
      4 C          -4.7153  -17.8920   21.7860 C.ar    1  UNL1        0.0837
      5 C          -6.0666  -18.5060   21.5694 C.ar    1  UNL1        0.1159
      6 N          -5.9653  -19.4527   20.4103 N.ar    1  UNL1       -0.1314
      7 N          -4.5513  -19.4238   19.9106 N.ar    1  UNL1       -0.0576
      8 N          -3.7787  -18.4593   20.7608 N.ar    1  UNL1       -0.1813
      9 C          -7.2149  -18.1237   22.4555 C.3     1  UNL1        0.1426
     10 N          -7.0117  -17.1274   23.5584 N.am    1  UNL1       -0.2715
     11 C          -8.1601  -16.7451   24.4446 C.2     1  UNL1        0.2514
     12 O          -7.9570  -15.7489   25.5475 O.2     1  UNL1       -0.2698
     13 C          -2.3249  -18.1213   20.6119 C.ar    1  UNL1        0.2543
     14 N          -1.8694  -16.6975   20.7356 N.ar    1  UNL1       -0.2060
     15 C          -0.4155  -16.3595   20.5867 C.ar    1  UNL1        0.1332
     16 C           0.5828  -17.4453   20.3142 C.ar    1  UNL1        0.1784
     17 F           2.0366  -17.1074   20.1654 F       1  UNL1       -0.2009
     18 C           0.1272  -18.8692   20.1905 C.ar    1  UNL1        0.1332
     19 N          -1.3265  -19.2072   20.3394 N.ar    1  UNL1       -0.2060
     20 C          -9.5114  -17.3591   24.2280 C.ar    1  UNL1        0.0809
     21 C          -9.9950  -18.4484   25.1387 C.ar    1  UNL1        0.0068
     22 C         -11.3463  -19.0624   24.9221 C.ar    1  UNL1        0.0002
     23 C         -12.2141  -18.5870   23.7947 C.ar    1  UNL1        0.0061
     24 C         -11.7305  -17.4977   22.8840 C.ar    1  UNL1        0.0989
     25 C         -10.3792  -16.8837   23.1006 C.ar    1  UNL1        0.1483
     26 F          -9.8956  -15.7944   22.1899 F       1  UNL1       -0.2041
     27 C         -12.5982  -17.0222   21.7565 C.3     1  UNL1        0.4207
     28 F         -13.4659  -16.5467   20.6291 F       1  UNL1       -0.1658
     29 F         -12.9411  -15.7900   22.5401 F       1  UNL1       -0.1658
     30 F         -12.2553  -18.2544   20.9729 F       1  UNL1       -0.1658
@<TRIPOS>BOND
     1     2     1    1
     2     2     3    1
     3     3     4    1
     4     4     5   ar
     5     5     6   ar
     6     6     7   ar
     7     7     8   ar
     8     8    13    1
     9    13    14   ar
    10    14    15   ar
    11    15    16   ar
    12    16    17    1
    13    16    18   ar
    14    18    19   ar
    15     5     9    1
    16     9    10    1
    17    10    11   am
    18    11    12    2
    19    11    20    1
    20    20    21   ar
    21    21    22   ar
    22    22    23   ar
    23    23    24   ar
    24    24    27    1
    25    27    28    1
    26    27    29    1
    27    27    30    1
    28    24    25   ar
    29    25    26    1
    30    10     2    1
    31    25    20   ar
    32     8     4   ar
    33    19    13   ar
@<TRIPOS>MOLECULE
*****
 30 33 0 0 0
SMALL
GASTEIGER

@<TRIPOS>ATOM
      1 C           4.9405   -1.3283   25.1558 C.3     1  UNL1        0.0219
      2 C           4.9552   -2.1067   23.8736 C.3     1  UNL1        0.0820
      3 C           4.1622   -1.6252   22.6949 C.3     1  UNL1        0.0671
      4 C           4.1769   -2.4035   21.4127 C.ar    1  UNL1        0.0837
      5 C           4.9845   -3.6633   21.3092 C.ar    1  UNL1        0.1159
      6 N           4.8067   -4.2157   19.9260 N.ar    1  UNL1       -0.1314
      7 N           3.8892   -3.2972   19.1746 N.ar    1  UNL1       -0.0576
      8 N           3.4999   -2.1773   20.0934 N.ar    1  UNL1       -0.1813
      9 C           5.7775   -4.1448   22.4879 C.3     1  UNL1        0.1426
     10 N           5.7628   -3.3664   23.7702 N.am    1  UNL1       -0.2715
     11 C           6.5558   -3.8478   24.9490 C.2     1  UNL1        0.2514
     12 O           6.5411   -3.0695   26.2311 O.2     1  UNL1       -0.2698
     13 C           2.5930   -1.0322   19.7527 C.ar    1  UNL1        0.2543
     14 N           2.9719   -0.0740   18.6626 N.ar    1  UNL1       -0.2060
     15 C           2.0649    1.0712   18.3218 C.ar    1  UNL1        0.1332
     16 C           0.7791    1.2582   19.0712 C.ar    1  UNL1        0.1784
     17 F          -0.1279    2.4033   18.7305 F       1  UNL1       -0.2009
     18 C           0.4002    0.2999   20.1613 C.ar    1  UNL1        0.1332
     19 N           1.3071   -0.8452   20.5021 N.ar    1  UNL1       -0.2060
     20 C           7.3634   -5.1076   24.8455 C.ar    1  UNL1        0.0809
     21 C           8.3303   -5.2878   23.7129 C.ar    1  UNL1        0.0068
     22 C           9.1379   -6.5476   23.6095 C.ar    1  UNL1        0.0002
     23 C           8.9787   -7.6272   24.6386 C.ar    1  UNL1        0.0061
     24 C           8.0118   -7.4470   25.7711 C.ar    1  UNL1        0.0989
     25 C           7.2042   -6.1872   25.8746 C.ar    1  UNL1        0.1483
     26 F           6.2373   -6.0071   27.0071 F       1  UNL1       -0.2041
     27 C           7.8524   -8.5266   26.8003 C.3     1  UNL1        0.4207
     28 F           7.6930   -9.6062   27.8294 F       1  UNL1       -0.1658
     29 F           6.4247   -8.7155   26.3810 F       1  UNL1       -0.1658
     30 F           9.2802   -8.3377   27.2196 F       1  UNL1       -0.1658
@<TRIPOS>BOND
     1     2     1    1
     2     2     3    1
     3     3     4    1
     4     4     5   ar
     5     5     6   ar
     6     6     7   ar
     7     7     8   ar
     8     8    13    1
     9    13    14   ar
    10    14    15   ar
    11    15    16   ar
    12    16    17    1
    13    16    18   ar
    14    18    19   ar
    15     5     9    1
    16     9    10    1
    17    10    11   am
    18    11    12    2
    19    11    20    1
    20    20    21   ar
    21    21    22   ar
    22    22    23   ar
    23    23    24   ar
    24    24    27    1
    25    27    28    1
    26    27    29    1
    27    27    30    1
    28    24    25   ar
    29    25    26    1
    30    10     2    1
    31    25    20   ar
    32     8     4   ar
    33    19    13   ar
@<TRIPOS>MOLECULE
*****
 30 33 0 0 0
SMALL
GASTEIGER

@<TRIPOS>ATOM
      1 C           8.7669   -6.9352   23.2887 C.3     1  UNL1        0.0219
      2 C           8.1413   -5.7361   23.9375 C.3     1  UNL1        0.0820
      3 C           8.0866   -5.6358   25.4332 C.3     1  UNL1        0.0671
      4 C           7.4611   -4.4368   26.0820 C.ar    1  UNL1        0.0837
      5 C           6.8902   -3.3381   25.2352 C.ar    1  UNL1        0.1159
      6 N           6.3403   -2.2850   26.1510 N.ar    1  UNL1       -0.1314
      7 N           6.5712   -2.7329   27.5638 N.ar    1  UNL1       -0.0576
      8 N           7.2639   -4.0628   27.5212 N.ar    1  UNL1       -0.1813
      9 C           6.9450   -3.4384   23.7396 C.3     1  UNL1        0.1426
     10 N           7.5706   -4.6375   23.0908 N.am    1  UNL1       -0.2715
     11 C           7.6253   -4.7379   21.5951 C.2     1  UNL1        0.2514
     12 O           8.2508   -5.9369   20.9462 O.2     1  UNL1       -0.2698
     13 C           7.6854   -4.8758   28.7092 C.ar    1  UNL1        0.2543
     14 N           6.7621   -5.0246   29.8819 N.ar    1  UNL1       -0.2060
     15 C           7.1835   -5.8376   31.0699 C.ar    1  UNL1        0.1332
     16 C           8.5283   -6.5018   31.0852 C.ar    1  UNL1        0.1784
     17 F           8.9498   -7.3149   32.2732 F       1  UNL1       -0.2009
     18 C           9.4516   -6.3530   29.9124 C.ar    1  UNL1        0.1332
     19 N           9.0302   -5.5400   28.7244 N.ar    1  UNL1       -0.2060
     20 C           7.0545   -3.6392   20.7483 C.ar    1  UNL1        0.0809
     21 C           7.9636   -2.7840   19.9164 C.ar    1  UNL1        0.0068
     22 C           7.3928   -1.6854   19.0696 C.ar    1  UNL1        0.0002
     23 C           5.9128   -1.4418   19.0547 C.ar    1  UNL1        0.0061
     24 C           5.0036   -2.2970   19.8865 C.ar    1  UNL1        0.0989
     25 C           5.5744   -3.3957   20.7333 C.ar    1  UNL1        0.1483
     26 F           4.6653   -4.2509   21.5652 F       1  UNL1       -0.2041
     27 C           3.5235   -2.0536   19.8717 C.3     1  UNL1        0.4207
     28 F           2.0435   -1.8101   19.8569 F       1  UNL1       -0.1658
     29 F           3.7230   -0.7935   20.6605 F       1  UNL1       -0.1658
     30 F           3.3241   -3.3137   19.0829 F       1  UNL1       -0.1658
@<TRIPOS>BOND
     1     2     1    1
     2     2     3    1
     3     3     4    1
     4     4     5   ar
     5     5     6   ar
     6     6     7   ar
     7     7     8   ar
     8     8    13    1
     9    13    14   ar
    10    14    15   ar
    11    15    16   ar
    12    16    17    1
    13    16    18   ar
    14    18    19   ar
    15     5     9    1
    16     9    10    1
    17    10    11   am
    18    11    12    2
    19    11    20    1
    20    20    21   ar
    21    21    22   ar
    22    22    23   ar
    23    23    24   ar
    24    24    27    1
    25    27    28    1
    26    27    29    1
    27    27    30    1
    28    24    25   ar
    29    25    26    1
    30    10     2    1
    31    25    20   ar
    32     8     4   ar
    33    19    13   ar
@<TRIPOS>MOLECULE
*****
 30 33 0 0 0
SMALL
GASTEIGER

@<TRIPOS>ATOM
      1 C           6.9861   -3.2992   26.3360 C.3     1  UNL1        0.0219
      2 C           5.8997   -2.4299   25.7756 C.3     1  UNL1        0.0820
      3 C           5.0232   -1.6362   26.6986 C.3     1  UNL1        0.0671
      4 C           3.9368   -0.7669   26.1383 C.ar    1  UNL1        0.0837
      5 C           3.7268   -0.6913   24.6550 C.ar    1  UNL1        0.1159
      6 N           2.5841    0.2452   24.3957 N.ar    1  UNL1       -0.1314
      7 N           2.0879    0.7484   25.7188 N.ar    1  UNL1       -0.0576
      8 N           2.9239    0.1228   26.7958 N.ar    1  UNL1       -0.1813
      9 C           4.6033   -1.4850   23.7320 C.3     1  UNL1        0.1426
     10 N           5.6897   -2.3543   24.2924 N.am    1  UNL1       -0.2715
     11 C           6.5662   -3.1480   23.3693 C.2     1  UNL1        0.2514
     12 O           7.6527   -4.0173   23.9297 O.2     1  UNL1       -0.2698
     13 C           2.7733    0.3476   28.2712 C.ar    1  UNL1        0.2543
     14 N           2.7494    1.7440   28.8184 N.ar    1  UNL1       -0.2060
     15 C           2.5988    1.9689   30.2939 C.ar    1  UNL1        0.1332
     16 C           2.4723    0.7974   31.2219 C.ar    1  UNL1        0.1784
     17 F           2.3217    1.0222   32.6973 F       1  UNL1       -0.2009
     18 C           2.4963   -0.5991   30.6746 C.ar    1  UNL1        0.1332
     19 N           2.6468   -0.8240   29.1993 N.ar    1  UNL1       -0.2060
     20 C           6.3562   -3.0724   21.8860 C.ar    1  UNL1        0.0809
     21 C           7.3736   -2.3929   21.0182 C.ar    1  UNL1        0.0068
     22 C           7.1636   -2.3172   19.5349 C.ar    1  UNL1        0.0002
     23 C           5.9363   -2.9211   18.9194 C.ar    1  UNL1        0.0061
     24 C           4.9189   -3.6006   19.7873 C.ar    1  UNL1        0.0989
     25 C           5.1288   -3.6762   21.2706 C.ar    1  UNL1        0.1483
     26 F           4.1114   -4.3557   22.1384 F       1  UNL1       -0.2041
     27 C           3.6914   -4.2045   19.1719 C.3     1  UNL1        0.4207
     28 F           2.4639   -4.8083   18.5565 F       1  UNL1       -0.1658
     29 F           2.8805   -3.0324   19.6393 F       1  UNL1       -0.1658
     30 F           4.5023   -5.3766   18.7044 F       1  UNL1       -0.1658
@<TRIPOS>BOND
     1     2     1    1
     2     2     3    1
     3     3     4    1
     4     4     5   ar
     5     5     6   ar
     6     6     7   ar
     7     7     8   ar
     8     8    13    1
     9    13    14   ar
    10    14    15   ar
    11    15    16   ar
    12    16    17    1
    13    16    18   ar
    14    18    19   ar
    15     5     9    1
    16     9    10    1
    17    10    11   am
    18    11    12    2
    19    11    20    1
    20    20    21   ar
    21    21    22   ar
    22    22    23   ar
    23    23    24   ar
    24    24    27    1
    25    27    28    1
    26    27    29    1
    27    27    30    1
    28    24    25   ar
    29    25    26    1
    30    10     2    1
    31    25    20   ar
    32     8     4   ar
    33    19    13   ar
@<TRIPOS>MOLECULE
*****
 30 33 0 0 0
SMALL
GASTEIGER

@<TRIPOS>ATOM
      1 C          -2.1286    3.8324   19.3978 C.3     1  UNL1        0.0219
      2 C          -1.3965    3.3570   20.6177 C.3     1  UNL1        0.0820
      3 C          -1.9810    3.5864   21.9800 C.3     1  UNL1        0.0671
      4 C          -1.2491    3.1111   23.1999 C.ar    1  UNL1        0.0837
      5 C           0.0674    2.4064   23.0576 C.ar    1  UNL1        0.1159
      6 N           0.5552    2.0536   24.4315 N.ar    1  UNL1       -0.1314
      7 N          -0.4598    2.5402   25.4229 N.ar    1  UNL1       -0.0576
      8 N          -1.5749    3.1938   24.6617 N.ar    1  UNL1       -0.1813
      9 C           0.6520    2.1770   21.6954 C.3     1  UNL1        0.1426
     10 N          -0.0801    2.6524   20.4754 N.am    1  UNL1       -0.2715
     11 C           0.5044    2.4230   19.1131 C.2     1  UNL1        0.2514
     12 O          -0.2275    2.8983   17.8932 O.2     1  UNL1       -0.2698
     13 C          -2.8006    3.8202   25.2578 C.ar    1  UNL1        0.2543
     14 N          -2.6755    4.7398   26.4362 N.ar    1  UNL1       -0.2060
     15 C          -3.9012    5.3661   27.0323 C.ar    1  UNL1        0.1332
     16 C          -5.2520    5.0729   26.4501 C.ar    1  UNL1        0.1784
     17 F          -6.4778    5.6992   27.0461 F       1  UNL1       -0.2009
     18 C          -5.3772    4.1532   25.2716 C.ar    1  UNL1        0.1332
     19 N          -4.1515    3.5269   24.6755 N.ar    1  UNL1       -0.2060
     20 C           1.8209    1.7183   18.9708 C.ar    1  UNL1        0.0809
     21 C           3.0391    2.4834   18.5456 C.ar    1  UNL1        0.0068
     22 C           4.3556    1.7786   18.4033 C.ar    1  UNL1        0.0002
     23 C           4.4539    0.3089   18.6862 C.ar    1  UNL1        0.0061
     24 C           3.2358   -0.4562   19.1114 C.ar    1  UNL1        0.0989
     25 C           1.9193    0.2485   19.2537 C.ar    1  UNL1        0.1483
     26 F           0.7012   -0.5166   19.6789 F       1  UNL1       -0.2041
     27 C           3.3341   -1.9260   19.3944 C.3     1  UNL1        0.4207
     28 F           3.4323   -3.3958   19.6773 F       1  UNL1       -0.1658
     29 F           3.7222   -2.1748   17.9670 F       1  UNL1       -0.1658
     30 F           2.9459   -1.6772   20.8218 F       1  UNL1       -0.1658
@<TRIPOS>BOND
     1     2     1    1
     2     2     3    1
     3     3     4    1
     4     4     5   ar
     5     5     6   ar
     6     6     7   ar
     7     7     8   ar
     8     8    13    1
     9    13    14   ar
    10    14    15   ar
    11    15    16   ar
    12    16    17    1
    13    16    18   ar
    14    18    19   ar
    15     5     9    1
    16     9    10    1
    17    10    11   am
    18    11    12    2
    19    11    20    1
    20    20    21   ar
    21    21    22   ar
    22    22    23   ar
    23    23    24   ar
    24    24    27    1
    25    27    28    1
    26    27    29    1
    27    27    30    1
    28    24    25   ar
    29    25    26    1
    30    10     2    1
    31    25    20   ar
    32     8     4   ar
    33    19    13   ar
@<TRIPOS>MOLECULE
*****
 30 33 0 0 0
SMALL
GASTEIGER

@<TRIPOS>ATOM
      1 C          -8.2400  -20.1138   19.0569 C.3     1  UNL1        0.0219
      2 C          -7.8420  -19.1574   20.1418 C.3     1  UNL1        0.0820
      3 C          -6.3905  -18.9030   20.4219 C.3     1  UNL1        0.0671
      4 C          -5.9924  -17.9466   21.5068 C.ar    1  UNL1        0.0837
      5 C          -7.0458  -17.2446   22.3115 C.ar    1  UNL1        0.1159
      6 N          -6.3558  -16.3629   23.3097 N.ar    1  UNL1       -0.1314
      7 N          -4.8759  -16.5199   23.1218 N.ar    1  UNL1       -0.0576
      8 N          -4.6513  -17.4987   22.0076 N.ar    1  UNL1       -0.1813
      9 C          -8.4973  -17.4991   22.0314 C.3     1  UNL1        0.1426
     10 N          -8.8953  -18.4555   20.9465 N.am    1  UNL1       -0.2715
     11 C         -10.3469  -18.7099   20.6664 C.2     1  UNL1        0.2514
     12 O         -10.7450  -19.6663   19.5816 O.2     1  UNL1       -0.2698
     13 C          -3.3195  -17.9502   21.4857 C.ar    1  UNL1        0.2543
     14 N          -2.3863  -16.9598   20.8547 N.ar    1  UNL1       -0.2060
     15 C          -1.0543  -17.4113   20.3329 C.ar    1  UNL1        0.1332
     16 C          -0.6557  -18.8531   20.4421 C.ar    1  UNL1        0.1784
     17 F           0.6761  -19.3047   19.9203 F       1  UNL1       -0.2009
     18 C          -1.5890  -19.8436   21.0731 C.ar    1  UNL1        0.1332
     19 N          -2.9208  -19.3921   21.5949 N.ar    1  UNL1       -0.2060
     20 C         -11.4003  -18.0080   21.4712 C.ar    1  UNL1        0.0809
     21 C         -11.9575  -16.6984   20.9975 C.ar    1  UNL1        0.0068
     22 C         -13.0109  -15.9964   21.8023 C.ar    1  UNL1        0.0002
     23 C         -13.5071  -16.6041   23.0807 C.ar    1  UNL1        0.0061
     24 C         -12.9499  -17.9137   23.5544 C.ar    1  UNL1        0.0989
     25 C         -11.8965  -18.6156   22.7497 C.ar    1  UNL1        0.1483
     26 F         -11.3393  -19.9253   23.2234 F       1  UNL1       -0.2041
     27 C         -13.4460  -18.5215   24.8330 C.3     1  UNL1        0.4207
     28 F         -13.9422  -19.1292   26.1114 F       1  UNL1       -0.1658
     29 F         -14.8564  -18.4242   24.3317 F       1  UNL1       -0.1658
     30 F         -12.0356  -18.6187   25.3341 F       1  UNL1       -0.1658
@<TRIPOS>BOND
     1     2     1    1
     2     2     3    1
     3     3     4    1
     4     4     5   ar
     5     5     6   ar
     6     6     7   ar
     7     7     8   ar
     8     8    13    1
     9    13    14   ar
    10    14    15   ar
    11    15    16   ar
    12    16    17    1
    13    16    18   ar
    14    18    19   ar
    15     5     9    1
    16     9    10    1
    17    10    11   am
    18    11    12    2
    19    11    20    1
    20    20    21   ar
    21    21    22   ar
    22    22    23   ar
    23    23    24   ar
    24    24    27    1
    25    27    28    1
    26    27    29    1
    27    27    30    1
    28    24    25   ar
    29    25    26    1
    30    10     2    1
    31    25    20   ar
    32     8     4   ar
    33    19    13   ar
@<TRIPOS>MOLECULE
*****
 30 33 0 0 0
SMALL
GASTEIGER

@<TRIPOS>ATOM
      1 C          -3.0254    4.1976   17.9288 C.3     1  UNL1        0.0219
      2 C          -2.4512    3.9395   19.2904 C.3     1  UNL1        0.0820
      3 C          -3.3161    4.0793   20.5079 C.3     1  UNL1        0.0671
      4 C          -2.7420    3.8213   21.8694 C.ar    1  UNL1        0.0837
      5 C          -1.3029    3.4235   22.0134 C.ar    1  UNL1        0.1159
      6 N          -1.0178    3.2357   23.4740 N.ar    1  UNL1       -0.1314
      7 N          -2.2807    3.5173   24.2327 N.ar    1  UNL1       -0.0576
      8 N          -3.3463    3.8793   23.2410 N.ar    1  UNL1       -0.1813
      9 C          -0.4379    3.2838   20.7959 C.3     1  UNL1        0.1426
     10 N          -1.0122    3.5418   19.4344 N.am    1  UNL1       -0.2715
     11 C          -0.1472    3.4020   18.2168 C.2     1  UNL1        0.2514
     12 O          -0.7213    3.6600   16.8553 O.2     1  UNL1       -0.2698
     13 C          -4.7669    4.2364   23.5642 C.ar    1  UNL1        0.2543
     14 N          -5.8742    3.8143   22.6446 N.ar    1  UNL1       -0.2060
     15 C          -7.2948    4.1715   22.9678 C.ar    1  UNL1        0.1332
     16 C          -7.6080    4.9508   24.2105 C.ar    1  UNL1        0.1784
     17 F          -9.0286    5.3080   24.5337 F       1  UNL1       -0.2009
     18 C          -6.5007    5.3729   25.1301 C.ar    1  UNL1        0.1332
     19 N          -5.0801    5.0158   24.8070 N.ar    1  UNL1       -0.2060
     20 C           1.2920    3.0043   18.3608 C.ar    1  UNL1        0.0809
     21 C           2.3524    4.0578   18.4854 C.ar    1  UNL1        0.0068
     22 C           3.7915    3.6600   18.6295 C.ar    1  UNL1        0.0002
     23 C           4.1702    2.2087   18.6489 C.ar    1  UNL1        0.0061
     24 C           3.1097    1.1552   18.5243 C.ar    1  UNL1        0.0989
     25 C           1.6706    1.5530   18.3803 C.ar    1  UNL1        0.1483
     26 F           0.6102    0.4995   18.2557 F       1  UNL1       -0.2041
     27 C           3.4883   -0.2962   18.5437 C.3     1  UNL1        0.4207
     28 F           3.8669   -1.7475   18.5633 F       1  UNL1       -0.1658
     29 F           3.6704   -0.2286   20.0311 F       1  UNL1       -0.1658
     30 F           3.3062   -0.3636   17.0564 F       1  UNL1       -0.1658
@<TRIPOS>BOND
     1     2     1    1
     2     2     3    1
     3     3     4    1
     4     4     5   ar
     5     5     6   ar
     6     6     7   ar
     7     7     8   ar
     8     8    13    1
     9    13    14   ar
    10    14    15   ar
    11    15    16   ar
    12    16    17    1
    13    16    18   ar
    14    18    19   ar
    15     5     9    1
    16     9    10    1
    17    10    11   am
    18    11    12    2
    19    11    20    1
    20    20    21   ar
    21    21    22   ar
    22    22    23   ar
    23    23    24   ar
    24    24    27    1
    25    27    28    1
    26    27    29    1
    27    27    30    1
    28    24    25   ar
    29    25    26    1
    30    10     2    1
    31    25    20   ar
    32     8     4   ar
    33    19    13   ar
@<TRIPOS>MOLECULE
*****
 30 33 0 0 0
SMALL
GASTEIGER

@<TRIPOS>ATOM
      1 C           2.7483    1.1087   24.6920 C.3     1  UNL1        0.0219
      2 C           1.7612    1.4089   23.6031 C.3     1  UNL1        0.0820
      3 C           0.5206    2.1937   23.9110 C.3     1  UNL1        0.0671
      4 C          -0.4665    2.4939   22.8221 C.ar    1  UNL1        0.0837
      5 C          -0.2129    2.0093   21.4254 C.ar    1  UNL1        0.1159
      6 N          -1.3577    2.4553   20.5649 N.ar    1  UNL1       -0.1314
      7 N          -2.3189    3.2156   21.4299 N.ar    1  UNL1       -0.0576
      8 N          -1.7681    3.2395   22.8249 N.ar    1  UNL1       -0.1813
      9 C           1.0278    1.2245   21.1175 C.3     1  UNL1        0.1426
     10 N           2.0148    0.9243   22.2064 N.am    1  UNL1       -0.2715
     11 C           3.2556    0.1395   21.8985 C.2     1  UNL1        0.2514
     12 O           4.2426   -0.1607   22.9874 O.2     1  UNL1       -0.2698
     13 C          -2.4068    3.8940   24.0139 C.ar    1  UNL1        0.2543
     14 N          -1.8014    5.1335   24.6029 N.ar    1  UNL1       -0.2060
     15 C          -2.4400    5.7881   25.7919 C.ar    1  UNL1        0.1332
     16 C          -3.6840    5.2031   26.3919 C.ar    1  UNL1        0.1784
     17 F          -4.3227    5.8576   27.5809 F       1  UNL1       -0.2009
     18 C          -4.2894    3.9634   25.8028 C.ar    1  UNL1        0.1332
     19 N          -3.6508    3.3089   24.6139 N.ar    1  UNL1       -0.2060
     20 C           3.5092   -0.3452   20.5018 C.ar    1  UNL1        0.0809
     21 C           3.4630    0.6188   19.3535 C.ar    1  UNL1        0.0068
     22 C           3.7166    0.1342   17.9568 C.ar    1  UNL1        0.0002
     23 C           4.0164   -1.3144   17.7084 C.ar    1  UNL1        0.0061
     24 C           4.0625   -2.2783   18.8567 C.ar    1  UNL1        0.0989
     25 C           3.8089   -1.7937   20.2534 C.ar    1  UNL1        0.1483
     26 F           3.8551   -2.7577   21.4017 F       1  UNL1       -0.2041
     27 C           4.3623   -3.7270   18.6083 C.3     1  UNL1        0.4207
     28 F           4.6620   -5.1757   18.3601 F       1  UNL1       -0.1658
     29 F           2.9535   -4.0823   18.9812 F       1  UNL1       -0.1658
     30 F           5.7711   -3.3716   18.2355 F       1  UNL1       -0.1658
@<TRIPOS>BOND
     1     2     1    1
     2     2     3    1
     3     3     4    1
     4     4     5   ar
     5     5     6   ar
     6     6     7   ar
     7     7     8   ar
     8     8    13    1
     9    13    14   ar
    10    14    15   ar
    11    15    16   ar
    12    16    17    1
    13    16    18   ar
    14    18    19   ar
    15     5     9    1
    16     9    10    1
    17    10    11   am
    18    11    12    2
    19    11    20    1
    20    20    21   ar
    21    21    22   ar
    22    22    23   ar
    23    23    24   ar
    24    24    27    1
    25    27    28    1
    26    27    29    1
    27    27    30    1
    28    24    25   ar
    29    25    26    1
    30    10     2    1
    31    25    20   ar
    32     8     4   ar
    33    19    13   ar
@<TRIPOS>MOLECULE
*****
 30 33 0 0 0
SMALL
GASTEIGER

@<TRIPOS>ATOM
      1 C           0.9659    1.5137   21.4315 C.3     1  UNL1        0.0219
      2 C           1.7989    0.6880   22.3667 C.3     1  UNL1        0.0820
      3 C           1.7854    0.9786   23.8382 C.3     1  UNL1        0.0671
      4 C           2.6184    0.1531   24.7734 C.ar    1  UNL1        0.0837
      5 C           3.4649   -0.9631   24.2370 C.ar    1  UNL1        0.1159
      6 N           4.1765   -1.6018   25.3928 N.ar    1  UNL1       -0.1314
      7 N           3.7698   -0.8803   26.6434 N.ar    1  UNL1       -0.0576
      8 N           2.8069    0.2042   26.2606 N.ar    1  UNL1       -0.1813
      9 C           3.4784   -1.2537   22.7655 C.3     1  UNL1        0.1426
     10 N           2.6453   -0.4281   21.8304 N.am    1  UNL1       -0.2715
     11 C           2.6588   -0.7187   20.3588 C.2     1  UNL1        0.2514
     12 O           1.8258    0.1069   19.4236 O.2     1  UNL1       -0.2698
     13 C           2.1481    1.1703   27.2001 C.ar    1  UNL1        0.2543
     14 N           2.6300    2.5887   27.2770 N.ar    1  UNL1       -0.2060
     15 C           1.9712    3.5548   28.2165 C.ar    1  UNL1        0.1332
     16 C           0.8305    3.1025   29.0791 C.ar    1  UNL1        0.1784
     17 F           0.1717    4.0686   30.0186 F       1  UNL1       -0.2009
     18 C           0.3486    1.6841   29.0022 C.ar    1  UNL1        0.1332
     19 N           1.0073    0.7180   28.0628 N.ar    1  UNL1       -0.2060
     20 C           3.5053   -1.8348   19.8224 C.ar    1  UNL1        0.0809
     21 C           2.8852   -3.1658   19.5161 C.ar    1  UNL1        0.0068
     22 C           3.7317   -4.2820   18.9797 C.ar    1  UNL1        0.0002
     23 C           5.1983   -4.0672   18.7498 C.ar    1  UNL1        0.0061
     24 C           5.8184   -2.7362   19.0561 C.ar    1  UNL1        0.0989
     25 C           4.9719   -1.6200   19.5924 C.ar    1  UNL1        0.1483
     26 F           5.5920   -0.2890   19.8988 F       1  UNL1       -0.2041
     27 C           7.2850   -2.5212   18.8261 C.3     1  UNL1        0.4207
     28 F           8.7516   -2.3062   18.5961 F       1  UNL1       -0.1658
     29 F           6.9755   -1.7368   17.5856 F       1  UNL1       -0.1658
     30 F           7.5945   -3.3056   20.0667 F       1  UNL1       -0.1658
@<TRIPOS>BOND
     1     2     1    1
     2     2     3    1
     3     3     4    1
     4     4     5   ar
     5     5     6   ar
     6     6     7   ar
     7     7     8   ar
     8     8    13    1
     9    13    14   ar
    10    14    15   ar
    11    15    16   ar
    12    16    17    1
    13    16    18   ar
    14    18    19   ar
    15     5     9    1
    16     9    10    1
    17    10    11   am
    18    11    12    2
    19    11    20    1
    20    20    21   ar
    21    21    22   ar
    22    22    23   ar
    23    23    24   ar
    24    24    27    1
    25    27    28    1
    26    27    29    1
    27    27    30    1
    28    24    25   ar
    29    25    26    1
    30    10     2    1
    31    25    20   ar
    32     8     4   ar
    33    19    13   ar
