@<TRIPOS>MOLECULE
*****
 28 29 0 0 0
SMALL
GASTEIGER

@<TRIPOS>ATOM
      1 C           6.4951   -3.2692   20.9783 C.ar    1  UNL1        0.1203
      2 N           6.8984   -4.5062   21.7248 N.ar    1  UNL1       -0.2310
      3 C           6.8176   -4.2087   23.1928 C.ar    1  UNL1        0.0983
      4 C           7.0981   -5.0480   24.4039 C.ar    1  UNL1        0.0206
      5 C           6.9254   -4.4665   25.7757 C.ar    1  UNL1        0.0017
      6 C           6.4722   -3.0457   25.9365 C.ar    1  UNL1        0.0016
      7 C           6.1917   -2.2064   24.7254 C.ar    1  UNL1        0.0188
      8 C           6.3644   -2.7879   23.3536 C.ar    1  UNL1        0.0786
      9 N           6.1651   -2.2073   21.9849 N.ar    1  UNL1       -0.3134
     10 C           7.2060   -5.3059   26.9869 C.2     1  UNL1        0.0048
     11 C           6.8174   -4.8112   28.3486 C.2     1  UNL1        0.0598
     12 C           7.0979   -5.6505   29.5598 C.2     1  UNL1        0.2679
     13 O           8.0478   -6.8077   29.4667 O.2     1  UNL1       -0.2681
     14 N           6.4286   -5.3326   30.8640 N.am    1  UNL1       -0.1934
     15 O           6.7092   -6.1719   32.0751 O.3     1  UNL1       -0.2949
     16 H           5.8052   -4.5731   30.9251 H       1  UNL1        0.1825
     17 H           7.3396   -6.8721   31.8443 H       1  UNL1        0.2414
     18 C           6.4329   -3.1204   19.4870 C.3     1  UNL1        0.0639
     19 C           5.1524   -3.4013   18.7580 C.3     1  UNL1        0.0079
     20 C           3.4811   -5.1383   19.7274 C.3     1  UNL1        0.0000
     21 C           4.5746   -4.7856   18.7631 C.3     1  UNL1        0.0005
     22 C           5.7148   -0.8100   21.6770 C.3     1  UNL1        0.1245
     23 C           4.2515   -0.5018   21.5613 C.3     1  UNL1        0.0969
     24 N           3.5873   -0.5094   20.2164 N.3     1  UNL1       -0.2711
     25 C           4.2012    0.2421   19.0726 C.3     1  UNL1        0.0722
     26 C           3.8475   -0.1207   17.6607 C.3     1  UNL1        0.0188
     27 C           2.3093   -1.2685   20.0152 C.3     1  UNL1        0.0722
     28 C           0.9914   -0.5993   20.2706 C.3     1  UNL1        0.0188
@<TRIPOS>BOND
     1    20    21    1
     2    21    19    1
     3    19    18    1
     4    18     1    1
     5     1     2   ar
     6     2     3   ar
     7     3     4   ar
     8     4     5   ar
     9     5    10    1
    10    10    11    2
    11    11    12    1
    12    12    13    2
    13    12    14   am
    14    14    15    1
    15     5     6   ar
    16     6     7   ar
    17     7     8   ar
    18     8     9   ar
    19     9    22    1
    20    22    23    1
    21    23    24    1
    22    24    25    1
    23    25    26    1
    24    24    27    1
    25    27    28    1
    26     9     1   ar
    27     8     3   ar
    28    14    16    1
    29    15    17    1
@<TRIPOS>MOLECULE
*****
 28 29 0 0 0
SMALL
GASTEIGER

@<TRIPOS>ATOM
      1 C           7.3046   -4.8669   23.6130 C.ar    1  UNL1        0.1203
      2 N           6.4846   -4.4349   22.4336 N.ar    1  UNL1       -0.2310
      3 C           5.5525   -3.3514   22.8890 C.ar    1  UNL1        0.0983
      4 C           4.5132   -2.5505   22.1622 C.ar    1  UNL1        0.0206
      5 C           3.7178   -1.5120   22.8962 C.ar    1  UNL1        0.0017
      6 C           3.9618   -1.2744   24.3570 C.ar    1  UNL1        0.0016
      7 C           5.0011   -2.0753   25.0838 C.ar    1  UNL1        0.0188
      8 C           5.7965   -3.1138   24.3498 C.ar    1  UNL1        0.0786
      9 N           6.8793   -4.0504   24.7972 N.ar    1  UNL1       -0.3134
     10 C           2.6784   -0.7111   22.1693 C.2     1  UNL1        0.0048
     11 C           2.3315   -1.0456   20.7489 C.2     1  UNL1        0.0598
     12 C           1.2921   -0.2447   20.0221 C.2     1  UNL1        0.2679
     13 O          -0.0512   -0.0146   20.6487 O.2     1  UNL1       -0.2681
     14 N           1.5960    0.3262   18.6687 N.am    1  UNL1       -0.1934
     15 O           0.5566    1.1271   17.9420 O.3     1  UNL1       -0.2949
     16 H           2.4776    0.1753   18.2574 H       1  UNL1        0.1825
     17 H          -0.2472    1.1798   18.4823 H       1  UNL1        0.2414
     18 C           8.3639   -5.9289   23.6088 C.3     1  UNL1        0.0639
     19 C           8.0884   -7.2655   24.2313 C.3     1  UNL1        0.0079
     20 C           8.6544   -8.1911   26.5921 C.3     1  UNL1        0.0000
     21 C           9.0748   -7.8642   25.1898 C.3     1  UNL1        0.0005
     22 C           7.4387   -4.1526   26.1853 C.3     1  UNL1        0.1245
     23 C           6.6404   -4.8149   27.2688 C.3     1  UNL1        0.0969
     24 N           6.9985   -4.5908   28.7080 N.3     1  UNL1       -0.2711
     25 C           7.1871   -3.1956   29.2255 C.3     1  UNL1        0.0722
     26 C           6.0885   -2.1853   29.0761 C.3     1  UNL1        0.0188
     27 C           7.1680   -5.7620   29.6298 C.3     1  UNL1        0.0722
     28 C           7.0543   -5.5714   31.1133 C.3     1  UNL1        0.0188
@<TRIPOS>BOND
     1    20    21    1
     2    21    19    1
     3    19    18    1
     4    18     1    1
     5     1     2   ar
     6     2     3   ar
     7     3     4   ar
     8     4     5   ar
     9     5    10    1
    10    10    11    2
    11    11    12    1
    12    12    13    2
    13    12    14   am
    14    14    15    1
    15     5     6   ar
    16     6     7   ar
    17     7     8   ar
    18     8     9   ar
    19     9    22    1
    20    22    23    1
    21    23    24    1
    22    24    25    1
    23    25    26    1
    24    24    27    1
    25    27    28    1
    26     9     1   ar
    27     8     3   ar
    28    14    16    1
    29    15    17    1
@<TRIPOS>MOLECULE
*****
 28 29 0 0 0
SMALL
GASTEIGER

@<TRIPOS>ATOM
      1 C           5.1151   -0.8035   21.9185 C.ar    1  UNL1        0.1203
      2 N           5.0271   -1.6409   23.1599 N.ar    1  UNL1       -0.2310
      3 C           6.0109   -2.7658   23.0309 C.ar    1  UNL1        0.0983
      4 C           6.3628   -3.9012   23.9458 C.ar    1  UNL1        0.0206
      5 C           7.4108   -4.8945   23.5395 C.ar    1  UNL1        0.0017
      6 C           8.1069   -4.7524   22.2184 C.ar    1  UNL1        0.0016
      7 C           7.7549   -3.6170   21.3036 C.ar    1  UNL1        0.0188
      8 C           6.7069   -2.6237   21.7098 C.ar    1  UNL1        0.0786
      9 N           6.1533   -1.4109   21.0223 N.ar    1  UNL1       -0.3134
     10 C           7.7628   -6.0300   24.4544 C.2     1  UNL1        0.0048
     11 C           7.2424   -6.0487   25.8610 C.2     1  UNL1        0.0598
     12 C           7.5944   -7.1842   26.7759 C.2     1  UNL1        0.2679
     13 O           8.5880   -6.9771   27.8803 O.2     1  UNL1       -0.2681
     14 N           6.9527   -8.5266   26.5864 N.am    1  UNL1       -0.1934
     15 O           7.3047   -9.6620   27.5012 O.3     1  UNL1       -0.2949
     16 H           6.3005   -8.6625   25.8615 H       1  UNL1        0.1825
     17 H           7.9562   -9.3613   28.1539 H       1  UNL1        0.2414
     18 C           4.3069    0.4255   21.6248 C.3     1  UNL1        0.0639
     19 C           2.8092    0.3712   21.6885 C.3     1  UNL1        0.0079
     20 C           0.9040   -0.3818   20.0906 C.3     1  UNL1        0.0000
     21 C           2.0673   -0.7200   20.9753 C.3     1  UNL1        0.0005
     22 C           6.5656   -0.8960   19.6751 C.3     1  UNL1        0.1245
     23 C           6.0412   -1.5481   18.4303 C.3     1  UNL1        0.0969
     24 N           4.5688   -1.7860   18.2713 N.3     1  UNL1       -0.2711
     25 C           3.7165   -0.7705   17.5697 C.3     1  UNL1        0.0722
     26 C           3.8259    0.6806   17.9335 C.3     1  UNL1        0.0188
     27 C           3.9486   -3.0393   18.8140 C.3     1  UNL1        0.0722
     28 C           4.7552   -4.3014   18.8941 C.3     1  UNL1        0.0188
@<TRIPOS>BOND
     1    20    21    1
     2    21    19    1
     3    19    18    1
     4    18     1    1
     5     1     2   ar
     6     2     3   ar
     7     3     4   ar
     8     4     5   ar
     9     5    10    1
    10    10    11    2
    11    11    12    1
    12    12    13    2
    13    12    14   am
    14    14    15    1
    15     5     6   ar
    16     6     7   ar
    17     7     8   ar
    18     8     9   ar
    19     9    22    1
    20    22    23    1
    21    23    24    1
    22    24    25    1
    23    25    26    1
    24    24    27    1
    25    27    28    1
    26     9     1   ar
    27     8     3   ar
    28    14    16    1
    29    15    17    1
@<TRIPOS>MOLECULE
*****
 28 29 0 0 0
SMALL
GASTEIGER

@<TRIPOS>ATOM
      1 C           3.3942   -1.8902   20.8509 C.ar    1  UNL1        0.1203
      2 N           3.4753   -1.6960   22.3361 N.ar    1  UNL1       -0.2310
      3 C           4.6117   -2.5287   22.8511 C.ar    1  UNL1        0.0983
      4 C           5.1610   -2.7331   24.2318 C.ar    1  UNL1        0.0206
      5 C           6.3315   -3.6464   24.4457 C.ar    1  UNL1        0.0017
      6 C           6.9527   -4.3553   23.2788 C.ar    1  UNL1        0.0016
      7 C           6.4033   -4.1510   21.8981 C.ar    1  UNL1        0.0188
      8 C           5.2328   -3.2377   21.6842 C.ar    1  UNL1        0.0786
      9 N           4.4803   -2.8431   20.4481 N.ar    1  UNL1       -0.3134
     10 C           6.8809   -3.8507   25.8264 C.2     1  UNL1        0.0048
     11 C           6.8481   -5.2134   26.4526 C.2     1  UNL1        0.0598
     12 C           7.3975   -5.4178   27.8333 C.2     1  UNL1        0.2679
     13 O           8.8754   -5.3275   28.0734 O.2     1  UNL1       -0.2681
     14 N           6.4691   -5.7124   28.9740 N.am    1  UNL1       -0.1934
     15 O           7.0185   -5.9168   30.3546 O.3     1  UNL1       -0.2949
     16 H           5.4991   -5.7717   28.8164 H       1  UNL1        0.1825
     17 H           7.9840   -5.8253   30.3352 H       1  UNL1        0.2414
     18 C           2.4012   -1.2449   19.9303 C.3     1  UNL1        0.0639
     19 C           1.1748   -0.5882   20.4913 C.3     1  UNL1        0.0079
     20 C           1.0922    1.0088   18.4436 C.3     1  UNL1        0.0000
     21 C           0.5361    0.5558   19.7611 C.3     1  UNL1        0.0005
     22 C           4.7643   -3.3179   19.0538 C.3     1  UNL1        0.1245
     23 C           5.7655   -2.5933   18.2040 C.3     1  UNL1        0.0969
     24 N           5.9395   -1.1105   18.3495 N.3     1  UNL1       -0.2711
     25 C           5.0326   -0.1727   17.6092 C.3     1  UNL1        0.0722
     26 C           3.9658   -0.7175   16.7064 C.3     1  UNL1        0.0188
     27 C           7.0205   -0.5656   19.2352 C.3     1  UNL1        0.0722
     28 C           6.6690    0.0395   20.5620 C.3     1  UNL1        0.0188
@<TRIPOS>BOND
     1    20    21    1
     2    21    19    1
     3    19    18    1
     4    18     1    1
     5     1     2   ar
     6     2     3   ar
     7     3     4   ar
     8     4     5   ar
     9     5    10    1
    10    10    11    2
    11    11    12    1
    12    12    13    2
    13    12    14   am
    14    14    15    1
    15     5     6   ar
    16     6     7   ar
    17     7     8   ar
    18     8     9   ar
    19     9    22    1
    20    22    23    1
    21    23    24    1
    22    24    25    1
    23    25    26    1
    24    24    27    1
    25    27    28    1
    26     9     1   ar
    27     8     3   ar
    28    14    16    1
    29    15    17    1
@<TRIPOS>MOLECULE
*****
 28 29 0 0 0
SMALL
GASTEIGER

@<TRIPOS>ATOM
      1 C           1.4392    1.6327   26.7036 C.ar    1  UNL1        0.1203
      2 N           2.3883    0.5431   26.3012 N.ar    1  UNL1       -0.2310
      3 C           2.3155    0.3922   24.8106 C.ar    1  UNL1        0.0983
      4 C           3.0260   -0.5238   23.8587 C.ar    1  UNL1        0.0206
      5 C           2.7425   -0.4434   22.3879 C.ar    1  UNL1        0.0017
      6 C           1.7484    0.5529   21.8691 C.ar    1  UNL1        0.0016
      7 C           1.0379    1.4689   22.8210 C.ar    1  UNL1        0.0188
      8 C           1.3215    1.3885   24.2917 C.ar    1  UNL1        0.0786
      9 N           0.7799    2.1552   25.4617 N.ar    1  UNL1       -0.3134
     10 C           3.4530   -1.3594   21.4359 C.2     1  UNL1        0.0048
     11 C           2.8985   -1.5890   20.0613 C.2     1  UNL1        0.0598
     12 C           3.6090   -2.5050   19.1093 C.2     1  UNL1        0.2679
     13 O           4.3044   -1.9424   17.9052 O.2     1  UNL1       -0.2681
     14 N           3.6242   -3.9836   19.3615 N.am    1  UNL1       -0.1934
     15 O           4.3347   -4.8995   18.4095 O.3     1  UNL1       -0.2949
     16 H           3.1678   -4.3529   20.1518 H       1  UNL1        0.1825
     17 H           4.7273   -4.3784   17.6917 H       1  UNL1        0.2414
     18 C           1.1926    2.1152   28.1024 C.3     1  UNL1        0.0639
     19 C          -0.0270    1.6612   28.8483 C.3     1  UNL1        0.0079
     20 C          -1.3473   -0.5763   28.8564 C.3     1  UNL1        0.0000
     21 C          -1.0001    0.7248   28.1955 C.3     1  UNL1        0.0005
     22 C          -0.2417    3.2518   25.4005 C.3     1  UNL1        0.1245
     23 C          -1.6998    2.9140   25.3016 C.3     1  UNL1        0.0969
     24 N          -2.5305    3.4929   24.1950 N.3     1  UNL1       -0.2711
     25 C          -4.0259    3.5123   24.3111 C.3     1  UNL1        0.0722
     26 C          -4.6725    3.8948   25.6094 C.3     1  UNL1        0.0188
     27 C          -1.8659    4.0526   22.9723 C.3     1  UNL1        0.0722
     28 C          -2.1204    3.4328   21.6302 C.3     1  UNL1        0.0188
@<TRIPOS>BOND
     1    20    21    1
     2    21    19    1
     3    19    18    1
     4    18     1    1
     5     1     2   ar
     6     2     3   ar
     7     3     4   ar
     8     4     5   ar
     9     5    10    1
    10    10    11    2
    11    11    12    1
    12    12    13    2
    13    12    14   am
    14    14    15    1
    15     5     6   ar
    16     6     7   ar
    17     7     8   ar
    18     8     9   ar
    19     9    22    1
    20    22    23    1
    21    23    24    1
    22    24    25    1
    23    25    26    1
    24    24    27    1
    25    27    28    1
    26     9     1   ar
    27     8     3   ar
    28    14    16    1
    29    15    17    1
@<TRIPOS>MOLECULE
*****
 28 29 0 0 0
SMALL
GASTEIGER

@<TRIPOS>ATOM
      1 C           6.4414   -3.1411   21.3772 C.ar    1  UNL1        0.1203
      2 N           6.6410   -4.3652   22.2208 N.ar    1  UNL1       -0.2310
      3 C           6.9908   -3.9192   23.6095 C.ar    1  UNL1        0.0983
      4 C           7.2963   -4.6850   24.8626 C.ar    1  UNL1        0.0206
      5 C           7.6185   -3.9510   26.1304 C.ar    1  UNL1        0.0017
      6 C           7.6351   -2.4512   26.1451 C.ar    1  UNL1        0.0016
      7 C           7.3295   -1.6854   24.8921 C.ar    1  UNL1        0.0188
      8 C           7.0074   -2.4194   23.6243 C.ar    1  UNL1        0.0786
      9 N           6.6679   -1.9385   22.2446 N.ar    1  UNL1       -0.3134
     10 C           7.9240   -4.7168   27.3835 C.2     1  UNL1        0.0048
     11 C           6.8374   -4.9856   28.3820 C.2     1  UNL1        0.0598
     12 C           7.1429   -5.7514   29.6351 C.2     1  UNL1        0.2679
     13 O           8.1818   -6.8334   29.6184 O.2     1  UNL1       -0.2681
     14 N           6.4097   -5.4353   30.9049 N.am    1  UNL1       -0.1934
     15 O           6.7153   -6.2011   32.1579 O.3     1  UNL1       -0.2949
     16 H           5.7279   -4.7252   30.9158 H       1  UNL1        0.1825
     17 H           7.4049   -6.8583   31.9751 H       1  UNL1        0.2414
     18 C           6.0790   -3.1227   19.9217 C.3     1  UNL1        0.0639
     19 C           4.6970   -2.7223   19.4979 C.3     1  UNL1        0.0079
     20 C           4.0243   -5.1963   19.0771 C.3     1  UNL1        0.0000
     21 C           3.6362   -3.7671   19.3155 C.3     1  UNL1        0.0005
     22 C           6.5717   -0.5064   21.8090 C.3     1  UNL1        0.1245
     23 C           5.2462    0.1954   21.8261 C.3     1  UNL1        0.0969
     24 N           4.1698   -0.2574   22.7676 N.3     1  UNL1       -0.2711
     25 C           3.0032   -1.0453   22.2498 C.3     1  UNL1        0.0722
     26 C           2.1852   -0.5133   21.1106 C.3     1  UNL1        0.0188
     27 C           4.2601    0.0776   24.2269 C.3     1  UNL1        0.0722
     28 C           3.7490   -0.8910   25.2519 C.3     1  UNL1        0.0188
@<TRIPOS>BOND
     1    20    21    1
     2    21    19    1
     3    19    18    1
     4    18     1    1
     5     1     2   ar
     6     2     3   ar
     7     3     4   ar
     8     4     5   ar
     9     5    10    1
    10    10    11    2
    11    11    12    1
    12    12    13    2
    13    12    14   am
    14    14    15    1
    15     5     6   ar
    16     6     7   ar
    17     7     8   ar
    18     8     9   ar
    19     9    22    1
    20    22    23    1
    21    23    24    1
    22    24    25    1
    23    25    26    1
    24    24    27    1
    25    27    28    1
    26     9     1   ar
    27     8     3   ar
    28    14    16    1
    29    15    17    1
@<TRIPOS>MOLECULE
*****
 28 29 0 0 0
SMALL
GASTEIGER

@<TRIPOS>ATOM
      1 C          -0.4630    2.8153   23.0678 C.ar    1  UNL1        0.1203
      2 N           0.5257    1.7503   23.4398 N.ar    1  UNL1       -0.2310
      3 C           0.9384    1.0418   22.1837 C.ar    1  UNL1        0.0983
      4 C           1.8874   -0.0933   21.9372 C.ar    1  UNL1        0.0206
      5 C           2.1028   -0.6013   20.5425 C.ar    1  UNL1        0.0017
      6 C           1.3693    0.0258   19.3942 C.ar    1  UNL1        0.0016
      7 C           0.4203    1.1609   19.6407 C.ar    1  UNL1        0.0188
      8 C           0.2048    1.6689   21.0354 C.ar    1  UNL1        0.0786
      9 N          -0.6612    2.7650   21.5819 N.ar    1  UNL1       -0.3134
     10 C           3.0519   -1.7365   20.2959 C.2     1  UNL1        0.0048
     11 C           3.4219   -2.1133   18.8920 C.2     1  UNL1        0.0598
     12 C           4.3710   -3.2485   18.6454 C.2     1  UNL1        0.2679
     13 O           5.6458   -3.0101   17.8918 O.2     1  UNL1       -0.2681
     14 N           4.0451   -4.6221   19.1525 N.am    1  UNL1       -0.1934
     15 O           4.9942   -5.7572   18.9059 O.3     1  UNL1       -0.2949
     16 H           3.2084   -4.7786   19.6471 H       1  UNL1        0.1825
     17 H           5.7622   -5.4344   18.4090 H       1  UNL1        0.2414
     18 C          -1.1353    3.7640   24.0154 C.3     1  UNL1        0.0639
     19 C          -2.0488    3.2371   25.0821 C.3     1  UNL1        0.0079
     20 C          -0.7955    1.8345   26.8743 C.3     1  UNL1        0.0000
     21 C          -1.5467    3.0735   26.4860 C.3     1  UNL1        0.0005
     22 C          -1.5667    3.6546   20.7826 C.3     1  UNL1        0.1245
     23 C          -2.9801    3.2343   20.5084 C.3     1  UNL1        0.0969
     24 N          -4.1033    4.2099   20.6999 N.3     1  UNL1       -0.2711
     25 C          -4.4980    5.1282   19.5814 C.3     1  UNL1        0.0722
     26 C          -5.5899    6.1357   19.7881 C.3     1  UNL1        0.0188
     27 C          -4.8318    4.2672   22.0098 C.3     1  UNL1        0.0722
     28 C          -4.9995    3.0224   22.8298 C.3     1  UNL1        0.0188
@<TRIPOS>BOND
     1    20    21    1
     2    21    19    1
     3    19    18    1
     4    18     1    1
     5     1     2   ar
     6     2     3   ar
     7     3     4   ar
     8     4     5   ar
     9     5    10    1
    10    10    11    2
    11    11    12    1
    12    12    13    2
    13    12    14   am
    14    14    15    1
    15     5     6   ar
    16     6     7   ar
    17     7     8   ar
    18     8     9   ar
    19     9    22    1
    20    22    23    1
    21    23    24    1
    22    24    25    1
    23    25    26    1
    24    24    27    1
    25    27    28    1
    26     9     1   ar
    27     8     3   ar
    28    14    16    1
    29    15    17    1
@<TRIPOS>MOLECULE
*****
 28 29 0 0 0
SMALL
GASTEIGER

@<TRIPOS>ATOM
      1 C           7.2428   -3.9849   23.9029 C.ar    1  UNL1        0.1203
      2 N           7.2504   -3.8503   25.3968 N.ar    1  UNL1       -0.2310
      3 C           6.1525   -2.9038   25.7826 C.ar    1  UNL1        0.0983
      4 C           5.6889   -2.3939   27.1148 C.ar    1  UNL1        0.0206
      5 C           4.5393   -1.4335   27.1916 C.ar    1  UNL1        0.0017
      6 C           3.8532   -0.9830   25.9360 C.ar    1  UNL1        0.0016
      7 C           4.3168   -1.4929   24.6037 C.ar    1  UNL1        0.0188
      8 C           5.4665   -2.4533   24.5270 C.ar    1  UNL1        0.0786
      9 N           6.1403   -3.1215   23.3653 N.ar    1  UNL1       -0.3134
     10 C           4.0756   -0.9235   28.5239 C.2     1  UNL1        0.0048
     11 C           2.6139   -0.6970   28.7729 C.2     1  UNL1        0.0598
     12 C           2.1503   -0.1870   30.1053 C.2     1  UNL1        0.2679
     13 O           2.6022   -0.8630   31.3657 O.2     1  UNL1       -0.2681
     14 N           1.2348    0.9990   30.1771 N.am    1  UNL1       -0.1934
     15 O           0.7712    1.5089   31.5094 O.3     1  UNL1       -0.2949
     16 H           0.9381    1.4427   29.3498 H       1  UNL1        0.1825
     17 H           1.1526    0.9634   32.2149 H       1  UNL1        0.2414
     18 C           8.1743   -4.8338   23.0894 C.3     1  UNL1        0.0639
     19 C           9.1243   -5.7718   23.7731 C.3     1  UNL1        0.0079
     20 C           7.9844   -7.6610   25.1448 C.3     1  UNL1        0.0000
     21 C           8.7608   -7.2174   23.9404 C.3     1  UNL1        0.0005
     22 C           5.7756   -2.9554   21.9199 C.3     1  UNL1        0.1245
     23 C           4.5367   -3.6056   21.3794 C.3     1  UNL1        0.0969
     24 N           3.9134   -3.0961   20.1137 N.3     1  UNL1       -0.2711
     25 C           3.6076   -4.0454   18.9933 C.3     1  UNL1        0.0722
     26 C           4.4642   -5.2588   18.7835 C.3     1  UNL1        0.0188
     27 C           3.5958   -1.6373   19.9685 C.3     1  UNL1        0.0722
     28 C           2.2350   -1.1256   20.3378 C.3     1  UNL1        0.0188
@<TRIPOS>BOND
     1    20    21    1
     2    21    19    1
     3    19    18    1
     4    18     1    1
     5     1     2   ar
     6     2     3   ar
     7     3     4   ar
     8     4     5   ar
     9     5    10    1
    10    10    11    2
    11    11    12    1
    12    12    13    2
    13    12    14   am
    14    14    15    1
    15     5     6   ar
    16     6     7   ar
    17     7     8   ar
    18     8     9   ar
    19     9    22    1
    20    22    23    1
    21    23    24    1
    22    24    25    1
    23    25    26    1
    24    24    27    1
    25    27    28    1
    26     9     1   ar
    27     8     3   ar
    28    14    16    1
    29    15    17    1
@<TRIPOS>MOLECULE
*****
 28 29 0 0 0
SMALL
GASTEIGER

@<TRIPOS>ATOM
      1 C          -0.5005    3.0274   25.3207 C.ar    1  UNL1        0.1203
      2 N          -0.6916    2.6158   23.8910 N.ar    1  UNL1       -0.2310
      3 C           0.4647    1.7435   23.5012 C.ar    1  UNL1        0.0983
      4 C           0.8099    1.0488   22.2174 C.ar    1  UNL1        0.0206
      5 C           2.0609    0.2266   22.1224 C.ar    1  UNL1        0.0017
      6 C           2.9666    0.0990   23.3112 C.ar    1  UNL1        0.0016
      7 C           2.6214    0.7936   24.5950 C.ar    1  UNL1        0.0188
      8 C           1.3705    1.6159   24.6900 C.ar    1  UNL1        0.0786
      9 N           0.7739    2.4094   25.8145 N.ar    1  UNL1       -0.3134
     10 C           2.4061   -0.4681   20.8385 C.2     1  UNL1        0.0048
     11 C           3.2816   -1.6859   20.8566 C.2     1  UNL1        0.0598
     12 C           3.6269   -2.3806   19.5727 C.2     1  UNL1        0.2679
     13 O           3.2223   -3.8094   19.3607 O.2     1  UNL1       -0.2681
     14 N           4.3767   -1.6465   18.5009 N.am    1  UNL1       -0.1934
     15 O           4.7219   -2.3412   17.2171 O.3     1  UNL1       -0.2949
     16 H           4.6422   -0.7088   18.6400 H       1  UNL1        0.1825
     17 H           4.3899   -3.2523   17.2430 H       1  UNL1        0.2414
     18 C          -1.4221    3.9031   26.1168 C.3     1  UNL1        0.0639
     19 C          -2.8456    4.0860   25.6809 C.3     1  UNL1        0.0079
     20 C          -4.8438    5.0860   27.0065 C.3     1  UNL1        0.0000
     21 C          -3.9603    3.9212   26.6710 C.3     1  UNL1        0.0005
     22 C           1.3505    2.5586   27.1912 C.3     1  UNL1        0.1245
     23 C           0.6708    1.9147   28.3630 C.3     1  UNL1        0.0969
     24 N           0.5830    0.4198   28.4507 N.3     1  UNL1       -0.2711
     25 C          -0.7470   -0.2621   28.3239 C.3     1  UNL1        0.0722
     26 C          -1.8429    0.0437   29.3014 C.3     1  UNL1        0.0188
     27 C           1.8252   -0.3932   28.6652 C.3     1  UNL1        0.0722
     28 C           2.3937   -0.5442   30.0451 C.3     1  UNL1        0.0188
@<TRIPOS>BOND
     1    20    21    1
     2    21    19    1
     3    19    18    1
     4    18     1    1
     5     1     2   ar
     6     2     3   ar
     7     3     4   ar
     8     4     5   ar
     9     5    10    1
    10    10    11    2
    11    11    12    1
    12    12    13    2
    13    12    14   am
    14    14    15    1
    15     5     6   ar
    16     6     7   ar
    17     7     8   ar
    18     8     9   ar
    19     9    22    1
    20    22    23    1
    21    23    24    1
    22    24    25    1
    23    25    26    1
    24    24    27    1
    25    27    28    1
    26     9     1   ar
    27     8     3   ar
    28    14    16    1
    29    15    17    1
