@<TRIPOS>MOLECULE
*****
 34 38 0 0 0
SMALL
GASTEIGER

@<TRIPOS>ATOM
      1 C          -4.8300  -19.4726   21.0581 C.2     1  UNL1        0.2508
      2 O          -5.0361  -20.4409   19.9313 O.2     1  UNL1       -0.2727
      3 N          -3.6915  -18.4971   21.0099 N.am    1  UNL1       -0.2730
      4 C          -2.6831  -18.3728   19.9064 C.3     1  UNL1        0.0759
      5 C          -1.5565  -18.0193   18.9813 C.3     1  UNL1        0.0215
      6 C          -1.7299  -17.2736   20.2712 C.3     1  UNL1        0.0220
      7 C          -2.1491  -16.7186   21.6002 C.3     1  UNL1        0.0309
      8 C          -3.3615  -17.4748   22.0568 C.3     1  UNL1        0.1521
      9 C          -4.1120  -17.2483   23.3356 C.2     1  UNL1        0.2452
     10 O          -3.8100  -18.0882   24.5412 O.2     1  UNL1       -0.2730
     11 N          -5.1645  -16.1821   23.4088 N.am    1  UNL1       -0.2680
     12 H          -5.3627  -15.6309   22.6175 H       1  UNL1        0.1563
     13 C          -5.9150  -15.9557   24.6876 C.ar    1  UNL1        0.1347
     14 C          -5.3589  -15.0315   25.7301 C.ar    1  UNL1        0.0345
     15 C          -6.1094  -14.8051   27.0089 C.ar    1  UNL1        0.0049
     16 C          -7.4161  -15.5028   27.2453 C.ar    1  UNL1        0.0261
     17 C          -7.9722  -16.4270   26.2029 C.ar    1  UNL1        0.1168
     18 BR         -9.2789  -17.1247   26.4393 Br      1  UNL1       -0.0280
     19 N          -7.2216  -16.6534   24.9241 N.ar    1  UNL1       -0.2238
     20 C          -5.7624  -19.4796   22.2332 C.3     1  UNL1        0.2120
     21 C          -8.7393  -17.0613   21.6378 C.ar    1  UNL1        0.1552
     22 N          -7.3003  -17.4395   21.4474 N.ar    1  UNL1       -0.1642
     23 N          -7.0634  -18.7364   22.1627 N.ar    1  UNL1       -0.2414
     24 C          -8.3560  -19.1598   22.7953 C.ar    1  UNL1        0.0800
     25 C          -8.7236  -20.3543   23.6248 C.ar    1  UNL1        0.0188
     26 C         -10.1269  -20.5134   24.1298 C.ar    1  UNL1        0.0015
     27 C         -11.1627  -19.4781   23.8054 C.ar    1  UNL1        0.0001
     28 C         -10.7951  -18.2836   22.9759 C.ar    1  UNL1        0.0032
     29 C          -9.3917  -18.1245   22.4709 C.ar    1  UNL1        0.0411
     30 N          -8.7146  -14.5071   21.1627 N.am    1  UNL1       -0.3240
     31 C          -9.4085  -15.8351   21.0912 C.2     1  UNL1        0.2623
     32 O         -10.7713  -15.9369   20.4731 O.2     1  UNL1       -0.2687
     33 H          -9.1538  -13.7023   20.8039 H       1  UNL1        0.1453
     34 H          -7.8201  -14.4402   21.5684 H       1  UNL1        0.1453
@<TRIPOS>BOND
     1    30    31   am
     2    31    32    2
     3    31    21    1
     4    21    22   ar
     5    22    23   ar
     6    23    20    1
     7    20     1    1
     8     1     2    2
     9     1     3   am
    10     3     4    1
    11     4     5    1
    12     6     5    1
    13     6     7    1
    14     7     8    1
    15     8     9    1
    16     9    10    2
    17     9    11   am
    18    11    13    1
    19    13    14   ar
    20    14    15   ar
    21    15    16   ar
    22    16    17   ar
    23    17    18    1
    24    17    19   ar
    25    23    24   ar
    26    24    25   ar
    27    25    26   ar
    28    26    27   ar
    29    27    28   ar
    30    28    29   ar
    31    29    21   ar
    32     8     3    1
    33    19    13   ar
    34    29    24   ar
    35     6     4    1
    36    30    33    1
    37    30    34    1
    38    11    12    1
@<TRIPOS>MOLECULE
*****
 34 38 0 0 0
SMALL
GASTEIGER

@<TRIPOS>ATOM
      1 C          -8.2184  -16.6184   24.6019 C.2     1  UNL1        0.2508
      2 O          -9.6196  -16.9300   25.0371 O.2     1  UNL1       -0.2727
      3 N          -7.2913  -15.8861   25.5262 N.am    1  UNL1       -0.2730
      4 C          -7.6224  -15.4048   26.9077 C.3     1  UNL1        0.0759
      5 C          -7.6579  -14.8185   28.2879 C.3     1  UNL1        0.0215
      6 C          -6.4061  -14.7278   27.4666 C.3     1  UNL1        0.0220
      7 C          -5.3233  -14.7908   26.4304 C.3     1  UNL1        0.0309
      8 C          -5.8704  -15.5066   25.2312 C.3     1  UNL1        0.1521
      9 C          -5.1271  -15.7928   23.9601 C.2     1  UNL1        0.2452
     10 O          -5.1810  -14.8154   22.8234 O.2     1  UNL1       -0.2730
     11 N          -4.3299  -17.0562   23.8256 N.am    1  UNL1       -0.2680
     12 H          -4.2945  -17.6977   24.5716 H       1  UNL1        0.1563
     13 C          -3.5866  -17.3423   22.5545 C.ar    1  UNL1        0.1347
     14 C          -2.3982  -16.5085   22.1767 C.ar    1  UNL1        0.0345
     15 C          -1.6549  -16.7947   20.9056 C.ar    1  UNL1        0.0049
     16 C          -2.1000  -17.9146   20.0124 C.ar    1  UNL1        0.0261
     17 C          -3.2883  -18.7483   20.3903 C.ar    1  UNL1        0.1168
     18 BR         -3.7333  -19.8683   19.4971 Br      1  UNL1       -0.0280
     19 N          -4.0316  -18.4622   21.6613 N.ar    1  UNL1       -0.2238
     20 C          -7.7442  -17.0390   23.2423 C.3     1  UNL1        0.2120
     21 C         -10.7201  -17.2508   20.7595 C.ar    1  UNL1        0.1552
     22 N         -10.0522  -16.6384   21.9548 N.ar    1  UNL1       -0.1642
     23 N          -8.7390  -17.3339   22.1591 N.ar    1  UNL1       -0.2414
     24 C          -8.5953  -18.3762   21.0900 C.ar    1  UNL1        0.0800
     25 C          -7.5077  -19.3654   20.7924 C.ar    1  UNL1        0.0188
     26 C          -7.6445  -20.3032   19.6297 C.ar    1  UNL1        0.0015
     27 C          -8.8688  -20.2518   18.7647 C.ar    1  UNL1        0.0001
     28 C          -9.9564  -19.2626   19.0623 C.ar    1  UNL1        0.0032
     29 C          -9.8196  -18.3248   20.2249 C.ar    1  UNL1        0.0411
     30 N         -12.1286  -15.9319   19.0196 N.am    1  UNL1       -0.3240
     31 C         -12.0541  -16.8581   20.1973 C.2     1  UNL1        0.2623
     32 O         -13.3138  -17.3915   20.8126 O.2     1  UNL1       -0.2687
     33 H         -13.0042  -15.6742   18.6506 H       1  UNL1        0.1453
     34 H         -11.3018  -15.5818   18.6157 H       1  UNL1        0.1453
@<TRIPOS>BOND
     1    30    31   am
     2    31    32    2
     3    31    21    1
     4    21    22   ar
     5    22    23   ar
     6    23    20    1
     7    20     1    1
     8     1     2    2
     9     1     3   am
    10     3     4    1
    11     4     5    1
    12     6     5    1
    13     6     7    1
    14     7     8    1
    15     8     9    1
    16     9    10    2
    17     9    11   am
    18    11    13    1
    19    13    14   ar
    20    14    15   ar
    21    15    16   ar
    22    16    17   ar
    23    17    18    1
    24    17    19   ar
    25    23    24   ar
    26    24    25   ar
    27    25    26   ar
    28    26    27   ar
    29    27    28   ar
    30    28    29   ar
    31    29    21   ar
    32     8     3    1
    33    19    13   ar
    34    29    24   ar
    35     6     4    1
    36    30    33    1
    37    30    34    1
    38    11    12    1
@<TRIPOS>MOLECULE
*****
 34 38 0 0 0
SMALL
GASTEIGER

@<TRIPOS>ATOM
      1 C          -5.7630  -16.2946   24.6163 C.2     1  UNL1        0.2508
      2 O          -4.3214  -16.0208   24.9273 O.2     1  UNL1       -0.2727
      3 N          -6.8325  -15.8613   25.5747 N.am    1  UNL1       -0.2730
      4 C          -6.6138  -15.1486   26.8763 C.3     1  UNL1        0.0759
      5 C          -6.7079  -14.4477   28.1991 C.3     1  UNL1        0.0215
      6 C          -7.9545  -14.9115   27.5059 C.3     1  UNL1        0.0220
      7 C          -9.0017  -15.4778   26.5933 C.3     1  UNL1        0.0309
      8 C          -8.3083  -16.0648   25.3998 C.3     1  UNL1        0.1521
      9 C          -8.9738  -16.7372   24.2358 C.2     1  UNL1        0.2452
     10 O          -9.3096  -18.1976   24.3049 O.2     1  UNL1       -0.2730
     11 N          -9.3035  -15.9494   23.0027 N.am    1  UNL1       -0.2680
     12 H          -9.0831  -14.9909   22.9574 H       1  UNL1        0.1563
     13 C          -9.9690  -16.6218   21.8387 C.ar    1  UNL1        0.1347
     14 C         -11.2980  -16.1293   21.3475 C.ar    1  UNL1        0.0345
     15 C         -11.9635  -16.8017   20.1835 C.ar    1  UNL1        0.0049
     16 C         -11.3000  -17.9666   19.5106 C.ar    1  UNL1        0.0261
     17 C          -9.9710  -18.4591   20.0018 C.ar    1  UNL1        0.1168
     18 BR         -9.3075  -19.6241   19.3289 Br      1  UNL1       -0.0280
     19 N          -9.3055  -17.7867   21.1658 N.ar    1  UNL1       -0.2238
     20 C          -6.1353  -17.0016   23.3467 C.3     1  UNL1        0.2120
     21 C          -2.9602  -18.0333   21.3670 C.ar    1  UNL1        0.1552
     22 N          -3.6835  -17.0939   22.2859 N.ar    1  UNL1       -0.1642
     23 N          -5.0695  -17.6273   22.4966 N.ar    1  UNL1       -0.2414
     24 C          -5.2028  -18.8963   21.7079 C.ar    1  UNL1        0.0800
     25 C          -6.3428  -19.8557   21.5353 C.ar    1  UNL1        0.0188
     26 C          -6.1791  -21.0660   20.6646 C.ar    1  UNL1        0.0015
     27 C          -4.8754  -21.3170   19.9664 C.ar    1  UNL1        0.0001
     28 C          -3.7354  -20.3575   20.1390 C.ar    1  UNL1        0.0032
     29 C          -3.8991  -19.1472   21.0098 C.ar    1  UNL1        0.0411
     30 N          -0.8943  -16.5337   20.8833 N.am    1  UNL1       -0.3240
     31 C          -1.5461  -17.8848   20.8891 C.2     1  UNL1        0.2623
     32 O          -0.7837  -19.0872   20.4171 O.2     1  UNL1       -0.2687
     33 H           0.0338  -16.4363   20.5696 H       1  UNL1        0.1453
     34 H          -1.3946  -15.7445   21.1931 H       1  UNL1        0.1453
@<TRIPOS>BOND
     1    30    31   am
     2    31    32    2
     3    31    21    1
     4    21    22   ar
     5    22    23   ar
     6    23    20    1
     7    20     1    1
     8     1     2    2
     9     1     3   am
    10     3     4    1
    11     4     5    1
    12     6     5    1
    13     6     7    1
    14     7     8    1
    15     8     9    1
    16     9    10    2
    17     9    11   am
    18    11    13    1
    19    13    14   ar
    20    14    15   ar
    21    15    16   ar
    22    16    17   ar
    23    17    18    1
    24    17    19   ar
    25    23    24   ar
    26    24    25   ar
    27    25    26   ar
    28    26    27   ar
    29    27    28   ar
    30    28    29   ar
    31    29    21   ar
    32     8     3    1
    33    19    13   ar
    34    29    24   ar
    35     6     4    1
    36    30    33    1
    37    30    34    1
    38    11    12    1
@<TRIPOS>MOLECULE
*****
 34 38 0 0 0
SMALL
GASTEIGER

@<TRIPOS>ATOM
      1 C         -14.1441   -3.2324   19.5879 C.2     1  UNL1        0.2508
      2 O         -12.9711   -2.4131   20.0382 O.2     1  UNL1       -0.2727
      3 N         -15.5221   -2.6398   19.6007 N.am    1  UNL1       -0.2730
      4 C         -15.8798   -1.2493   20.0350 C.3     1  UNL1        0.0759
      5 C         -16.5298    0.0530   20.3974 C.3     1  UNL1        0.0215
      6 C         -17.3630   -1.0838   19.8842 C.3     1  UNL1        0.0220
      7 C         -17.9219   -2.3720   19.3568 C.3     1  UNL1        0.0309
      8 C         -16.7841   -3.3337   19.1816 C.3     1  UNL1        0.1521
      9 C         -16.8899   -4.7419   18.6761 C.2     1  UNL1        0.2452
     10 O         -16.7867   -5.0207   17.2058 O.2     1  UNL1       -0.2730
     11 N         -17.0989   -5.8714   19.6407 N.am    1  UNL1       -0.2680
     12 H         -17.1667   -5.6884   20.6057 H       1  UNL1        0.1563
     13 C         -17.2047   -7.2797   19.1352 C.ar    1  UNL1        0.1347
     14 C         -15.9905   -8.1601   19.1084 C.ar    1  UNL1        0.0345
     15 C         -16.0963   -9.5684   18.6029 C.ar    1  UNL1        0.0049
     16 C         -17.4163  -10.0962   18.1241 C.ar    1  UNL1        0.0261
     17 C         -18.6304   -9.2158   18.1509 C.ar    1  UNL1        0.1168
     18 BR        -19.9504   -9.7436   17.6722 Br      1  UNL1       -0.0280
     19 N         -18.5246   -7.8075   18.6565 N.ar    1  UNL1       -0.2238
     20 C         -13.9392   -4.6444   19.1247 C.3     1  UNL1        0.2120
     21 C         -10.5597   -6.4706   18.5689 C.ar    1  UNL1        0.1552
     22 N         -11.9291   -6.4055   19.1775 N.ar    1  UNL1       -0.1642
     23 N         -12.5670   -5.1181   18.7469 N.ar    1  UNL1       -0.2414
     24 C         -11.5919   -4.3874   17.8722 C.ar    1  UNL1        0.0800
     25 C         -11.6733   -3.0689   17.1616 C.ar    1  UNL1        0.0188
     26 C         -10.5141   -2.5863   16.3410 C.ar    1  UNL1        0.0015
     27 C          -9.2735   -3.4223   16.2310 C.ar    1  UNL1        0.0001
     28 C          -9.1921   -4.7407   16.9416 C.ar    1  UNL1        0.0032
     29 C         -10.3512   -5.2233   17.7621 C.ar    1  UNL1        0.0411
     30 N          -8.5221   -7.5046   19.8057 N.am    1  UNL1       -0.3240
     31 C          -9.5720   -7.5869   18.7374 C.2     1  UNL1        0.2623
     32 O          -9.6342   -8.7855   17.8378 O.2     1  UNL1       -0.2687
     33 H          -7.8739   -8.2373   19.9163 H       1  UNL1        0.1453
     34 H          -8.4813   -6.7179   20.3962 H       1  UNL1        0.1453
@<TRIPOS>BOND
     1    30    31   am
     2    31    32    2
     3    31    21    1
     4    21    22   ar
     5    22    23   ar
     6    23    20    1
     7    20     1    1
     8     1     2    2
     9     1     3   am
    10     3     4    1
    11     4     5    1
    12     6     5    1
    13     6     7    1
    14     7     8    1
    15     8     9    1
    16     9    10    2
    17     9    11   am
    18    11    13    1
    19    13    14   ar
    20    14    15   ar
    21    15    16   ar
    22    16    17   ar
    23    17    18    1
    24    17    19   ar
    25    23    24   ar
    26    24    25   ar
    27    25    26   ar
    28    26    27   ar
    29    27    28   ar
    30    28    29   ar
    31    29    21   ar
    32     8     3    1
    33    19    13   ar
    34    29    24   ar
    35     6     4    1
    36    30    33    1
    37    30    34    1
    38    11    12    1
