@<TRIPOS>MOLECULE
*****
 27 29 0 0 0
SMALL
GASTEIGER

@<TRIPOS>ATOM
      1 C           5.6791   -1.8371   32.1983 C.ar    1  UNL1        0.1103
      2 C           5.6367   -1.3251   30.7891 C.ar    1  UNL1        0.0187
      3 C           6.1591   -2.1727   29.6672 C.ar    1  UNL1        0.0013
      4 C           6.7239   -3.5323   29.9546 C.ar    1  UNL1        0.0001
      5 C           6.7663   -4.0442   31.3639 C.ar    1  UNL1        0.0013
      6 C           6.2439   -3.1966   32.4857 C.ar    1  UNL1        0.0187
      7 O           6.4336   -0.2025   33.3204 O.2     1  UNL1       -0.1642
      8 S           5.1566   -0.9895   33.3203 S.O2    1  UNL1        0.0272
      9 O           3.8797   -1.7764   33.3202 O.2     1  UNL1       -0.1642
     10 C           4.6342   -0.1419   34.4422 C.ar    1  UNL1        0.1086
     11 C           5.0179   -0.4529   35.8586 C.ar    1  UNL1        0.0185
     12 C           4.4954    0.3946   36.9805 C.ar    1  UNL1        0.0013
     13 C           3.5893    1.5532   36.6861 C.ar    1  UNL1       -0.0002
     14 C           3.2057    1.8642   35.2697 C.ar    1  UNL1       -0.0006
     15 C           3.7281    1.0167   34.1477 C.ar    1  UNL1        0.0244
     16 C           3.3445    1.3277   32.7314 C.3     1  UNL1        0.1649
     17 O           2.2024    0.5997   32.0866 O.3     1  UNL1       -0.3772
     18 H           2.4298   -0.3384   31.9909 H       1  UNL1        0.2109
     19 C           7.2463   -4.3799   28.8327 C.2     1  UNL1        0.0000
     20 C           6.5306   -4.4037   27.5147 C.2     1  UNL1        0.0000
     21 C           7.0530   -5.2513   26.3927 C.ar    1  UNL1        0.0001
     22 C           7.2311   -6.7278   26.5883 C.ar    1  UNL1        0.0023
     23 C           7.7535   -7.5753   25.4664 C.ar    1  UNL1        0.0296
     24 C           8.0978   -6.9464   24.1489 C.ar    1  UNL1        0.1401
     25 F           8.6202   -7.7940   23.0269 F       1  UNL1       -0.2042
     26 C           7.9198   -5.4699   23.9533 C.ar    1  UNL1        0.0296
     27 C           7.3974   -4.6224   25.0752 C.ar    1  UNL1        0.0023
@<TRIPOS>BOND
     1     7     8    2
     2     8     9    2
     3     8     1    1
     4     1     2   ar
     5     2     3   ar
     6     3     4   ar
     7     4    19    1
     8    19    20    2
     9    20    21    1
    10    21    22   ar
    11    22    23   ar
    12    23    24   ar
    13    24    25    1
    14    24    26   ar
    15    26    27   ar
    16     4     5   ar
    17     5     6   ar
    18     8    10    1
    19    10    11   ar
    20    11    12   ar
    21    12    13   ar
    22    13    14   ar
    23    14    15   ar
    24    15    16    1
    25    16    17    1
    26     6     1   ar
    27    15    10   ar
    28    27    21   ar
    29    17    18    1
@<TRIPOS>MOLECULE
*****
 27 29 0 0 0
SMALL
GASTEIGER

@<TRIPOS>ATOM
      1 C           6.8512   -4.3049   29.4284 C.ar    1  UNL1        0.1103
      2 C           6.3587   -2.8937   29.3027 C.ar    1  UNL1        0.0187
      3 C           5.9928   -2.1148   30.5313 C.ar    1  UNL1        0.0013
      4 C           6.1194   -2.7471   31.8856 C.ar    1  UNL1        0.0001
      5 C           6.6119   -4.1584   32.0113 C.ar    1  UNL1        0.0013
      6 C           6.9778   -4.9372   30.7827 C.ar    1  UNL1        0.0187
      7 O           5.7723   -5.4253   27.9859 O.2     1  UNL1       -0.1642
      8 S           7.2171   -5.0839   28.1998 S.O2    1  UNL1        0.0272
      9 O           8.6620   -4.7424   28.4137 O.2     1  UNL1       -0.1642
     10 C           7.5831   -5.8628   26.9713 C.ar    1  UNL1        0.1086
     11 C           7.9864   -7.3028   27.0887 C.ar    1  UNL1        0.0185
     12 C           8.3524   -8.0817   25.8602 C.ar    1  UNL1        0.0013
     13 C           8.3150   -7.4207   24.5142 C.ar    1  UNL1       -0.0002
     14 C           7.9117   -5.9807   24.3968 C.ar    1  UNL1       -0.0006
     15 C           7.5457   -5.2017   25.6253 C.ar    1  UNL1        0.0244
     16 C           7.1424   -3.7618   25.5079 C.3     1  UNL1        0.1649
     17 O           5.6942   -3.3794   25.5895 O.3     1  UNL1       -0.3772
     18 H           5.2201   -3.7436   24.8256 H       1  UNL1        0.2109
     19 C           5.7535   -1.9682   33.1142 C.2     1  UNL1        0.0000
     20 C           4.8070   -0.8089   33.0130 C.2     1  UNL1        0.0000
     21 C           4.4411   -0.0300   34.2416 C.ar    1  UNL1        0.0001
     22 C           4.9088   -0.4923   35.5897 C.ar    1  UNL1        0.0023
     23 C           4.5429    0.2867   36.8182 C.ar    1  UNL1        0.0296
     24 C           3.7093    1.5279   36.6986 C.ar    1  UNL1        0.1401
     25 F           3.3433    2.3069   37.9272 F       1  UNL1       -0.2042
     26 C           3.2416    1.9903   35.3505 C.ar    1  UNL1        0.0296
     27 C           3.6075    1.2113   34.1220 C.ar    1  UNL1        0.0023
@<TRIPOS>BOND
     1     7     8    2
     2     8     9    2
     3     8     1    1
     4     1     2   ar
     5     2     3   ar
     6     3     4   ar
     7     4    19    1
     8    19    20    2
     9    20    21    1
    10    21    22   ar
    11    22    23   ar
    12    23    24   ar
    13    24    25    1
    14    24    26   ar
    15    26    27   ar
    16     4     5   ar
    17     5     6   ar
    18     8    10    1
    19    10    11   ar
    20    11    12   ar
    21    12    13   ar
    22    13    14   ar
    23    14    15   ar
    24    15    16    1
    25    16    17    1
    26     6     1   ar
    27    15    10   ar
    28    27    21   ar
    29    17    18    1
@<TRIPOS>MOLECULE
*****
 27 29 0 0 0
SMALL
GASTEIGER

@<TRIPOS>ATOM
      1 C           7.3204   -4.7101   28.4807 C.ar    1  UNL1        0.1103
      2 C           7.2928   -5.5695   29.7098 C.ar    1  UNL1        0.0187
      3 C           6.9130   -4.9739   31.0330 C.ar    1  UNL1        0.0013
      4 C           6.5608   -3.5189   31.1272 C.ar    1  UNL1        0.0001
      5 C           6.5885   -2.6594   29.8981 C.ar    1  UNL1        0.0013
      6 C           6.9683   -3.2551   28.5749 C.ar    1  UNL1        0.0187
      7 O           6.3532   -5.9591   27.0648 O.2     1  UNL1       -0.1642
      8 S           7.7002   -5.3057   27.1574 S.O2    1  UNL1        0.0272
      9 O           9.0472   -4.6524   27.2500 O.2     1  UNL1       -0.1642
     10 C           8.0800   -5.9013   25.8342 C.ar    1  UNL1        0.1086
     11 C           7.9302   -5.0951   24.5781 C.ar    1  UNL1        0.0185
     12 C           8.3100   -5.6907   23.2549 C.ar    1  UNL1        0.0013
     13 C           8.8397   -7.0924   23.1877 C.ar    1  UNL1       -0.0002
     14 C           8.9896   -7.8986   24.4436 C.ar    1  UNL1       -0.0006
     15 C           8.6098   -7.3030   25.7670 C.ar    1  UNL1        0.0244
     16 C           8.7596   -8.1092   27.0230 C.3     1  UNL1        0.1649
     17 O           7.5837   -8.8554   27.5801 O.3     1  UNL1       -0.3772
     18 H           6.9087   -8.2232   27.8726 H       1  UNL1        0.2109
     19 C           6.1810   -2.9232   32.4505 C.2     1  UNL1        0.0000
     20 C           6.5155   -1.4926   32.7527 C.2     1  UNL1        0.0000
     21 C           6.1357   -0.8970   34.0760 C.ar    1  UNL1        0.0001
     22 C           4.7204   -0.9938   34.5636 C.ar    1  UNL1        0.0023
     23 C           4.3407   -0.3982   35.8868 C.ar    1  UNL1        0.0296
     24 C           5.3762    0.2942   36.7225 C.ar    1  UNL1        0.1401
     25 F           4.9964    0.8899   38.0458 F       1  UNL1       -0.2042
     26 C           6.7914    0.3910   36.2349 C.ar    1  UNL1        0.0296
     27 C           7.1711   -0.2046   34.9117 C.ar    1  UNL1        0.0023
@<TRIPOS>BOND
     1     7     8    2
     2     8     9    2
     3     8     1    1
     4     1     2   ar
     5     2     3   ar
     6     3     4   ar
     7     4    19    1
     8    19    20    2
     9    20    21    1
    10    21    22   ar
    11    22    23   ar
    12    23    24   ar
    13    24    25    1
    14    24    26   ar
    15    26    27   ar
    16     4     5   ar
    17     5     6   ar
    18     8    10    1
    19    10    11   ar
    20    11    12   ar
    21    12    13   ar
    22    13    14   ar
    23    14    15   ar
    24    15    16    1
    25    16    17    1
    26     6     1   ar
    27    15    10   ar
    28    27    21   ar
    29    17    18    1
@<TRIPOS>MOLECULE
*****
 27 29 0 0 0
SMALL
GASTEIGER

@<TRIPOS>ATOM
      1 C           3.9280   -0.3831   30.1337 C.ar    1  UNL1        0.1103
      2 C           2.6047   -0.1247   29.4764 C.ar    1  UNL1        0.0187
      3 C           2.4506   -0.3220   27.9975 C.ar    1  UNL1        0.0013
      4 C           3.6199   -0.7778   27.1758 C.ar    1  UNL1        0.0001
      5 C           4.9432   -1.0362   27.8331 C.ar    1  UNL1        0.0013
      6 C           5.0972   -0.8389   29.3120 C.ar    1  UNL1        0.0187
      7 O           2.6062   -0.3839   31.7929 O.2     1  UNL1       -0.1642
      8 S           4.0821   -0.1858   31.6127 S.O2    1  UNL1        0.0272
      9 O           5.5579    0.0123   31.4324 O.2     1  UNL1       -0.1642
     10 C           4.2362    0.0115   33.0916 C.ar    1  UNL1        0.1086
     11 C           4.1455    1.3893   33.6779 C.ar    1  UNL1        0.0185
     12 C           4.2997    1.5866   35.1569 C.ar    1  UNL1        0.0013
     13 C           4.5445    0.4062   36.0495 C.ar    1  UNL1       -0.0002
     14 C           4.6352   -0.9714   35.4633 C.ar    1  UNL1       -0.0006
     15 C           4.4810   -1.1688   33.9843 C.ar    1  UNL1        0.0244
     16 C           4.5717   -2.5465   33.3980 C.3     1  UNL1        0.1649
     17 O           3.5452   -3.5813   33.7520 O.3     1  UNL1       -0.3772
     18 H           3.6187   -3.8006   34.6940 H       1  UNL1        0.2109
     19 C           3.4658   -0.9751   25.6968 C.2     1  UNL1        0.0000
     20 C           4.3718   -1.9228   24.9682 C.2     1  UNL1        0.0000
     21 C           4.2177   -2.1201   23.4892 C.ar    1  UNL1        0.0001
     22 C           4.8041   -3.3327   22.8292 C.ar    1  UNL1        0.0023
     23 C           4.6500   -3.5300   21.3503 C.ar    1  UNL1        0.0296
     24 C           3.9094   -2.5147   20.5313 C.ar    1  UNL1        0.1401
     25 F           3.7553   -2.7120   19.0523 F       1  UNL1       -0.2042
     26 C           3.3230   -1.3021   21.1913 C.ar    1  UNL1        0.0296
     27 C           3.4771   -1.1048   22.6702 C.ar    1  UNL1        0.0023
@<TRIPOS>BOND
     1     7     8    2
     2     8     9    2
     3     8     1    1
     4     1     2   ar
     5     2     3   ar
     6     3     4   ar
     7     4    19    1
     8    19    20    2
     9    20    21    1
    10    21    22   ar
    11    22    23   ar
    12    23    24   ar
    13    24    25    1
    14    24    26   ar
    15    26    27   ar
    16     4     5   ar
    17     5     6   ar
    18     8    10    1
    19    10    11   ar
    20    11    12   ar
    21    12    13   ar
    22    13    14   ar
    23    14    15   ar
    24    15    16    1
    25    16    17    1
    26     6     1   ar
    27    15    10   ar
    28    27    21   ar
    29    17    18    1
@<TRIPOS>MOLECULE
*****
 27 29 0 0 0
SMALL
GASTEIGER

@<TRIPOS>ATOM
      1 C          -3.1758    4.0652   23.5424 C.ar    1  UNL1        0.1103
      2 C          -1.8936    3.6480   24.1995 C.ar    1  UNL1        0.0187
      3 C          -0.7887    3.0533   23.3777 C.ar    1  UNL1        0.0013
      4 C          -0.9659    2.8758   21.8988 C.ar    1  UNL1        0.0001
      5 C          -2.2481    3.2930   21.2417 C.ar    1  UNL1        0.0013
      6 C          -3.3531    3.8878   22.0635 C.ar    1  UNL1        0.0187
      7 O          -4.7098    3.2849   24.7827 O.2     1  UNL1       -0.1642
      8 S          -4.2808    4.6600   24.3642 S.O2    1  UNL1        0.0272
      9 O          -3.8519    6.0350   23.9457 O.2     1  UNL1       -0.1642
     10 C          -5.3858    5.2548   25.1859 C.ar    1  UNL1        0.1086
     11 C          -5.1227    5.6821   26.5995 C.ar    1  UNL1        0.0185
     12 C          -6.2276    6.2769   27.4212 C.ar    1  UNL1        0.0013
     13 C          -7.5957    6.4443   26.8295 C.ar    1  UNL1       -0.0002
     14 C          -7.8589    6.0170   25.4159 C.ar    1  UNL1       -0.0006
     15 C          -6.7539    5.4222   24.5941 C.ar    1  UNL1        0.0244
     16 C          -7.0171    4.9948   23.1806 C.3     1  UNL1        0.1649
     17 O          -7.9610    3.8627   22.9027 O.3     1  UNL1       -0.3772
     18 H          -7.5901    3.0386   23.2551 H       1  UNL1        0.2109
     19 C           0.1391    2.2810   21.0770 C.2     1  UNL1        0.0000
     20 C           0.1954    0.7984   20.8567 C.2     1  UNL1        0.0000
     21 C           1.3004    0.2037   20.0349 C.ar    1  UNL1        0.0001
     22 C           1.6581    0.8080   18.7095 C.ar    1  UNL1        0.0023
     23 C           2.7631    0.2133   17.8878 C.ar    1  UNL1        0.0296
     24 C           3.5103   -0.9859   18.3915 C.ar    1  UNL1        0.1401
     25 F           4.6154   -1.5806   17.5697 F       1  UNL1       -0.2042
     26 C           3.1526   -1.5902   19.7169 C.ar    1  UNL1        0.0296
     27 C           2.0476   -0.9955   20.5386 C.ar    1  UNL1        0.0023
@<TRIPOS>BOND
     1     7     8    2
     2     8     9    2
     3     8     1    1
     4     1     2   ar
     5     2     3   ar
     6     3     4   ar
     7     4    19    1
     8    19    20    2
     9    20    21    1
    10    21    22   ar
    11    22    23   ar
    12    23    24   ar
    13    24    25    1
    14    24    26   ar
    15    26    27   ar
    16     4     5   ar
    17     5     6   ar
    18     8    10    1
    19    10    11   ar
    20    11    12   ar
    21    12    13   ar
    22    13    14   ar
    23    14    15   ar
    24    15    16    1
    25    16    17    1
    26     6     1   ar
    27    15    10   ar
    28    27    21   ar
    29    17    18    1
@<TRIPOS>MOLECULE
*****
 27 29 0 0 0
SMALL
GASTEIGER

@<TRIPOS>ATOM
      1 C           0.5006    2.4127   29.4276 C.ar    1  UNL1        0.1103
      2 C          -0.1797    1.2371   28.7910 C.ar    1  UNL1        0.0187
      3 C          -0.8597    1.3928   27.4631 C.ar    1  UNL1        0.0013
      4 C          -0.8594    2.7241   26.7719 C.ar    1  UNL1        0.0001
      5 C          -0.1790    3.8996   27.4085 C.ar    1  UNL1        0.0013
      6 C           0.5009    3.7439   28.7363 C.ar    1  UNL1        0.0187
      7 O           0.0592    1.3795   31.2271 O.2     1  UNL1       -0.1642
      8 S           1.1807    2.2570   30.7556 S.O2    1  UNL1        0.0272
      9 O           2.3021    3.1345   30.2841 O.2     1  UNL1       -0.1642
     10 C           1.8607    2.1014   32.0835 C.ar    1  UNL1        0.1086
     11 C           1.5756    3.0726   33.1905 C.ar    1  UNL1        0.0185
     12 C           2.2557    2.9170   34.5184 C.ar    1  UNL1        0.0013
     13 C           3.2208    1.7901   34.7393 C.ar    1  UNL1       -0.0002
     14 C           3.5059    0.8189   33.6323 C.ar    1  UNL1       -0.0006
     15 C           2.8258    0.9745   32.3043 C.ar    1  UNL1        0.0244
     16 C           3.1109    0.0033   31.1974 C.3     1  UNL1        0.1649
     17 O           2.1107   -1.0616   30.8578 O.3     1  UNL1       -0.3772
     18 H           2.0326   -1.6805   31.6006 H       1  UNL1        0.2109
     19 C          -1.5394    2.8797   25.4439 C.2     1  UNL1        0.0000
     20 C          -2.9383    3.4168   25.3760 C.2     1  UNL1        0.0000
     21 C          -3.6183    3.5725   24.0481 C.ar    1  UNL1        0.0001
     22 C          -2.8005    3.7165   22.7989 C.ar    1  UNL1        0.0023
     23 C          -3.4805    3.8721   21.4711 C.ar    1  UNL1        0.0296
     24 C          -4.9784    3.8838   21.3923 C.ar    1  UNL1        0.1401
     25 F          -5.6584    4.0395   20.0644 F       1  UNL1       -0.2042
     26 C          -5.7962    3.7398   22.6415 C.ar    1  UNL1        0.0296
     27 C          -5.1162    3.5841   23.9693 C.ar    1  UNL1        0.0023
@<TRIPOS>BOND
     1     7     8    2
     2     8     9    2
     3     8     1    1
     4     1     2   ar
     5     2     3   ar
     6     3     4   ar
     7     4    19    1
     8    19    20    2
     9    20    21    1
    10    21    22   ar
    11    22    23   ar
    12    23    24   ar
    13    24    25    1
    14    24    26   ar
    15    26    27   ar
    16     4     5   ar
    17     5     6   ar
    18     8    10    1
    19    10    11   ar
    20    11    12   ar
    21    12    13   ar
    22    13    14   ar
    23    14    15   ar
    24    15    16    1
    25    16    17    1
    26     6     1   ar
    27    15    10   ar
    28    27    21   ar
    29    17    18    1
@<TRIPOS>MOLECULE
*****
 27 29 0 0 0
SMALL
GASTEIGER

@<TRIPOS>ATOM
      1 C           0.5856    2.3384   29.4592 C.ar    1  UNL1        0.1103
      2 C           0.5350    3.6544   28.7411 C.ar    1  UNL1        0.0187
      3 C          -0.1100    3.7473   27.3901 C.ar    1  UNL1        0.0013
      4 C          -0.7045    2.5242   26.7572 C.ar    1  UNL1        0.0001
      5 C          -0.6539    1.2082   27.4752 C.ar    1  UNL1        0.0013
      6 C          -0.0089    1.1153   28.8262 C.ar    1  UNL1        0.0187
      7 O           2.3688    3.0935   30.3252 O.2     1  UNL1       -0.1642
      8 S           1.2307    2.2454   30.8102 S.O2    1  UNL1        0.0272
      9 O           0.0925    1.3974   31.2953 O.2     1  UNL1       -0.1642
     10 C           1.8756    2.1525   32.1613 C.ar    1  UNL1        0.1086
     11 C           1.5511    3.1658   33.2187 C.ar    1  UNL1        0.0185
     12 C           2.1961    3.0728   34.5697 C.ar    1  UNL1        0.0013
     13 C           3.1656    1.9666   34.8634 C.ar    1  UNL1       -0.0002
     14 C           3.4902    0.9533   33.8061 C.ar    1  UNL1       -0.0006
     15 C           2.8452    1.0463   32.4550 C.ar    1  UNL1        0.0244
     16 C           3.1698    0.0330   31.3977 C.3     1  UNL1        0.1649
     17 O           2.1539   -1.0014   31.0132 O.3     1  UNL1       -0.3772
     18 H           1.9967   -1.5951   31.7640 H       1  UNL1        0.2109
     19 C          -1.3495    2.6171   25.4061 C.2     1  UNL1        0.0000
     20 C          -2.6111    3.4092   25.2302 C.2     1  UNL1        0.0000
     21 C          -3.2562    3.5021   23.8791 C.ar    1  UNL1        0.0001
     22 C          -2.4246    3.8168   22.6711 C.ar    1  UNL1        0.0023
     23 C          -3.0697    3.9098   21.3201 C.ar    1  UNL1        0.0296
     24 C          -4.5463    3.6880   21.1772 C.ar    1  UNL1        0.1401
     25 F          -5.1914    3.7809   19.8261 F       1  UNL1       -0.2042
     26 C          -5.3779    3.3733   22.3852 C.ar    1  UNL1        0.0296
     27 C          -4.7328    3.2803   23.7362 C.ar    1  UNL1        0.0023
@<TRIPOS>BOND
     1     7     8    2
     2     8     9    2
     3     8     1    1
     4     1     2   ar
     5     2     3   ar
     6     3     4   ar
     7     4    19    1
     8    19    20    2
     9    20    21    1
    10    21    22   ar
    11    22    23   ar
    12    23    24   ar
    13    24    25    1
    14    24    26   ar
    15    26    27   ar
    16     4     5   ar
    17     5     6   ar
    18     8    10    1
    19    10    11   ar
    20    11    12   ar
    21    12    13   ar
    22    13    14   ar
    23    14    15   ar
    24    15    16    1
    25    16    17    1
    26     6     1   ar
    27    15    10   ar
    28    27    21   ar
    29    17    18    1
@<TRIPOS>MOLECULE
*****
 27 29 0 0 0
SMALL
GASTEIGER

@<TRIPOS>ATOM
      1 C          -3.3175    4.0207   23.0008 C.ar    1  UNL1        0.1103
      2 C          -3.3961    3.7144   21.5345 C.ar    1  UNL1        0.0187
      3 C          -2.2226    3.0970   20.8334 C.ar    1  UNL1        0.0013
      4 C          -0.9705    2.7859   21.5985 C.ar    1  UNL1        0.0001
      5 C          -0.8918    3.0922   23.0647 C.ar    1  UNL1        0.0013
      6 C          -2.0654    3.7096   23.7659 C.ar    1  UNL1        0.0187
      7 O          -5.0172    3.2711   24.0251 O.2     1  UNL1       -0.1642
      8 S          -4.4911    4.6381   23.7020 S.O2    1  UNL1        0.0272
      9 O          -3.9649    6.0051   23.3788 O.2     1  UNL1       -0.1642
     10 C          -5.6645    5.2555   24.4031 C.ar    1  UNL1        0.1086
     11 C          -6.8744    5.6690   23.6187 C.ar    1  UNL1        0.0185
     12 C          -8.0479    6.2864   24.3199 C.ar    1  UNL1        0.0013
     13 C          -8.0116    6.4904   25.8055 C.ar    1  UNL1       -0.0002
     14 C          -6.8018    6.0770   26.5899 C.ar    1  UNL1       -0.0006
     15 C          -5.6282    5.4595   25.8888 C.ar    1  UNL1        0.0244
     16 C          -4.4184    5.0461   26.6732 C.3     1  UNL1        0.1649
     17 O          -4.2272    3.6080   27.0545 O.3     1  UNL1       -0.3772
     18 H          -4.9225    3.3434   27.6770 H       1  UNL1        0.2109
     19 C           0.2031    2.1685   20.8973 C.2     1  UNL1        0.0000
     20 C           0.1543    0.7289   20.4787 C.2     1  UNL1        0.0000
     21 C           1.3279    0.1115   19.7775 C.ar    1  UNL1        0.0001
     22 C           1.8148    0.6874   18.4809 C.ar    1  UNL1        0.0023
     23 C           2.9883    0.0700   17.7798 C.ar    1  UNL1        0.0296
     24 C           3.6749   -1.1233   18.3752 C.ar    1  UNL1        0.1401
     25 F           4.8484   -1.7407   17.6740 F       1  UNL1       -0.2042
     26 C           3.1880   -1.6992   19.6718 C.ar    1  UNL1        0.0296
     27 C           2.0145   -1.0818   20.3730 C.ar    1  UNL1        0.0023
@<TRIPOS>BOND
     1     7     8    2
     2     8     9    2
     3     8     1    1
     4     1     2   ar
     5     2     3   ar
     6     3     4   ar
     7     4    19    1
     8    19    20    2
     9    20    21    1
    10    21    22   ar
    11    22    23   ar
    12    23    24   ar
    13    24    25    1
    14    24    26   ar
    15    26    27   ar
    16     4     5   ar
    17     5     6   ar
    18     8    10    1
    19    10    11   ar
    20    11    12   ar
    21    12    13   ar
    22    13    14   ar
    23    14    15   ar
    24    15    16    1
    25    16    17    1
    26     6     1   ar
    27    15    10   ar
    28    27    21   ar
    29    17    18    1
@<TRIPOS>MOLECULE
*****
 27 29 0 0 0
SMALL
GASTEIGER

@<TRIPOS>ATOM
      1 C          -3.4012    3.6929   23.3756 C.ar    1  UNL1        0.1103
      2 C          -4.0312    3.7240   24.7365 C.ar    1  UNL1        0.0187
      3 C          -3.1986    3.4545   25.9547 C.ar    1  UNL1        0.0013
      4 C          -1.7360    3.1539   25.8120 C.ar    1  UNL1        0.0001
      5 C          -1.1060    3.1227   24.4511 C.ar    1  UNL1        0.0013
      6 C          -1.9386    3.3923   23.2329 C.ar    1  UNL1        0.0187
      7 O          -4.6858    2.5322   22.1497 O.2     1  UNL1       -0.1642
      8 S          -4.2338    3.9624   22.1573 S.O2    1  UNL1        0.0272
      9 O          -3.7819    5.3927   22.1649 O.2     1  UNL1       -0.1642
     10 C          -5.0664    4.2320   20.9390 C.ar    1  UNL1        0.1086
     11 C          -4.4776    4.0458   19.5720 C.ar    1  UNL1        0.0185
     12 C          -5.3101    4.3154   18.3537 C.ar    1  UNL1        0.0013
     13 C          -6.7315    4.7711   18.5024 C.ar    1  UNL1       -0.0002
     14 C          -7.3202    4.9573   19.8694 C.ar    1  UNL1       -0.0006
     15 C          -6.4877    4.6878   21.0877 C.ar    1  UNL1        0.0244
     16 C          -7.0765    4.8740   22.4547 C.3     1  UNL1        0.1649
     17 O          -8.0598    3.8758   22.9901 O.3     1  UNL1       -0.3772
     18 H          -8.8709    3.9040   22.4588 H       1  UNL1        0.2109
     19 C          -0.9034    2.8843   27.0303 C.2     1  UNL1        0.0000
     20 C          -0.4227    1.4928   27.3174 C.2     1  UNL1        0.0000
     21 C           0.4099    1.2232   28.5357 C.ar    1  UNL1        0.0001
     22 C           1.1706   -0.0640   28.6544 C.ar    1  UNL1        0.0023
     23 C           2.0032   -0.3335   29.8727 C.ar    1  UNL1        0.0296
     24 C           2.0750    0.6843   30.9722 C.ar    1  UNL1        0.1401
     25 F           2.9076    0.4148   32.1905 F       1  UNL1       -0.2042
     26 C           1.3142    1.9716   30.8535 C.ar    1  UNL1        0.0296
     27 C           0.4817    2.2410   29.6352 C.ar    1  UNL1        0.0023
@<TRIPOS>BOND
     1     7     8    2
     2     8     9    2
     3     8     1    1
     4     1     2   ar
     5     2     3   ar
     6     3     4   ar
     7     4    19    1
     8    19    20    2
     9    20    21    1
    10    21    22   ar
    11    22    23   ar
    12    23    24   ar
    13    24    25    1
    14    24    26   ar
    15    26    27   ar
    16     4     5   ar
    17     5     6   ar
    18     8    10    1
    19    10    11   ar
    20    11    12   ar
    21    12    13   ar
    22    13    14   ar
    23    14    15   ar
    24    15    16    1
    25    16    17    1
    26     6     1   ar
    27    15    10   ar
    28    27    21   ar
    29    17    18    1
