@<TRIPOS>MOLECULE
*****
 24 25 0 0 0
SMALL
GASTEIGER

@<TRIPOS>ATOM
      1 C         -10.8537  -17.4941   22.8853 C.3     1  UNL1        0.0713
      2 C         -11.7151  -18.6467   23.3091 C.3     1  UNL1        0.0257
      3 C         -13.1263  -18.1519   23.4271 C.3     1  UNL1        0.0690
      4 N         -13.1370  -16.6936   23.0763 N.3     1  UNL1       -0.2971
      5 C         -11.7325  -16.2870   22.7414 C.3     1  UNL1        0.0759
      6 H         -13.4750  -16.1491   23.8698 H       1  UNL1        0.1233
      7 C          -9.7609  -16.5528   22.4736 C.2     1  UNL1        0.1751
      8 O          -9.6920  -16.0559   21.0599 O.2     1  UNL1       -0.2913
      9 C          -8.7369  -16.1082   23.4756 C.ar    1  UNL1        0.0548
     10 C          -7.3409  -15.7884   23.0298 C.ar    1  UNL1        0.1031
     11 N          -6.3170  -15.3439   24.0317 N.ar    1  UNL1       -0.2286
     12 C          -6.6891  -15.2192   25.4795 C.ar    1  UNL1        0.1360
     13 N          -5.6651  -14.7747   26.4815 N.pl3   1  UNL1       -0.3419
     14 C          -8.0851  -15.5390   25.9253 C.ar    1  UNL1        0.0888
     15 CL         -8.4572  -15.4144   27.3730 Cl      1  UNL1       -0.0793
     16 C          -9.1090  -15.9836   24.9233 C.ar    1  UNL1        0.0186
     17 H          -4.7488  -14.5647   26.1888 H       1  UNL1        0.1437
     18 H          -5.9093  -14.6928   27.4317 H       1  UNL1        0.1437
     19 C          -9.7465  -18.5044   22.9431 C.3     1  UNL1        0.0087
     20 C          -9.7426  -19.6677   21.9962 C.3     1  UNL1        0.0005
     21 C         -10.3388  -19.6663   19.9604 C.3     1  UNL1        0.0000
     22 C          -9.0278  -19.5625   20.6816 C.3     1  UNL1        0.0000
     23 C          -7.7166  -19.4586   21.4029 C.3     1  UNL1        0.0000
     24 C          -8.3129  -19.4572   19.3671 C.3     1  UNL1        0.0000
@<TRIPOS>BOND
     1    21    22    1
     2    22    23    1
     3    22    24    1
     4    22    20    1
     5    20    19    1
     6    19     1    1
     7     1     7    1
     8     7     8    2
     9     7     9    1
    10     9    10   ar
    11    10    11   ar
    12    11    12   ar
    13    12    13    1
    14    12    14   ar
    15    14    15    1
    16    14    16   ar
    17     1     2    1
    18     2     3    1
    19     3     4    1
    20     4     5    1
    21     5     1    1
    22    16     9   ar
    23    13    17    1
    24    13    18    1
    25     4     6    1
@<TRIPOS>MOLECULE
*****
 24 25 0 0 0
SMALL
GASTEIGER

@<TRIPOS>ATOM
      1 C          -9.7008  -19.6167   21.0440 C.3     1  UNL1        0.0713
      2 C         -10.3691  -19.7871   19.7119 C.3     1  UNL1        0.0257
      3 C          -9.3017  -20.0220   18.6845 C.3     1  UNL1        0.0690
      4 N          -7.9738  -19.9968   19.3817 N.3     1  UNL1       -0.2971
      5 C          -8.2205  -19.7463   20.8399 C.3     1  UNL1        0.0759
      6 H          -7.3942  -19.2515   18.9956 H       1  UNL1        0.1233
      7 C          -9.3257  -19.4102   22.4815 C.2     1  UNL1        0.1751
      8 O          -9.4214  -20.5493   23.4527 O.2     1  UNL1       -0.2913
      9 C          -8.8548  -18.0645   22.9479 C.ar    1  UNL1        0.0548
     10 C          -8.2590  -17.0974   21.9683 C.ar    1  UNL1        0.1031
     11 N          -7.7881  -15.7518   22.4347 N.ar    1  UNL1       -0.2286
     12 C          -7.9131  -15.3733   23.8808 C.ar    1  UNL1        0.1360
     13 N          -7.4422  -14.0276   24.3472 N.pl3   1  UNL1       -0.3419
     14 C          -8.5089  -16.3403   24.8604 C.ar    1  UNL1        0.0888
     15 CL         -8.6339  -15.9618   26.3065 Cl      1  UNL1       -0.0793
     16 C          -8.9798  -17.6860   24.3940 C.ar    1  UNL1        0.0186
     17 H          -7.0511  -13.3929   23.7042 H       1  UNL1        0.1437
     18 H          -7.5242  -13.7791   25.2963 H       1  UNL1        0.1437
     19 C         -11.1028  -19.4439   21.5486 C.3     1  UNL1        0.0087
     20 C         -11.9683  -18.3492   20.9986 C.3     1  UNL1        0.0005
     21 C         -11.7075  -16.2780   20.6219 C.3     1  UNL1        0.0000
     22 C         -12.1810  -17.0923   21.7891 C.3     1  UNL1        0.0000
     23 C         -12.6545  -17.9068   22.9565 C.3     1  UNL1        0.0000
     24 C         -12.3937  -15.8355   22.5798 C.3     1  UNL1        0.0000
@<TRIPOS>BOND
     1    21    22    1
     2    22    23    1
     3    22    24    1
     4    22    20    1
     5    20    19    1
     6    19     1    1
     7     1     7    1
     8     7     8    2
     9     7     9    1
    10     9    10   ar
    11    10    11   ar
    12    11    12   ar
    13    12    13    1
    14    12    14   ar
    15    14    15    1
    16    14    16   ar
    17     1     2    1
    18     2     3    1
    19     3     4    1
    20     4     5    1
    21     5     1    1
    22    16     9   ar
    23    13    17    1
    24    13    18    1
    25     4     6    1
@<TRIPOS>MOLECULE
*****
 24 25 0 0 0
SMALL
GASTEIGER

@<TRIPOS>ATOM
      1 C          -8.5230  -16.4173   23.6891 C.3     1  UNL1        0.0713
      2 C          -8.7981  -16.4036   25.1636 C.3     1  UNL1        0.0257
      3 C          -8.0503  -15.2501   25.7639 C.3     1  UNL1        0.0690
      4 N          -7.3132  -14.5510   24.6604 N.3     1  UNL1       -0.2971
      5 C          -7.6053  -15.2724   23.3781 C.3     1  UNL1        0.0759
      6 H          -6.3107  -14.5700   24.8476 H       1  UNL1        0.1233
      7 C          -8.4360  -16.6820   22.2152 C.2     1  UNL1        0.1751
      8 O          -9.1205  -15.7636   21.2466 O.2     1  UNL1       -0.2913
      9 C          -7.6645  -17.8650   21.7099 C.ar    1  UNL1        0.0548
     10 C          -8.2377  -18.7256   20.6233 C.ar    1  UNL1        0.1031
     11 N          -7.4662  -19.9086   20.1180 N.ar    1  UNL1       -0.2286
     12 C          -6.1215  -20.2309   20.6993 C.ar    1  UNL1        0.1360
     13 N          -5.3500  -21.4139   20.1939 N.pl3   1  UNL1       -0.3419
     14 C          -5.5483  -19.3703   21.7859 C.ar    1  UNL1        0.0888
     15 CL         -4.2036  -19.6926   22.3672 Cl      1  UNL1       -0.0793
     16 C          -6.3198  -18.1873   22.2912 C.ar    1  UNL1        0.0186
     17 H          -5.7262  -21.9788   19.4808 H       1  UNL1        0.1437
     18 H          -4.4674  -21.6255   20.5754 H       1  UNL1        0.1437
     19 C          -9.4226  -17.6177   23.6919 C.3     1  UNL1        0.0087
     20 C         -10.9068  -17.4422   23.8194 C.3     1  UNL1        0.0005
     21 C         -11.3595  -19.0920   22.5650 C.3     1  UNL1        0.0000
     22 C         -11.7926  -17.6573   22.6280 C.3     1  UNL1        0.0000
     23 C         -12.2257  -16.2225   22.6911 C.3     1  UNL1        0.0000
     24 C         -12.6784  -17.8722   21.4368 C.3     1  UNL1        0.0000
@<TRIPOS>BOND
     1    21    22    1
     2    22    23    1
     3    22    24    1
     4    22    20    1
     5    20    19    1
     6    19     1    1
     7     1     7    1
     8     7     8    2
     9     7     9    1
    10     9    10   ar
    11    10    11   ar
    12    11    12   ar
    13    12    13    1
    14    12    14   ar
    15    14    15    1
    16    14    16   ar
    17     1     2    1
    18     2     3    1
    19     3     4    1
    20     4     5    1
    21     5     1    1
    22    16     9   ar
    23    13    17    1
    24    13    18    1
    25     4     6    1
@<TRIPOS>MOLECULE
*****
 24 25 0 0 0
SMALL
GASTEIGER

@<TRIPOS>ATOM
      1 C          -9.8463  -16.2830   22.7532 C.3     1  UNL1        0.0713
      2 C         -11.1987  -16.5504   22.1620 C.3     1  UNL1        0.0257
      3 C         -11.2473  -15.9089   20.8068 C.3     1  UNL1        0.0690
      4 N          -9.9249  -15.2451   20.5606 N.3     1  UNL1       -0.2971
      5 C          -9.0590  -15.4763   21.7635 C.3     1  UNL1        0.0759
      6 H         -10.0610  -14.2442   20.4193 H       1  UNL1        0.1233
      7 C          -8.6042  -16.1797   23.5877 C.2     1  UNL1        0.1751
      8 O          -8.5903  -15.3060   24.8069 O.2     1  UNL1       -0.2913
      9 C          -7.3759  -16.9502   23.2031 C.ar    1  UNL1        0.0548
     10 C          -6.0183  -16.4312   23.5738 C.ar    1  UNL1        0.1031
     11 N          -4.7902  -17.2017   23.1892 N.ar    1  UNL1       -0.2286
     12 C          -4.9197  -18.4911   22.4338 C.ar    1  UNL1        0.1360
     13 N          -3.6914  -19.2616   22.0492 N.pl3   1  UNL1       -0.3419
     14 C          -6.2773  -19.0101   22.0630 C.ar    1  UNL1        0.0888
     15 CL         -6.4067  -20.2995   21.3077 Cl      1  UNL1       -0.0793
     16 C          -7.5054  -18.2396   22.4477 C.ar    1  UNL1        0.0186
     17 H          -2.8003  -18.9210   22.2925 H       1  UNL1        0.1437
     18 H          -3.7764  -20.1079   21.5534 H       1  UNL1        0.1437
     19 C         -10.3738  -17.0681   23.9173 C.3     1  UNL1        0.0087
     20 C         -11.0588  -18.3825   23.6868 C.3     1  UNL1        0.0005
     21 C          -9.9605  -19.1245   25.3430 C.3     1  UNL1        0.0000
     22 C         -10.3455  -19.6648   23.9978 C.3     1  UNL1        0.0000
     23 C         -10.7305  -20.2052   22.6524 C.3     1  UNL1        0.0000
     24 C          -9.6321  -20.9472   24.3086 C.3     1  UNL1        0.0000
@<TRIPOS>BOND
     1    21    22    1
     2    22    23    1
     3    22    24    1
     4    22    20    1
     5    20    19    1
     6    19     1    1
     7     1     7    1
     8     7     8    2
     9     7     9    1
    10     9    10   ar
    11    10    11   ar
    12    11    12   ar
    13    12    13    1
    14    12    14   ar
    15    14    15    1
    16    14    16   ar
    17     1     2    1
    18     2     3    1
    19     3     4    1
    20     4     5    1
    21     5     1    1
    22    16     9   ar
    23    13    17    1
    24    13    18    1
    25     4     6    1
@<TRIPOS>MOLECULE
*****
 24 25 0 0 0
SMALL
GASTEIGER

@<TRIPOS>ATOM
      1 C          -8.5683  -18.0781   21.6414 C.3     1  UNL1        0.0713
      2 C          -8.6167  -19.4785   21.1061 C.3     1  UNL1        0.0257
      3 C          -7.2320  -20.0508   21.1791 C.3     1  UNL1        0.0690
      4 N          -6.3279  -19.0040   21.7595 N.3     1  UNL1       -0.2971
      5 C          -7.1538  -17.7848   22.0452 C.3     1  UNL1        0.0759
      6 H          -5.5912  -18.7744   21.0925 H       1  UNL1        0.1233
      7 C          -8.8270  -16.6779   22.1129 C.2     1  UNL1        0.1751
      8 O          -9.6368  -15.7396   21.2680 O.2     1  UNL1       -0.2913
      9 C          -8.2759  -16.2159   23.4293 C.ar    1  UNL1        0.0548
     10 C          -7.1892  -15.1826   23.4663 C.ar    1  UNL1        0.1031
     11 N          -6.6381  -14.7207   24.7827 N.ar    1  UNL1       -0.2286
     12 C          -7.1737  -15.2920   26.0620 C.ar    1  UNL1        0.1360
     13 N          -6.6226  -14.8300   27.3785 N.pl3   1  UNL1       -0.3419
     14 C          -8.2604  -16.3253   26.0250 C.ar    1  UNL1        0.0888
     15 CL         -8.7959  -16.8967   27.3043 Cl      1  UNL1       -0.0793
     16 C          -8.8114  -16.7872   24.7086 C.ar    1  UNL1        0.0186
     17 H          -5.9093  -14.1518   27.4028 H       1  UNL1        0.1437
     18 H          -6.9741  -15.2050   28.2181 H       1  UNL1        0.1437
     19 C         -10.0369  -18.0787   21.3361 C.3     1  UNL1        0.0087
     20 C         -10.9679  -18.9453   22.1313 C.3     1  UNL1        0.0005
     21 C         -11.6545  -18.8953   24.1378 C.3     1  UNL1        0.0000
     22 C         -12.1434  -18.3349   22.8352 C.3     1  UNL1        0.0000
     23 C         -12.6324  -17.7744   21.5325 C.3     1  UNL1        0.0000
     24 C         -13.3190  -17.7244   23.5390 C.3     1  UNL1        0.0000
@<TRIPOS>BOND
     1    21    22    1
     2    22    23    1
     3    22    24    1
     4    22    20    1
     5    20    19    1
     6    19     1    1
     7     1     7    1
     8     7     8    2
     9     7     9    1
    10     9    10   ar
    11    10    11   ar
    12    11    12   ar
    13    12    13    1
    14    12    14   ar
    15    14    15    1
    16    14    16   ar
    17     1     2    1
    18     2     3    1
    19     3     4    1
    20     4     5    1
    21     5     1    1
    22    16     9   ar
    23    13    17    1
    24    13    18    1
    25     4     6    1
@<TRIPOS>MOLECULE
*****
 24 25 0 0 0
SMALL
GASTEIGER

@<TRIPOS>ATOM
      1 C          -9.3360  -18.2305   22.3296 C.3     1  UNL1        0.0713
      2 C          -9.4524  -19.7256   22.2945 C.3     1  UNL1        0.0257
      3 C         -10.9099  -20.0759   22.2400 C.3     1  UNL1        0.0690
      4 N         -11.6943  -18.7974   22.2413 N.3     1  UNL1       -0.2971
      5 C         -10.7216  -17.6569   22.2968 C.3     1  UNL1        0.0759
      6 H         -12.3081  -18.7687   23.0555 H       1  UNL1        0.1233
      7 C          -8.9114  -16.7926   22.3736 C.2     1  UNL1        0.1751
      8 O          -9.1596  -15.9009   21.1932 O.2     1  UNL1       -0.2913
      9 C          -8.2386  -16.2463   23.5979 C.ar    1  UNL1        0.0548
     10 C          -7.0511  -15.3403   23.4600 C.ar    1  UNL1        0.1031
     11 N          -6.3784  -14.7940   24.6843 N.ar    1  UNL1       -0.2286
     12 C          -6.8932  -15.1537   26.0465 C.ar    1  UNL1        0.1360
     13 N          -6.2204  -14.6073   27.2709 N.pl3   1  UNL1       -0.3419
     14 C          -8.0807  -16.0596   26.1844 C.ar    1  UNL1        0.0888
     15 CL         -8.5955  -16.4193   27.5466 Cl      1  UNL1       -0.0793
     16 C          -8.7534  -16.6059   24.9601 C.ar    1  UNL1        0.0186
     17 H          -5.4410  -14.0127   27.1803 H       1  UNL1        0.1437
     18 H          -6.5583  -14.8434   28.1649 H       1  UNL1        0.1437
     19 C          -7.8617  -18.5036   22.3717 C.3     1  UNL1        0.0087
     20 C          -7.2954  -19.6798   21.6329 C.3     1  UNL1        0.0005
     21 C          -6.0800  -20.8358   20.3343 C.3     1  UNL1        0.0000
     22 C          -5.8291  -19.7351   21.3219 C.3     1  UNL1        0.0000
     23 C          -5.5782  -18.6343   22.3095 C.3     1  UNL1        0.0000
     24 C          -4.3627  -19.7903   21.0109 C.3     1  UNL1        0.0000
@<TRIPOS>BOND
     1    21    22    1
     2    22    23    1
     3    22    24    1
     4    22    20    1
     5    20    19    1
     6    19     1    1
     7     1     7    1
     8     7     8    2
     9     7     9    1
    10     9    10   ar
    11    10    11   ar
    12    11    12   ar
    13    12    13    1
    14    12    14   ar
    15    14    15    1
    16    14    16   ar
    17     1     2    1
    18     2     3    1
    19     3     4    1
    20     4     5    1
    21     5     1    1
    22    16     9   ar
    23    13    17    1
    24    13    18    1
    25     4     6    1
@<TRIPOS>MOLECULE
*****
 24 25 0 0 0
SMALL
GASTEIGER

@<TRIPOS>ATOM
      1 C          -9.0156  -18.1178   23.4843 C.3     1  UNL1        0.0713
      2 C          -9.7223  -18.1631   24.8066 C.3     1  UNL1        0.0257
      3 C         -10.2381  -19.5571   25.0090 C.3     1  UNL1        0.0690
      4 N          -9.8502  -20.3732   23.8117 N.3     1  UNL1       -0.2971
      5 C          -9.0946  -19.4837   22.8694 C.3     1  UNL1        0.0759
      6 H         -10.6868  -20.7330   23.3523 H       1  UNL1        0.1233
      7 C          -8.2593  -17.7718   22.2360 C.2     1  UNL1        0.1751
      8 O          -8.8708  -16.8550   21.2184 O.2     1  UNL1       -0.2913
      9 C          -6.8915  -18.3427   22.0052 C.ar    1  UNL1        0.0548
     10 C          -6.6674  -19.3284   20.8971 C.ar    1  UNL1        0.1031
     11 N          -5.2996  -19.8993   20.6664 N.ar    1  UNL1       -0.2286
     12 C          -4.1559  -19.4843   21.5438 C.ar    1  UNL1        0.1360
     13 N          -2.7881  -20.0552   21.3130 N.pl3   1  UNL1       -0.3419
     14 C          -4.3800  -18.4986   22.6519 C.ar    1  UNL1        0.0888
     15 CL         -3.2364  -18.0837   23.5293 Cl      1  UNL1       -0.0793
     16 C          -5.7478  -17.9278   22.8827 C.ar    1  UNL1        0.0186
     17 H          -2.6410  -20.7022   20.5857 H       1  UNL1        0.1437
     18 H          -2.0374  -19.7829   21.8889 H       1  UNL1        0.1437
     19 C          -8.7784  -16.6796   23.8382 C.3     1  UNL1        0.0087
     20 C          -8.7811  -16.2506   25.2755 C.3     1  UNL1        0.0005
     21 C          -7.9255  -16.2707   27.2166 C.3     1  UNL1        0.0000
     22 C          -7.5360  -15.6850   25.8918 C.3     1  UNL1        0.0000
     23 C          -7.1464  -15.0992   24.5670 C.3     1  UNL1        0.0000
     24 C          -6.2909  -15.1192   26.5080 C.3     1  UNL1        0.0000
@<TRIPOS>BOND
     1    21    22    1
     2    22    23    1
     3    22    24    1
     4    22    20    1
     5    20    19    1
     6    19     1    1
     7     1     7    1
     8     7     8    2
     9     7     9    1
    10     9    10   ar
    11    10    11   ar
    12    11    12   ar
    13    12    13    1
    14    12    14   ar
    15    14    15    1
    16    14    16   ar
    17     1     2    1
    18     2     3    1
    19     3     4    1
    20     4     5    1
    21     5     1    1
    22    16     9   ar
    23    13    17    1
    24    13    18    1
    25     4     6    1
@<TRIPOS>MOLECULE
*****
 24 25 0 0 0
SMALL
GASTEIGER

@<TRIPOS>ATOM
      1 C          -7.2672  -16.5463   23.6744 C.3     1  UNL1        0.0713
      2 C          -5.8017  -16.5162   23.3564 C.3     1  UNL1        0.0257
      3 C          -5.2127  -15.2958   23.9997 C.3     1  UNL1        0.0690
      4 N          -6.3143  -14.5717   24.7153 N.3     1  UNL1       -0.2971
      5 C          -7.5841  -15.3446   24.5143 C.3     1  UNL1        0.0759
      6 H          -6.4168  -13.6320   24.3323 H       1  UNL1        0.1233
      7 C          -8.7305  -16.8406   23.8235 C.2     1  UNL1        0.1751
      8 O          -9.2581  -17.3846   25.1179 O.2     1  UNL1       -0.2913
      9 C          -9.6662  -16.5908   22.6780 C.ar    1  UNL1        0.0548
     10 C          -9.2706  -15.6516   21.5774 C.ar    1  UNL1        0.1031
     11 N         -10.2063  -15.4018   20.4320 N.ar    1  UNL1       -0.2286
     12 C         -11.5377  -16.0913   20.3871 C.ar    1  UNL1        0.1360
     13 N         -12.4734  -15.8415   19.2416 N.pl3   1  UNL1       -0.3419
     14 C         -11.9334  -17.0305   21.4877 C.ar    1  UNL1        0.0888
     15 CL        -13.2648  -17.7200   21.4428 Cl      1  UNL1       -0.0793
     16 C         -10.9976  -17.2802   22.6331 C.ar    1  UNL1        0.0186
     17 H         -12.2137  -15.2250   18.5193 H       1  UNL1        0.1437
     18 H         -13.3472  -16.2940   19.2122 H       1  UNL1        0.1437
     19 C          -7.2563  -17.8096   22.8657 C.3     1  UNL1        0.0087
     20 C          -5.9540  -18.3930   22.4036 C.3     1  UNL1        0.0005
     21 C          -7.4472  -19.5753   21.4694 C.3     1  UNL1        0.0000
     22 C          -5.9473  -19.5745   21.4795 C.3     1  UNL1        0.0000
     23 C          -4.4473  -19.5738   21.4896 C.3     1  UNL1        0.0000
     24 C          -5.9404  -20.7560   20.5553 C.3     1  UNL1        0.0000
@<TRIPOS>BOND
     1    21    22    1
     2    22    23    1
     3    22    24    1
     4    22    20    1
     5    20    19    1
     6    19     1    1
     7     1     7    1
     8     7     8    2
     9     7     9    1
    10     9    10   ar
    11    10    11   ar
    12    11    12   ar
    13    12    13    1
    14    12    14   ar
    15    14    15    1
    16    14    16   ar
    17     1     2    1
    18     2     3    1
    19     3     4    1
    20     4     5    1
    21     5     1    1
    22    16     9   ar
    23    13    17    1
    24    13    18    1
    25     4     6    1
@<TRIPOS>MOLECULE
*****
 24 25 0 0 0
SMALL
GASTEIGER

@<TRIPOS>ATOM
      1 C         -10.8240  -17.9686   22.7191 C.3     1  UNL1        0.0713
      2 C         -11.5265  -16.6848   23.0484 C.3     1  UNL1        0.0257
      3 C         -12.6719  -16.5250   22.0930 C.3     1  UNL1        0.0690
      4 N         -12.6772  -17.7099   21.1734 N.3     1  UNL1       -0.2971
      5 C         -11.5351  -18.6021   21.5603 C.3     1  UNL1        0.0759
      6 H         -12.5626  -17.3997   20.2085 H       1  UNL1        0.1233
      7 C          -9.9339  -19.1725   22.6280 C.2     1  UNL1        0.1751
      8 O         -10.3238  -20.4472   23.3159 O.2     1  UNL1       -0.2913
      9 C          -8.6539  -19.1018   21.8491 C.ar    1  UNL1        0.0548
     10 C          -8.6864  -19.1206   20.3496 C.ar    1  UNL1        0.1031
     11 N          -7.4064  -19.0499   19.5708 N.ar    1  UNL1       -0.2286
     12 C          -6.0939  -18.9603   20.2915 C.ar    1  UNL1        0.1360
     13 N          -4.8139  -18.8895   19.5126 N.pl3   1  UNL1       -0.3419
     14 C          -6.0614  -18.9414   21.7910 C.ar    1  UNL1        0.0888
     15 CL         -4.7489  -18.8518   22.5116 Cl      1  UNL1       -0.0793
     16 C          -7.3414  -19.0122   22.5698 C.ar    1  UNL1        0.0186
     17 H          -4.8353  -18.9019   18.5284 H       1  UNL1        0.1437
     18 H          -3.9525  -18.8307   19.9855 H       1  UNL1        0.1437
     19 C          -9.9267  -17.5868   23.8588 C.3     1  UNL1        0.0087
     20 C          -9.5281  -16.1537   24.0519 C.3     1  UNL1        0.0005
     21 C          -8.4176  -16.1657   25.8593 C.3     1  UNL1        0.0000
     22 C          -8.1180  -15.8121   24.4328 C.3     1  UNL1        0.0000
     23 C          -7.8183  -15.4585   23.0061 C.3     1  UNL1        0.0000
     24 C          -6.7079  -15.4705   24.8135 C.3     1  UNL1        0.0000
@<TRIPOS>BOND
     1    21    22    1
     2    22    23    1
     3    22    24    1
     4    22    20    1
     5    20    19    1
     6    19     1    1
     7     1     7    1
     8     7     8    2
     9     7     9    1
    10     9    10   ar
    11    10    11   ar
    12    11    12   ar
    13    12    13    1
    14    12    14   ar
    15    14    15    1
    16    14    16   ar
    17     1     2    1
    18     2     3    1
    19     3     4    1
    20     4     5    1
    21     5     1    1
    22    16     9   ar
    23    13    17    1
    24    13    18    1
    25     4     6    1
