@<TRIPOS>MOLECULE
*****
 35 38 0 0 0
SMALL
GASTEIGER

@<TRIPOS>ATOM
      1 C           2.8853   -0.3775   20.8865 C.ar    1  UNL1        0.1102
      2 N           1.4903    0.1000   21.1625 N.ar    1  UNL1       -0.2306
      3 C           0.8277    1.0634   20.2230 C.ar    1  UNL1        0.1342
      4 C           1.5600    1.5493   19.0074 C.ar    1  UNL1        0.0368
      5 C           2.9548    1.0719   18.7313 C.ar    1  UNL1        0.0338
      6 C           3.6176    0.1084   19.6709 C.ar    1  UNL1        0.1556
      7 F           5.0125   -0.3690   19.3948 F       1  UNL1       -0.2029
      8 C           4.1519   -0.2195   26.1420 C.3     1  UNL1        0.0320
      9 C           3.9506   -0.5933   24.7034 C.3     1  UNL1        0.1155
     10 C           4.4119   -1.9304   24.2042 C.3     1  UNL1        0.0328
     11 C           4.2106   -2.3042   22.7656 C.3     1  UNL1        0.0422
     12 C           4.6720   -3.6414   22.2664 C.3     1  UNL1        0.0673
     13 S           4.4707   -4.0152   20.8278 S.3     1  UNL1       -0.0807
     14 C           3.8080   -3.0518   19.8882 C.2     1  UNL1        0.1483
     15 N           3.6066   -3.4255   18.4496 N.pl3   1  UNL1       -0.3380
     16 N           3.3466   -1.7146   20.3874 N.2     1  UNL1       -0.2468
     17 C           3.5480   -1.3408   21.8260 C.3     1  UNL1        0.1513
     18 C           3.0866   -0.0037   22.3252 C.3     1  UNL1        0.1701
     19 O           3.2880    0.3701   23.7638 O.3     1  UNL1       -0.3538
     20 H           3.9094   -4.3032   18.1220 H       1  UNL1        0.1442
     21 H           3.1717   -2.7932   17.8329 H       1  UNL1        0.1442
     22 N          -0.5673    1.5409   20.4990 N.am    1  UNL1       -0.2646
     23 C          -0.7872    2.8405   21.2150 C.2     1  UNL1        0.2683
     24 O           0.3879    3.6626   21.6549 O.2     1  UNL1       -0.2681
     25 H          -1.3384    1.0013   20.2103 H       1  UNL1        0.1566
     26 C          -2.1821    3.3180   21.4911 C.ar    1  UNL1        0.1350
     27 C          -2.4358    4.2878   22.6070 C.ar    1  UNL1        0.0269
     28 C          -3.8307    4.7653   22.8830 C.ar    1  UNL1        0.0404
     29 C          -4.9719    4.2731   22.0431 C.ar    1  UNL1        0.1634
     30 C          -4.7182    3.3033   20.9272 C.ar    1  UNL1        0.1359
     31 N          -3.3232    2.8258   20.6512 N.ar    1  UNL1       -0.2361
     32 O          -6.3668    4.7506   22.3192 O.3     1  UNL1       -0.4220
     33 C          -7.0557    4.3582   23.5926 C.3     1  UNL1        0.5087
     34 F          -6.2924    4.3409   24.8837 F       1  UNL1       -0.1550
     35 F          -8.5078    3.9829   23.5748 F       1  UNL1       -0.1550
@<TRIPOS>BOND
     1     9     8    1
     2     9    10    1
     3    11    10    1
     4    11    12    1
     5    12    13    1
     6    13    14    1
     7    14    15    1
     8    14    16    2
     9    16    17    1
    10    17     1    1
    11     1     2   ar
    12     2     3   ar
    13     3    22    1
    14    22    23   am
    15    23    24    2
    16    23    26    1
    17    26    27   ar
    18    27    28   ar
    19    28    29   ar
    20    29    32    1
    21    32    33    1
    22    33    34    1
    23    33    35    1
    24    29    30   ar
    25    30    31   ar
    26     3     4   ar
    27     4     5   ar
    28     5     6   ar
    29     6     7    1
    30    17    18    1
    31    18    19    1
    32    19     9    1
    33    17    11    1
    34     6     1   ar
    35    31    26   ar
    36    15    20    1
    37    15    21    1
    38    22    25    1
@<TRIPOS>MOLECULE
*****
 35 38 0 0 0
SMALL
GASTEIGER

@<TRIPOS>ATOM
      1 C           4.7286   -0.5652   18.9999 C.ar    1  UNL1        0.1102
      2 N           5.3759   -0.9153   20.3070 N.ar    1  UNL1       -0.2306
      3 C           5.8415   -2.3183   20.5613 C.ar    1  UNL1        0.1342
      4 C           5.6599   -3.3712   19.5085 C.ar    1  UNL1        0.0368
      5 C           5.0126   -3.0212   18.2015 C.ar    1  UNL1        0.0338
      6 C           4.5469   -1.6181   17.9471 C.ar    1  UNL1        0.1556
      7 F           3.8997   -1.2680   16.6401 F       1  UNL1       -0.2029
      8 C           7.1579    3.9282   17.2227 C.3     1  UNL1        0.0320
      9 C           6.1929    2.8981   17.7303 C.3     1  UNL1        0.1155
     10 C           4.7623    3.2710   17.9837 C.3     1  UNL1        0.0328
     11 C           3.7973    2.2409   18.4913 C.3     1  UNL1        0.0422
     12 C           2.3666    2.6138   18.7447 C.3     1  UNL1        0.0673
     13 S           1.4016    1.5837   19.2523 S.3     1  UNL1       -0.0807
     14 C           1.8673    0.1807   19.5066 C.2     1  UNL1        0.1483
     15 N           0.9024   -0.8494   20.0142 N.pl3   1  UNL1       -0.3380
     16 N           3.2980   -0.1922   19.2532 N.2     1  UNL1       -0.2468
     17 C           4.2629    0.8379   18.7456 C.3     1  UNL1        0.1513
     18 C           5.6936    0.4649   18.4923 C.3     1  UNL1        0.1701
     19 O           6.6585    1.4951   17.9846 O.3     1  UNL1       -0.3538
     20 H          -0.0366   -0.6047   20.1805 H       1  UNL1        0.1442
     21 H           1.2080   -1.7703   20.1811 H       1  UNL1        0.1442
     22 N           6.4888   -2.6684   21.8684 N.am    1  UNL1       -0.2646
     23 C           5.6967   -3.3653   22.9347 C.2     1  UNL1        0.2683
     24 O           4.2573   -3.7121   22.6938 O.2     1  UNL1       -0.2681
     25 H           7.4335   -2.4408   22.0265 H       1  UNL1        0.1566
     26 C           6.3440   -3.7155   24.2417 C.ar    1  UNL1        0.1350
     27 C           7.2459   -4.9103   24.3357 C.ar    1  UNL1        0.0269
     28 C           7.8932   -5.2604   25.6428 C.ar    1  UNL1        0.0404
     29 C           7.6384   -4.4157   26.8559 C.ar    1  UNL1        0.1634
     30 C           6.7365   -3.2209   26.7619 C.ar    1  UNL1        0.1359
     31 N           6.0892   -2.8708   25.4548 N.ar    1  UNL1       -0.2361
     32 O           8.2857   -4.7658   28.1630 O.3     1  UNL1       -0.4220
     33 C           7.7192   -5.8673   29.0092 C.3     1  UNL1        0.5087
     34 F           8.4431   -7.1764   29.1193 F       1  UNL1       -0.1550
     35 F           6.4289   -5.6596   29.7452 F       1  UNL1       -0.1550
@<TRIPOS>BOND
     1     9     8    1
     2     9    10    1
     3    11    10    1
     4    11    12    1
     5    12    13    1
     6    13    14    1
     7    14    15    1
     8    14    16    2
     9    16    17    1
    10    17     1    1
    11     1     2   ar
    12     2     3   ar
    13     3    22    1
    14    22    23   am
    15    23    24    2
    16    23    26    1
    17    26    27   ar
    18    27    28   ar
    19    28    29   ar
    20    29    32    1
    21    32    33    1
    22    33    34    1
    23    33    35    1
    24    29    30   ar
    25    30    31   ar
    26     3     4   ar
    27     4     5   ar
    28     5     6   ar
    29     6     7    1
    30    17    18    1
    31    18    19    1
    32    19     9    1
    33    17    11    1
    34     6     1   ar
    35    31    26   ar
    36    15    20    1
    37    15    21    1
    38    22    25    1
@<TRIPOS>MOLECULE
*****
 35 38 0 0 0
SMALL
GASTEIGER

@<TRIPOS>ATOM
      1 C           3.3359   -0.2103   20.6723 C.ar    1  UNL1        0.1102
      2 N           1.9000    0.2203   20.6189 N.ar    1  UNL1       -0.2306
      3 C           1.4737    1.2926   19.6606 C.ar    1  UNL1        0.1342
      4 C           2.4833    1.9344   18.7556 C.ar    1  UNL1        0.0368
      5 C           3.9191    1.5038   18.8090 C.ar    1  UNL1        0.0338
      6 C           4.3455    0.4314   19.7673 C.ar    1  UNL1        0.1556
      7 F           5.7813    0.0008   19.8206 F       1  UNL1       -0.2029
      8 C           3.8416   -0.4474   26.0517 C.3     1  UNL1        0.0320
      9 C           3.8151   -0.7258   24.5780 C.3     1  UNL1        0.1155
     10 C           4.2149   -2.0765   24.0626 C.3     1  UNL1        0.0328
     11 C           4.1885   -2.3549   22.5889 C.3     1  UNL1        0.0422
     12 C           4.5883   -3.7057   22.0735 C.3     1  UNL1        0.0673
     13 S           4.5619   -3.9841   20.5998 S.3     1  UNL1       -0.0807
     14 C           4.1355   -2.9117   19.6415 C.2     1  UNL1        0.1483
     15 N           4.1091   -3.1901   18.1678 N.pl3   1  UNL1       -0.3380
     16 N           3.7357   -1.5610   20.1569 N.2     1  UNL1       -0.2468
     17 C           3.7622   -1.2826   21.6306 C.3     1  UNL1        0.1513
     18 C           3.3624    0.0681   22.1460 C.3     1  UNL1        0.1701
     19 O           3.3888    0.3465   23.6197 O.3     1  UNL1       -0.3538
     20 H           4.3715   -4.0767   17.8295 H       1  UNL1        0.1442
     21 H           3.8293   -2.4863   17.5388 H       1  UNL1        0.1442
     22 N           0.0378    1.7233   19.6072 N.am    1  UNL1       -0.2646
     23 C          -0.4576    2.7981   20.5288 C.2     1  UNL1        0.2683
     24 O           0.4829    3.4423   21.5038 O.2     1  UNL1       -0.2681
     25 H          -0.5795    1.3005   18.9673 H       1  UNL1        0.1566
     26 C          -1.8934    3.2287   20.4755 C.ar    1  UNL1        0.1350
     27 C          -2.4649    3.7779   19.2020 C.ar    1  UNL1        0.0269
     28 C          -3.9007    4.2085   19.1486 C.ar    1  UNL1        0.0404
     29 C          -4.7652    4.0901   20.3688 C.ar    1  UNL1        0.1634
     30 C          -4.1937    3.5409   21.6423 C.ar    1  UNL1        0.1359
     31 N          -2.7577    3.1102   21.6956 N.ar    1  UNL1       -0.2361
     32 O          -6.2010    4.5207   20.3155 O.3     1  UNL1       -0.4220
     33 C          -7.0450    4.1718   19.1256 C.3     1  UNL1        0.5087
     34 F          -7.0129    2.7807   18.5653 F       1  UNL1       -0.1550
     35 F          -7.9210    5.2138   18.4959 F       1  UNL1       -0.1550
@<TRIPOS>BOND
     1     9     8    1
     2     9    10    1
     3    11    10    1
     4    11    12    1
     5    12    13    1
     6    13    14    1
     7    14    15    1
     8    14    16    2
     9    16    17    1
    10    17     1    1
    11     1     2   ar
    12     2     3   ar
    13     3    22    1
    14    22    23   am
    15    23    24    2
    16    23    26    1
    17    26    27   ar
    18    27    28   ar
    19    28    29   ar
    20    29    32    1
    21    32    33    1
    22    33    34    1
    23    33    35    1
    24    29    30   ar
    25    30    31   ar
    26     3     4   ar
    27     4     5   ar
    28     5     6   ar
    29     6     7    1
    30    17    18    1
    31    18    19    1
    32    19     9    1
    33    17    11    1
    34     6     1   ar
    35    31    26   ar
    36    15    20    1
    37    15    21    1
    38    22    25    1
@<TRIPOS>MOLECULE
*****
 35 38 0 0 0
SMALL
GASTEIGER

@<TRIPOS>ATOM
      1 C           6.2841   -1.6395   29.8762 C.ar    1  UNL1        0.1102
      2 N           5.7462   -1.9495   28.5107 N.ar    1  UNL1       -0.2306
      3 C           6.6284   -2.6007   27.4872 C.ar    1  UNL1        0.1342
      4 C           8.0485   -2.9419   27.8291 C.ar    1  UNL1        0.0368
      5 C           8.5864   -2.6320   29.1946 C.ar    1  UNL1        0.0338
      6 C           7.7042   -1.9808   30.2182 C.ar    1  UNL1        0.1556
      7 F           8.2421   -1.6708   31.5836 F       1  UNL1       -0.2029
      8 C           3.8670    3.1865   30.2181 C.3     1  UNL1        0.0320
      9 C           4.3786    1.7949   30.4453 C.3     1  UNL1        0.1155
     10 C           4.0081    1.0545   31.6960 C.3     1  UNL1        0.0328
     11 C           4.5197   -0.3372   31.9233 C.3     1  UNL1        0.0422
     12 C           4.1491   -1.0776   33.1741 C.3     1  UNL1        0.0673
     13 S           4.6608   -2.4692   33.4013 S.3     1  UNL1       -0.0807
     14 C           5.5430   -3.1204   32.3777 C.2     1  UNL1        0.1483
     15 N           6.0546   -4.5120   32.6049 N.pl3   1  UNL1       -0.3380
     16 N           5.9135   -2.3800   31.1270 N.2     1  UNL1       -0.2468
     17 C           5.4019   -0.9883   30.8998 C.3     1  UNL1        0.1513
     18 C           5.7725   -0.2479   29.6490 C.3     1  UNL1        0.1701
     19 O           5.2608    1.1437   29.4218 O.3     1  UNL1       -0.3538
     20 H           5.8114   -4.9980   33.4259 H       1  UNL1        0.1442
     21 H           6.6337   -4.9394   31.9332 H       1  UNL1        0.1442
     22 N           6.0905   -2.9107   26.1216 N.am    1  UNL1       -0.2646
     23 C           5.8770   -1.8049   25.1308 C.2     1  UNL1        0.2683
     24 O           6.2013   -0.3891   25.5056 O.2     1  UNL1       -0.2681
     25 H           5.8777   -3.8400   25.8757 H       1  UNL1        0.1566
     26 C           5.3391   -2.1149   23.7654 C.ar    1  UNL1        0.1350
     27 C           5.1184   -3.5398   23.3519 C.ar    1  UNL1        0.0269
     28 C           4.5805   -3.8497   21.9864 C.ar    1  UNL1        0.0404
     29 C           4.2634   -2.7347   21.0343 C.ar    1  UNL1        0.1634
     30 C           4.4841   -1.3099   21.4478 C.ar    1  UNL1        0.1359
     31 N           5.0220   -0.9999   22.8134 N.ar    1  UNL1       -0.2361
     32 O           3.7255   -3.0447   19.6688 O.3     1  UNL1       -0.4220
     33 C           3.7340   -4.4565   19.1620 C.3     1  UNL1        0.5087
     34 F           4.8049   -4.9062   18.2129 F       1  UNL1       -0.1550
     35 F           2.6716   -5.4185   19.6043 F       1  UNL1       -0.1550
@<TRIPOS>BOND
     1     9     8    1
     2     9    10    1
     3    11    10    1
     4    11    12    1
     5    12    13    1
     6    13    14    1
     7    14    15    1
     8    14    16    2
     9    16    17    1
    10    17     1    1
    11     1     2   ar
    12     2     3   ar
    13     3    22    1
    14    22    23   am
    15    23    24    2
    16    23    26    1
    17    26    27   ar
    18    27    28   ar
    19    28    29   ar
    20    29    32    1
    21    32    33    1
    22    33    34    1
    23    33    35    1
    24    29    30   ar
    25    30    31   ar
    26     3     4   ar
    27     4     5   ar
    28     5     6   ar
    29     6     7    1
    30    17    18    1
    31    18    19    1
    32    19     9    1
    33    17    11    1
    34     6     1   ar
    35    31    26   ar
    36    15    20    1
    37    15    21    1
    38    22    25    1
@<TRIPOS>MOLECULE
*****
 35 38 0 0 0
SMALL
GASTEIGER

@<TRIPOS>ATOM
      1 C           3.8416   -0.0488   20.0639 C.ar    1  UNL1        0.1102
      2 N           2.4346    0.3559   19.7371 N.ar    1  UNL1       -0.2306
      3 C           2.1781    1.5999   18.9393 C.ar    1  UNL1        0.1342
      4 C           3.3286    2.4393   18.4682 C.ar    1  UNL1        0.0368
      5 C           4.7355    2.0346   18.7950 C.ar    1  UNL1        0.0338
      6 C           4.9920    0.7905   19.5928 C.ar    1  UNL1        0.1556
      7 F           6.3989    0.3859   19.9196 F       1  UNL1       -0.2029
      8 C           4.4800   -5.2632   18.7783 C.3     1  UNL1        0.0320
      9 C           4.3527   -3.9397   19.4728 C.3     1  UNL1        0.1155
     10 C           4.4818   -3.8603   20.9651 C.3     1  UNL1        0.0328
     11 C           4.3545   -2.5369   21.6596 C.3     1  UNL1        0.0422
     12 C           4.4836   -2.4575   23.1519 C.3     1  UNL1        0.0673
     13 S           4.3563   -1.1341   23.8464 S.3     1  UNL1       -0.0807
     14 C           4.0998    0.1100   23.0485 C.2     1  UNL1        0.1483
     15 N           3.9724    1.4334   23.7430 N.pl3   1  UNL1       -0.3380
     16 N           3.9707    0.0306   21.5562 N.2     1  UNL1       -0.2468
     17 C           4.0980   -1.2929   20.8617 C.3     1  UNL1        0.1513
     18 C           3.9689   -1.3723   19.3695 C.3     1  UNL1        0.1701
     19 O           4.0962   -2.6957   18.6750 O.3     1  UNL1       -0.3538
     20 H           4.0572    1.4855   24.7224 H       1  UNL1        0.1442
     21 H           3.8041    2.2499   23.2193 H       1  UNL1        0.1442
     22 N           0.7712    2.0047   18.6125 N.am    1  UNL1       -0.2646
     23 C           0.0794    3.0473   19.4397 C.2     1  UNL1        0.2683
     24 O           0.7946    3.6853   20.5937 O.2     1  UNL1       -0.2681
     25 H           0.3018    1.5860   17.8552 H       1  UNL1        0.1566
     26 C          -1.3275    3.4521   19.1130 C.ar    1  UNL1        0.1350
     27 C          -1.6420    4.0615   17.7790 C.ar    1  UNL1        0.0269
     28 C          -3.0489    4.4662   17.4522 C.ar    1  UNL1        0.0404
     29 C          -4.1414    4.2616   18.4596 C.ar    1  UNL1        0.1634
     30 C          -3.8269    3.6521   19.7936 C.ar    1  UNL1        0.1359
     31 N          -2.4199    3.2474   20.1203 N.ar    1  UNL1       -0.2361
     32 O          -5.5483    4.6663   18.1329 O.3     1  UNL1       -0.4220
     33 C          -6.6958    4.0718   18.8943 C.3     1  UNL1        0.5087
     34 F          -7.3580    4.8573   19.9872 F       1  UNL1       -0.1550
     35 F          -7.1811    2.6917   18.5629 F       1  UNL1       -0.1550
@<TRIPOS>BOND
     1     9     8    1
     2     9    10    1
     3    11    10    1
     4    11    12    1
     5    12    13    1
     6    13    14    1
     7    14    15    1
     8    14    16    2
     9    16    17    1
    10    17     1    1
    11     1     2   ar
    12     2     3   ar
    13     3    22    1
    14    22    23   am
    15    23    24    2
    16    23    26    1
    17    26    27   ar
    18    27    28   ar
    19    28    29   ar
    20    29    32    1
    21    32    33    1
    22    33    34    1
    23    33    35    1
    24    29    30   ar
    25    30    31   ar
    26     3     4   ar
    27     4     5   ar
    28     5     6   ar
    29     6     7    1
    30    17    18    1
    31    18    19    1
    32    19     9    1
    33    17    11    1
    34     6     1   ar
    35    31    26   ar
    36    15    20    1
    37    15    21    1
    38    22    25    1
@<TRIPOS>MOLECULE
*****
 35 38 0 0 0
SMALL
GASTEIGER

@<TRIPOS>ATOM
      1 C           2.6752    3.9771   36.5455 C.ar    1  UNL1        0.1102
      2 N           2.0739    3.4183   35.2900 N.ar    1  UNL1       -0.2306
      3 C           1.2995    4.3119   34.3671 C.ar    1  UNL1        0.1342
      4 C           1.1262    5.7643   34.6998 C.ar    1  UNL1        0.0368
      5 C           1.7275    6.3231   35.9552 C.ar    1  UNL1        0.0338
      6 C           2.5020    5.4295   36.8781 C.ar    1  UNL1        0.1556
      7 F           3.1032    5.9883   38.1336 F       1  UNL1       -0.2029
      8 C           1.3157   -0.0803   39.8530 C.3     1  UNL1        0.0320
      9 C           2.0270    0.9743   39.0581 C.3     1  UNL1        0.1155
     10 C           3.5128    1.1354   39.1861 C.3     1  UNL1        0.0328
     11 C           4.2241    2.1900   38.3912 C.3     1  UNL1        0.0422
     12 C           5.7100    2.3509   38.5192 C.3     1  UNL1        0.0673
     13 S           6.4214    3.4056   37.7243 S.3     1  UNL1       -0.0807
     14 C           5.6468    4.2992   36.8015 C.2     1  UNL1        0.1483
     15 N           6.3581    5.3538   36.0066 N.pl3   1  UNL1       -0.3380
     16 N           4.1610    4.1381   36.6735 N.2     1  UNL1       -0.2468
     17 C           3.4497    3.0835   37.4684 C.3     1  UNL1        0.1513
     18 C           1.9639    2.9225   37.3404 C.3     1  UNL1        0.1701
     19 O           1.2525    1.8679   38.1352 O.3     1  UNL1       -0.3538
     20 H           7.3333    5.4594   36.0906 H       1  UNL1        0.1442
     21 H           5.8498    5.9403   35.4009 H       1  UNL1        0.1442
     22 N           0.6982    3.7532   33.1116 N.am    1  UNL1       -0.2646
     23 C           1.5774    3.4199   31.9428 C.2     1  UNL1        0.2683
     24 O           3.0578    3.6455   32.0296 O.2     1  UNL1       -0.2681
     25 H          -0.2734    3.6051   33.0546 H       1  UNL1        0.1566
     26 C           0.9762    2.8612   30.6873 C.ar    1  UNL1        0.1350
     27 C           0.9992    3.6664   29.4219 C.ar    1  UNL1        0.0269
     28 C           0.3980    3.1076   28.1664 C.ar    1  UNL1        0.0404
     29 C          -0.2263    1.7437   28.1763 C.ar    1  UNL1        0.1634
     30 C          -0.2493    0.9385   29.4417 C.ar    1  UNL1        0.1359
     31 N           0.3520    1.4973   30.6972 N.ar    1  UNL1       -0.2361
     32 O          -0.8274    1.1849   26.9208 O.3     1  UNL1       -0.4220
     33 C          -0.2803    1.5877   25.5835 C.3     1  UNL1        0.5087
     34 F           1.0363    1.0413   25.1164 F       1  UNL1       -0.1550
     35 F          -1.0496    2.5367   24.7132 F       1  UNL1       -0.1550
@<TRIPOS>BOND
     1     9     8    1
     2     9    10    1
     3    11    10    1
     4    11    12    1
     5    12    13    1
     6    13    14    1
     7    14    15    1
     8    14    16    2
     9    16    17    1
    10    17     1    1
    11     1     2   ar
    12     2     3   ar
    13     3    22    1
    14    22    23   am
    15    23    24    2
    16    23    26    1
    17    26    27   ar
    18    27    28   ar
    19    28    29   ar
    20    29    32    1
    21    32    33    1
    22    33    34    1
    23    33    35    1
    24    29    30   ar
    25    30    31   ar
    26     3     4   ar
    27     4     5   ar
    28     5     6   ar
    29     6     7    1
    30    17    18    1
    31    18    19    1
    32    19     9    1
    33    17    11    1
    34     6     1   ar
    35    31    26   ar
    36    15    20    1
    37    15    21    1
    38    22    25    1
@<TRIPOS>MOLECULE
*****
 35 38 0 0 0
SMALL
GASTEIGER

@<TRIPOS>ATOM
      1 C           6.6958   -1.4422   29.4295 C.ar    1  UNL1        0.1102
      2 N           6.3638   -1.9258   28.0489 N.ar    1  UNL1       -0.2306
      3 C           6.6640   -1.0627   26.8594 C.ar    1  UNL1        0.1342
      4 C           7.2961    0.2842   27.0505 C.ar    1  UNL1        0.0368
      5 C           7.6280    0.7678   28.4310 C.ar    1  UNL1        0.0338
      6 C           7.3279   -0.0954   29.6206 C.ar    1  UNL1        0.1556
      7 F           7.6599    0.3882   31.0011 F       1  UNL1       -0.2029
      8 C           8.6670   -6.1389   31.2476 C.3     1  UNL1        0.0320
      9 C           7.9098   -4.8611   31.0380 C.3     1  UNL1        0.1155
     10 C           6.8526   -4.4464   32.0179 C.3     1  UNL1        0.0328
     11 C           6.0955   -3.1686   31.8083 C.3     1  UNL1        0.0422
     12 C           5.0381   -2.7539   32.7883 C.3     1  UNL1        0.0673
     13 S           4.2810   -1.4761   32.5787 S.3     1  UNL1       -0.0807
     14 C           4.5812   -0.6129   31.3892 C.2     1  UNL1        0.1483
     15 N           3.8241    0.6649   31.1797 N.pl3   1  UNL1       -0.3380
     16 N           5.6385   -1.0276   30.4093 N.2     1  UNL1       -0.2468
     17 C           6.3956   -2.3054   30.6189 C.3     1  UNL1        0.1513
     18 C           7.4529   -2.7201   29.6390 C.3     1  UNL1        0.1701
     19 O           8.2100   -3.9979   29.8486 O.3     1  UNL1       -0.3538
     20 H           3.1302    0.9371   31.8228 H       1  UNL1        0.1442
     21 H           4.0211    1.2315   30.3990 H       1  UNL1        0.1442
     22 N           6.3320   -1.5463   25.4788 N.am    1  UNL1       -0.2646
     23 C           4.9052   -1.5741   25.0168 C.2     1  UNL1        0.2683
     24 O           3.8104   -1.1183   25.9354 O.2     1  UNL1       -0.2681
     25 H           7.0506   -1.8454   24.8760 H       1  UNL1        0.1566
     26 C           4.5732   -2.0577   23.6363 C.ar    1  UNL1        0.1350
     27 C           3.8137   -1.1719   22.6937 C.ar    1  UNL1        0.0269
     28 C           3.4817   -1.6554   21.3132 C.ar    1  UNL1        0.0404
     29 C           3.9093   -3.0249   20.8752 C.ar    1  UNL1        0.1634
     30 C           4.6688   -3.9107   21.8177 C.ar    1  UNL1        0.1359
     31 N           5.0008   -3.4271   23.1983 N.ar    1  UNL1       -0.2361
     32 O           3.5773   -3.5085   19.4947 O.3     1  UNL1       -0.4220
     33 C           4.6428   -4.1300   18.6412 C.3     1  UNL1        0.5087
     34 F           4.7618   -5.6230   18.5588 F       1  UNL1       -0.1550
     35 F           5.5894   -3.2586   17.8702 F       1  UNL1       -0.1550
@<TRIPOS>BOND
     1     9     8    1
     2     9    10    1
     3    11    10    1
     4    11    12    1
     5    12    13    1
     6    13    14    1
     7    14    15    1
     8    14    16    2
     9    16    17    1
    10    17     1    1
    11     1     2   ar
    12     2     3   ar
    13     3    22    1
    14    22    23   am
    15    23    24    2
    16    23    26    1
    17    26    27   ar
    18    27    28   ar
    19    28    29   ar
    20    29    32    1
    21    32    33    1
    22    33    34    1
    23    33    35    1
    24    29    30   ar
    25    30    31   ar
    26     3     4   ar
    27     4     5   ar
    28     5     6   ar
    29     6     7    1
    30    17    18    1
    31    18    19    1
    32    19     9    1
    33    17    11    1
    34     6     1   ar
    35    31    26   ar
    36    15    20    1
    37    15    21    1
    38    22    25    1
@<TRIPOS>MOLECULE
*****
 35 38 0 0 0
SMALL
GASTEIGER

@<TRIPOS>ATOM
      1 C           4.4677    1.4746   36.1446 C.ar    1  UNL1        0.1102
      2 N           3.5332    1.4451   34.9715 N.ar    1  UNL1       -0.2306
      3 C           3.7260    0.4297   33.8844 C.ar    1  UNL1        0.1342
      4 C           4.8532   -0.5562   33.9703 C.ar    1  UNL1        0.0368
      5 C           5.7877   -0.5267   35.1433 C.ar    1  UNL1        0.0338
      6 C           5.5949    0.4887   36.2305 C.ar    1  UNL1        0.1556
      7 F           6.5293    0.5182   37.4034 F       1  UNL1       -0.2029
      8 C           0.6822    2.2429   39.9300 C.3     1  UNL1        0.0320
      9 C           1.8797    2.3252   39.0306 C.3     1  UNL1        0.1155
     10 C           2.8845    3.4230   39.2182 C.3     1  UNL1        0.0328
     11 C           4.0821    3.5054   38.3187 C.3     1  UNL1        0.0422
     12 C           5.0869    4.6032   38.5064 C.3     1  UNL1        0.0673
     13 S           6.2845    4.6856   37.6069 S.3     1  UNL1       -0.0807
     14 C           6.4773    3.6701   36.5198 C.2     1  UNL1        0.1483
     15 N           7.6749    3.7525   35.6203 N.pl3   1  UNL1       -0.3380
     16 N           5.4725    2.5724   36.3322 N.2     1  UNL1       -0.2468
     17 C           4.2749    2.4900   37.2316 C.3     1  UNL1        0.1513
     18 C           3.2701    1.3922   37.0440 C.3     1  UNL1        0.1701
     19 O           2.0725    1.3098   37.9435 O.3     1  UNL1       -0.3538
     20 H           8.3343    4.4730   35.7435 H       1  UNL1        0.1442
     21 H           7.8014    3.0861   34.9069 H       1  UNL1        0.1442
     22 N           2.7916    0.4002   32.7114 N.am    1  UNL1       -0.2646
     23 C           3.0927    1.2199   31.4918 C.2     1  UNL1        0.2683
     24 O           4.3283    2.0693   31.4454 O.2     1  UNL1       -0.2681
     25 H           1.9806   -0.1573   32.7419 H       1  UNL1        0.1566
     26 C           2.1583    1.1904   30.3188 C.ar    1  UNL1        0.1350
     27 C           1.9787    2.4155   29.4720 C.ar    1  UNL1        0.0269
     28 C           1.0443    2.3860   28.2990 C.ar    1  UNL1        0.0404
     29 C           0.2895    1.1314   27.9727 C.ar    1  UNL1        0.1634
     30 C           0.4691   -0.0936   28.8195 C.ar    1  UNL1        0.1359
     31 N           1.4035   -0.0641   29.9926 N.ar    1  UNL1       -0.2361
     32 O          -0.6449    1.1019   26.7997 O.3     1  UNL1       -0.4220
     33 C          -0.1319    1.4103   25.4243 C.3     1  UNL1        0.5087
     34 F           1.0618    0.6777   24.8873 F       1  UNL1       -0.1550
     35 F          -0.8127    2.4511   24.5858 F       1  UNL1       -0.1550
@<TRIPOS>BOND
     1     9     8    1
     2     9    10    1
     3    11    10    1
     4    11    12    1
     5    12    13    1
     6    13    14    1
     7    14    15    1
     8    14    16    2
     9    16    17    1
    10    17     1    1
    11     1     2   ar
    12     2     3   ar
    13     3    22    1
    14    22    23   am
    15    23    24    2
    16    23    26    1
    17    26    27   ar
    18    27    28   ar
    19    28    29   ar
    20    29    32    1
    21    32    33    1
    22    33    34    1
    23    33    35    1
    24    29    30   ar
    25    30    31   ar
    26     3     4   ar
    27     4     5   ar
    28     5     6   ar
    29     6     7    1
    30    17    18    1
    31    18    19    1
    32    19     9    1
    33    17    11    1
    34     6     1   ar
    35    31    26   ar
    36    15    20    1
    37    15    21    1
    38    22    25    1
@<TRIPOS>MOLECULE
*****
 35 38 0 0 0
SMALL
GASTEIGER

@<TRIPOS>ATOM
      1 C          -9.8969  -18.4401   20.9648 C.ar    1  UNL1        0.1102
      2 N          -8.4149  -18.3042   20.7760 N.ar    1  UNL1       -0.2306
      3 C          -7.7217  -19.0829   19.6975 C.ar    1  UNL1        0.1342
      4 C          -8.5104  -19.9975   18.8079 C.ar    1  UNL1        0.0368
      5 C          -9.9922  -20.1335   18.9966 C.ar    1  UNL1        0.0338
      6 C         -10.6855  -19.3548   20.0751 C.ar    1  UNL1        0.1556
      7 F         -12.1673  -19.4907   20.2639 F       1  UNL1       -0.2029
      8 C          -9.5463  -18.3784   26.3614 C.3     1  UNL1        0.0320
      9 C          -9.8942  -18.1394   24.9220 C.3     1  UNL1        0.1155
     10 C         -10.9354  -17.1217   24.5610 C.3     1  UNL1        0.0328
     11 C         -11.2833  -16.8827   23.1216 C.3     1  UNL1        0.0422
     12 C         -12.3244  -15.8649   22.7607 C.3     1  UNL1        0.0673
     13 S         -12.6723  -15.6260   21.3213 S.3     1  UNL1       -0.0807
     14 C         -11.9791  -16.4047   20.2428 C.2     1  UNL1        0.1483
     15 N         -12.3270  -16.1657   18.8035 N.pl3   1  UNL1       -0.3380
     16 N         -10.9380  -17.4224   20.6038 N.2     1  UNL1       -0.2468
     17 C         -10.5901  -17.6614   22.0432 C.3     1  UNL1        0.1513
     18 C          -9.5489  -18.6791   22.4042 C.3     1  UNL1        0.1701
     19 O          -9.2010  -18.9181   23.8436 O.3     1  UNL1       -0.3538
     20 H         -13.0103  -15.4978   18.5665 H       1  UNL1        0.1442
     21 H         -11.8720  -16.6768   18.0956 H       1  UNL1        0.1442
     22 N          -6.2398  -18.9470   19.5087 N.am    1  UNL1       -0.2646
     23 C          -5.3111  -19.1974   20.6597 C.2     1  UNL1        0.2683
     24 O          -5.8642  -19.5838   21.9994 O.2     1  UNL1       -0.2681
     25 H          -5.8768  -18.6934   18.6294 H       1  UNL1        0.1566
     26 C          -3.8292  -19.0615   20.4709 C.ar    1  UNL1        0.1350
     27 C          -2.8871  -19.6886   21.4554 C.ar    1  UNL1        0.0269
     28 C          -1.4053  -19.5527   21.2667 C.ar    1  UNL1        0.0404
     29 C          -0.8655  -18.7897   20.0934 C.ar    1  UNL1        0.1634
     30 C          -1.8076  -18.1626   19.1089 C.ar    1  UNL1        0.1359
     31 N          -3.2895  -18.2985   19.2977 N.ar    1  UNL1       -0.2361
     32 O           0.6163  -18.6538   19.9046 O.3     1  UNL1       -0.4220
     33 C           1.3020  -17.3664   20.2547 C.3     1  UNL1        0.5087
     34 F           2.6100  -17.3889   20.9886 F       1  UNL1       -0.1550
     35 F           0.6798  -16.0567   19.8710 F       1  UNL1       -0.1550
@<TRIPOS>BOND
     1     9     8    1
     2     9    10    1
     3    11    10    1
     4    11    12    1
     5    12    13    1
     6    13    14    1
     7    14    15    1
     8    14    16    2
     9    16    17    1
    10    17     1    1
    11     1     2   ar
    12     2     3   ar
    13     3    22    1
    14    22    23   am
    15    23    24    2
    16    23    26    1
    17    26    27   ar
    18    27    28   ar
    19    28    29   ar
    20    29    32    1
    21    32    33    1
    22    33    34    1
    23    33    35    1
    24    29    30   ar
    25    30    31   ar
    26     3     4   ar
    27     4     5   ar
    28     5     6   ar
    29     6     7    1
    30    17    18    1
    31    18    19    1
    32    19     9    1
    33    17    11    1
    34     6     1   ar
    35    31    26   ar
    36    15    20    1
    37    15    21    1
    38    22    25    1
