@<TRIPOS>MOLECULE
*****
 37 39 0 0 0
SMALL
GASTEIGER

@<TRIPOS>ATOM
      1 C          -7.4990  -16.7810   23.5402 C.ar    1  UNL1       -0.0022
      2 C          -6.8100  -16.0068   24.6245 C.ar    1  UNL1        0.0012
      3 C          -7.5269  -15.7156   25.9095 C.ar    1  UNL1        0.0712
      4 C          -8.9328  -16.1986   26.1101 C.ar    1  UNL1        0.0038
      5 C          -9.6217  -16.9728   25.0258 C.ar    1  UNL1       -0.0002
      6 C          -8.9048  -17.2640   23.7408 C.ar    1  UNL1        0.0005
      7 C          -9.5938  -18.0383   22.6563 C.ar    1  UNL1        0.0334
      8 C         -10.1676  -17.3203   21.4709 C.ar    1  UNL1       -0.0009
      9 C         -10.8565  -18.0945   20.3865 C.ar    1  UNL1       -0.0164
     10 C         -10.9717  -19.5867   20.4875 C.ar    1  UNL1       -0.0008
     11 C         -10.3979  -20.3046   21.6729 C.ar    1  UNL1        0.0366
     12 C          -9.7089  -19.5304   22.7574 C.ar    1  UNL1        0.1386
     13 O          -9.1351  -20.2483   23.9428 O.3     1  UNL1       -0.4714
     14 C         -10.0326  -20.6809   25.0643 C.3     1  UNL1        0.2525
     15 C         -11.4303  -17.3765   19.2010 C.3     1  UNL1        0.0679
     16 C         -11.7438  -15.9124   19.2905 C.2     1  UNL1        0.0547
     17 O         -10.7004  -14.8983   18.9258 O.co2   1  UNL1       -0.5488
     18 O         -13.1007  -15.4623   19.7447 O.co2   1  UNL1       -0.5488
     19 C          -6.8379  -14.9413   26.9940 C.3     1  UNL1        0.4186
     20 F          -6.1490  -14.1671   28.0783 F       1  UNL1       -0.1659
     21 F          -5.5233  -15.1377   26.2989 F       1  UNL1       -0.1659
     22 F          -8.1526  -14.7449   27.6890 F       1  UNL1       -0.1659
     23 C          -6.7821  -17.0722   22.2551 C.3     1  UNL1        0.1234
     24 N          -6.0458  -18.3678   22.0840 N.am    1  UNL1       -0.2419
     25 C          -6.4265  -19.3064   20.9776 C.2     1  UNL1        0.4054
     26 O          -7.5435  -18.9494   20.0423 O.2     1  UNL1       -0.2262
     27 C          -3.8701  -17.7130   23.3441 C.3     1  UNL1        0.0234
     28 C          -4.9288  -18.7248   23.0193 C.3     1  UNL1        0.0971
     29 O          -5.6902  -20.6020   20.8065 O.3     1  UNL1       -0.4295
     30 C          -4.5199  -20.6818   19.8717 C.3     1  UNL1        0.2367
     31 C          -3.4262  -19.6582   19.9501 C.ar    1  UNL1        0.0214
     32 C          -3.4658  -18.4490   19.0634 C.ar    1  UNL1        0.0002
     33 C          -2.3721  -17.4254   19.1417 C.ar    1  UNL1        0.0112
     34 C          -1.2389  -17.6109   20.1068 C.ar    1  UNL1        0.0577
     35 CL         -0.1453  -16.5873   20.1852 Cl      1  UNL1       -0.0822
     36 C          -1.1994  -18.8201   20.9935 C.ar    1  UNL1        0.0112
     37 C          -2.2930  -19.8437   20.9151 C.ar    1  UNL1        0.0002
@<TRIPOS>UNITY_ATOM_ATTR
17 1
charge -1
@<TRIPOS>BOND
     1    27    28    1
     2    28    24    1
     3    24    23    1
     4    23     1    1
     5     1     2   ar
     6     2     3   ar
     7     3    19    1
     8    19    20    1
     9    19    21    1
    10    19    22    1
    11     3     4   ar
    12     4     5   ar
    13     5     6   ar
    14     6     7    1
    15     7     8   ar
    16     8     9   ar
    17     9    15    1
    18    15    16    1
    19    16    17   ar
    20    16    18   ar
    21     9    10   ar
    22    10    11   ar
    23    11    12   ar
    24    12    13    1
    25    13    14    1
    26    24    25   am
    27    25    26    2
    28    25    29    1
    29    29    30    1
    30    30    31    1
    31    31    32   ar
    32    32    33   ar
    33    33    34   ar
    34    34    35    1
    35    34    36   ar
    36    36    37   ar
    37     6     1   ar
    38    12     7   ar
    39    37    31   ar
@<TRIPOS>MOLECULE
*****
 37 39 0 0 0
SMALL
GASTEIGER

@<TRIPOS>ATOM
      1 C          -7.5466  -16.6811   23.8669 C.ar    1  UNL1       -0.0022
      2 C          -6.8288  -15.8684   24.9033 C.ar    1  UNL1        0.0012
      3 C          -7.5268  -15.4909   26.1761 C.ar    1  UNL1        0.0712
      4 C          -8.9427  -15.9260   26.4125 C.ar    1  UNL1        0.0038
      5 C          -9.6606  -16.7387   25.3761 C.ar    1  UNL1       -0.0002
      6 C          -8.9625  -17.1162   24.1032 C.ar    1  UNL1        0.0005
      7 C          -9.6804  -17.9289   23.0667 C.ar    1  UNL1        0.0334
      8 C         -10.0823  -17.2992   21.7660 C.ar    1  UNL1       -0.0009
      9 C         -10.8001  -18.1118   20.7295 C.ar    1  UNL1       -0.0164
     10 C         -11.1160  -19.5542   20.9937 C.ar    1  UNL1       -0.0008
     11 C         -10.7141  -20.1839   22.2944 C.ar    1  UNL1        0.0366
     12 C          -9.9963  -19.3712   23.3310 C.ar    1  UNL1        0.1386
     13 O          -9.5944  -20.0009   24.6317 O.3     1  UNL1       -0.4714
     14 C          -9.5678  -21.4948   24.7652 C.3     1  UNL1        0.2525
     15 C         -11.2020  -17.4821   19.4287 C.3     1  UNL1        0.0679
     16 C         -11.6706  -16.0575   19.3983 C.2     1  UNL1        0.0547
     17 O         -13.0503  -15.7114   19.8745 O.co2   1  UNL1       -0.5488
     18 O         -10.7595  -14.9789   18.8917 O.co2   1  UNL1       -0.5488
     19 C          -6.8090  -14.6782   27.2127 C.3     1  UNL1        0.4186
     20 F          -6.0911  -13.8656   28.2491 F       1  UNL1       -0.1659
     21 F          -5.5259  -14.8434   26.4535 F       1  UNL1       -0.1659
     22 F          -8.0921  -14.5130   27.9718 F       1  UNL1       -0.1659
     23 C          -6.8485  -17.0587   22.5940 C.3     1  UNL1        0.1234
     24 N          -6.0817  -18.3452   22.5123 N.am    1  UNL1       -0.2419
     25 C          -4.6784  -18.4165   23.0375 C.2     1  UNL1        0.4054
     26 O          -4.0420  -17.2013   23.6442 O.2     1  UNL1       -0.2262
     27 C          -7.2426  -19.5104   20.5012 C.3     1  UNL1        0.0234
     28 C          -6.7181  -19.5605   21.9056 C.3     1  UNL1        0.0971
     29 O          -3.9115  -19.7031   22.9559 O.3     1  UNL1       -0.4295
     30 C          -2.5844  -19.7422   22.2579 C.3     1  UNL1        0.2367
     31 C          -2.4181  -19.0749   20.9248 C.ar    1  UNL1        0.0214
     32 C          -1.1296  -18.3854   20.5868 C.ar    1  UNL1        0.0002
     33 C          -0.9633  -17.7181   19.2537 C.ar    1  UNL1        0.0112
     34 C          -2.0855  -17.7403   18.2587 C.ar    1  UNL1        0.0577
     35 CL         -1.9192  -17.0730   16.9257 Cl      1  UNL1       -0.0822
     36 C          -3.3740  -18.4298   18.5968 C.ar    1  UNL1        0.0112
     37 C          -3.5403  -19.0971   19.9298 C.ar    1  UNL1        0.0002
@<TRIPOS>UNITY_ATOM_ATTR
17 1
charge -1
@<TRIPOS>BOND
     1    27    28    1
     2    28    24    1
     3    24    23    1
     4    23     1    1
     5     1     2   ar
     6     2     3   ar
     7     3    19    1
     8    19    20    1
     9    19    21    1
    10    19    22    1
    11     3     4   ar
    12     4     5   ar
    13     5     6   ar
    14     6     7    1
    15     7     8   ar
    16     8     9   ar
    17     9    15    1
    18    15    16    1
    19    16    17   ar
    20    16    18   ar
    21     9    10   ar
    22    10    11   ar
    23    11    12   ar
    24    12    13    1
    25    13    14    1
    26    24    25   am
    27    25    26    2
    28    25    29    1
    29    29    30    1
    30    30    31    1
    31    31    32   ar
    32    32    33   ar
    33    33    34   ar
    34    34    35    1
    35    34    36   ar
    36    36    37   ar
    37     6     1   ar
    38    12     7   ar
    39    37    31   ar
@<TRIPOS>MOLECULE
*****
 37 39 0 0 0
SMALL
GASTEIGER

@<TRIPOS>ATOM
      1 C          -8.5852  -18.5172   22.2099 C.ar    1  UNL1       -0.0022
      2 C          -7.2610  -19.1763   21.9606 C.ar    1  UNL1        0.0012
      3 C          -6.9887  -19.8369   20.6418 C.ar    1  UNL1        0.0712
      4 C          -8.0405  -19.8385   19.5723 C.ar    1  UNL1        0.0038
      5 C          -9.3646  -19.1794   19.8217 C.ar    1  UNL1       -0.0002
      6 C          -9.6370  -18.5187   21.1405 C.ar    1  UNL1        0.0005
      7 C         -10.9611  -17.8596   21.3899 C.ar    1  UNL1        0.0334
      8 C         -11.8643  -18.3762   22.4703 C.ar    1  UNL1       -0.0009
      9 C         -13.1885  -17.7171   22.7198 C.ar    1  UNL1       -0.0164
     10 C         -13.6095  -16.5414   21.8887 C.ar    1  UNL1       -0.0008
     11 C         -12.7063  -16.0248   20.8083 C.ar    1  UNL1        0.0366
     12 C         -11.3821  -16.6840   20.5589 C.ar    1  UNL1        0.1386
     13 O         -10.4789  -16.1674   19.4784 O.3     1  UNL1       -0.4714
     14 C         -10.8222  -14.8977   18.7572 C.3     1  UNL1        0.2525
     15 C         -14.0917  -18.2337   23.8002 C.3     1  UNL1        0.0679
     16 C         -13.5190  -18.6412   25.1253 C.2     1  UNL1        0.0547
     17 O         -12.0480  -18.9033   25.2580 O.co2   1  UNL1       -0.5488
     18 O         -14.4173  -18.7865   26.3178 O.co2   1  UNL1       -0.5488
     19 C          -5.6645  -20.4961   20.3924 C.3     1  UNL1        0.4186
     20 F          -4.3404  -21.1551   20.1430 F       1  UNL1       -0.1659
     21 F          -5.1264  -19.2076   19.8444 F       1  UNL1       -0.1659
     22 F          -6.2026  -21.7845   20.9403 F       1  UNL1       -0.1659
     23 C          -8.8576  -17.8564   23.5288 C.3     1  UNL1        0.1234
     24 N          -7.9180  -16.8107   24.0520 N.am    1  UNL1       -0.2419
     25 C          -7.3279  -15.7972   23.1167 C.2     1  UNL1        0.4054
     26 O          -7.6774  -15.8294   21.6583 O.2     1  UNL1       -0.2262
     27 C          -8.2298  -15.7841   26.4181 C.3     1  UNL1        0.0234
     28 C          -7.5686  -16.7784   25.5103 C.3     1  UNL1        0.0971
     29 O          -6.3884  -14.7514   23.6398 O.3     1  UNL1       -0.4295
     30 C          -5.0225  -15.1431   24.1202 C.3     1  UNL1        0.2367
     31 C          -4.2351  -16.1810   23.3767 C.ar    1  UNL1        0.0214
     32 C          -4.4958  -17.6378   23.6211 C.ar    1  UNL1        0.0002
     33 C          -3.7084  -18.6757   22.8776 C.ar    1  UNL1        0.0112
     34 C          -2.6602  -18.2569   21.8898 C.ar    1  UNL1        0.0577
     35 CL         -1.8728  -19.2948   21.1464 Cl      1  UNL1       -0.0822
     36 C          -2.3995  -16.8001   21.6455 C.ar    1  UNL1        0.0112
     37 C          -3.1869  -15.7622   22.3889 C.ar    1  UNL1        0.0002
@<TRIPOS>UNITY_ATOM_ATTR
17 1
charge -1
@<TRIPOS>BOND
     1    27    28    1
     2    28    24    1
     3    24    23    1
     4    23     1    1
     5     1     2   ar
     6     2     3   ar
     7     3    19    1
     8    19    20    1
     9    19    21    1
    10    19    22    1
    11     3     4   ar
    12     4     5   ar
    13     5     6   ar
    14     6     7    1
    15     7     8   ar
    16     8     9   ar
    17     9    15    1
    18    15    16    1
    19    16    17   ar
    20    16    18   ar
    21     9    10   ar
    22    10    11   ar
    23    11    12   ar
    24    12    13    1
    25    13    14    1
    26    24    25   am
    27    25    26    2
    28    25    29    1
    29    29    30    1
    30    30    31    1
    31    31    32   ar
    32    32    33   ar
    33    33    34   ar
    34    34    35    1
    35    34    36   ar
    36    36    37   ar
    37     6     1   ar
    38    12     7   ar
    39    37    31   ar
@<TRIPOS>MOLECULE
*****
 37 39 0 0 0
SMALL
GASTEIGER

@<TRIPOS>ATOM
      1 C          -9.3353  -17.8256   23.0495 C.ar    1  UNL1       -0.0022
      2 C         -10.6519  -18.2657   22.4813 C.ar    1  UNL1        0.0012
      3 C         -11.8529  -17.3743   22.5939 C.ar    1  UNL1        0.0712
      4 C         -11.7375  -16.0427   23.2748 C.ar    1  UNL1        0.0038
      5 C         -10.4209  -15.6026   23.8430 C.ar    1  UNL1       -0.0002
      6 C          -9.2199  -16.4940   23.7304 C.ar    1  UNL1        0.0005
      7 C          -7.9032  -16.0539   24.2987 C.ar    1  UNL1        0.0334
      8 C          -6.7692  -15.7054   23.3809 C.ar    1  UNL1       -0.0009
      9 C          -5.4526  -15.2653   23.9491 C.ar    1  UNL1       -0.0164
     10 C          -5.2700  -15.1736   25.4351 C.ar    1  UNL1       -0.0008
     11 C          -6.4041  -15.5222   26.3530 C.ar    1  UNL1        0.0366
     12 C          -7.7208  -15.9623   25.7847 C.ar    1  UNL1        0.1386
     13 O          -8.8548  -16.3108   26.7025 O.3     1  UNL1       -0.4714
     14 C          -9.3016  -17.7367   26.8348 C.3     1  UNL1        0.2525
     15 C          -4.3185  -14.9167   23.0312 C.3     1  UNL1        0.0679
     16 C          -3.4628  -16.0031   22.4503 C.2     1  UNL1        0.0547
     17 O          -2.2333  -15.6511   21.6663 O.co2   1  UNL1       -0.5488
     18 O          -3.8364  -17.4416   22.6534 O.co2   1  UNL1       -0.5488
     19 C         -13.1696  -17.8144   22.0256 C.3     1  UNL1        0.4186
     20 F         -14.4862  -18.2545   21.4575 F       1  UNL1       -0.1659
     21 F         -13.7540  -17.8491   23.4067 F       1  UNL1       -0.1659
     22 F         -12.5852  -17.7797   20.6446 F       1  UNL1       -0.1659
     23 C          -8.1342  -18.7170   22.9369 C.3     1  UNL1        0.1234
     24 N          -7.5980  -19.0858   21.5855 N.am    1  UNL1       -0.2419
     25 C          -6.3083  -19.8433   21.4714 C.2     1  UNL1        0.4054
     26 O          -5.5547  -20.2318   22.7088 O.2     1  UNL1       -0.2262
     27 C          -9.1540  -19.7240   19.6051 C.3     1  UNL1        0.0234
     28 C          -8.3515  -18.6973   20.3481 C.3     1  UNL1        0.0971
     29 O          -5.7721  -20.2121   20.1199 O.3     1  UNL1       -0.4295
     30 C          -4.3849  -20.7676   19.9895 C.3     1  UNL1        0.2367
     31 C          -3.2032  -19.8437   19.9972 C.ar    1  UNL1        0.0214
     32 C          -2.9833  -18.8977   18.8541 C.ar    1  UNL1        0.0002
     33 C          -1.8016  -17.9738   18.8618 C.ar    1  UNL1        0.0112
     34 C          -0.8398  -17.9960   20.0127 C.ar    1  UNL1        0.0577
     35 CL          0.3418  -17.0721   20.0204 Cl      1  UNL1       -0.0822
     36 C          -1.0597  -18.9420   21.1557 C.ar    1  UNL1        0.0112
     37 C          -2.2414  -19.8658   21.1480 C.ar    1  UNL1        0.0002
@<TRIPOS>UNITY_ATOM_ATTR
17 1
charge -1
@<TRIPOS>BOND
     1    27    28    1
     2    28    24    1
     3    24    23    1
     4    23     1    1
     5     1     2   ar
     6     2     3   ar
     7     3    19    1
     8    19    20    1
     9    19    21    1
    10    19    22    1
    11     3     4   ar
    12     4     5   ar
    13     5     6   ar
    14     6     7    1
    15     7     8   ar
    16     8     9   ar
    17     9    15    1
    18    15    16    1
    19    16    17   ar
    20    16    18   ar
    21     9    10   ar
    22    10    11   ar
    23    11    12   ar
    24    12    13    1
    25    13    14    1
    26    24    25   am
    27    25    26    2
    28    25    29    1
    29    29    30    1
    30    30    31    1
    31    31    32   ar
    32    32    33   ar
    33    33    34   ar
    34    34    35    1
    35    34    36   ar
    36    36    37   ar
    37     6     1   ar
    38    12     7   ar
    39    37    31   ar
@<TRIPOS>MOLECULE
*****
 37 39 0 0 0
SMALL
GASTEIGER

@<TRIPOS>ATOM
      1 C          -2.2583    3.7073   24.1165 C.ar    1  UNL1       -0.0022
      2 C          -3.4277    3.8323   23.1855 C.ar    1  UNL1        0.0012
      3 C          -4.8242    3.8438   23.7329 C.ar    1  UNL1        0.0712
      4 C          -5.0513    3.7304   25.2112 C.ar    1  UNL1        0.0038
      5 C          -3.8818    3.6055   26.1422 C.ar    1  UNL1       -0.0002
      6 C          -2.4854    3.5939   25.5949 C.ar    1  UNL1        0.0005
      7 C          -1.3158    3.4690   26.5259 C.ar    1  UNL1        0.0334
      8 C          -0.7134    2.1222   26.7967 C.ar    1  UNL1       -0.0009
      9 C           0.4561    1.9972   27.7276 C.ar    1  UNL1       -0.0164
     10 C           1.0231    3.2190   28.3878 C.ar    1  UNL1       -0.0008
     11 C           0.4207    4.5658   28.1170 C.ar    1  UNL1        0.0366
     12 C          -0.7489    4.6907   27.1860 C.ar    1  UNL1        0.1386
     13 O          -1.3513    6.0374   26.9152 O.3     1  UNL1       -0.4714
     14 C          -2.3490    6.6190   27.8725 C.3     1  UNL1        0.2525
     15 C           1.0585    0.6505   27.9985 C.3     1  UNL1        0.0679
     16 C           0.6274   -0.1360   29.2007 C.2     1  UNL1        0.0547
     17 O          -0.8056   -0.5540   29.3492 O.co2   1  UNL1       -0.5488
     18 O           1.6291   -0.5044   30.2547 O.co2   1  UNL1       -0.5488
     19 C          -5.9937    3.9688   22.8019 C.3     1  UNL1        0.4186
     20 F          -7.1631    4.0937   21.8709 F       1  UNL1       -0.1659
     21 F          -5.0888    3.7198   21.6318 F       1  UNL1       -0.1659
     22 F          -6.8986    4.2177   23.9719 F       1  UNL1       -0.1659
     23 C          -0.8617    3.6958   23.5691 C.3     1  UNL1        0.1234
     24 N          -0.3399    2.4750   22.8709 N.am    1  UNL1       -0.2419
     25 C          -0.6033    2.2780   21.4073 C.2     1  UNL1        0.4054
     26 O          -1.3883    3.3017   20.6421 O.2     1  UNL1       -0.2262
     27 C           1.8217    1.7796   24.1332 C.3     1  UNL1        0.0234
     28 C           0.4451    1.4513   23.6361 C.3     1  UNL1        0.0971
     29 O          -0.0815    1.0573   20.7091 O.3     1  UNL1       -0.4295
     30 C           0.8030    1.2017   19.5063 C.3     1  UNL1        0.2367
     31 C           1.8408    0.1603   19.2090 C.ar    1  UNL1        0.0214
     32 C           2.0235   -1.0031   20.1381 C.ar    1  UNL1        0.0002
     33 C           3.0612   -2.0446   19.8408 C.ar    1  UNL1        0.0112
     34 C           3.9163   -1.9227   18.6144 C.ar    1  UNL1        0.0577
     35 CL          4.9541   -2.9642   18.3171 Cl      1  UNL1       -0.0822
     36 C           3.7336   -0.7593   17.6854 C.ar    1  UNL1        0.0112
     37 C           2.6958    0.2821   17.9826 C.ar    1  UNL1        0.0002
@<TRIPOS>UNITY_ATOM_ATTR
17 1
charge -1
@<TRIPOS>BOND
     1    27    28    1
     2    28    24    1
     3    24    23    1
     4    23     1    1
     5     1     2   ar
     6     2     3   ar
     7     3    19    1
     8    19    20    1
     9    19    21    1
    10    19    22    1
    11     3     4   ar
    12     4     5   ar
    13     5     6   ar
    14     6     7    1
    15     7     8   ar
    16     8     9   ar
    17     9    15    1
    18    15    16    1
    19    16    17   ar
    20    16    18   ar
    21     9    10   ar
    22    10    11   ar
    23    11    12   ar
    24    12    13    1
    25    13    14    1
    26    24    25   am
    27    25    26    2
    28    25    29    1
    29    29    30    1
    30    30    31    1
    31    31    32   ar
    32    32    33   ar
    33    33    34   ar
    34    34    35    1
    35    34    36   ar
    36    36    37   ar
    37     6     1   ar
    38    12     7   ar
    39    37    31   ar
@<TRIPOS>MOLECULE
*****
 37 39 0 0 0
SMALL
GASTEIGER

@<TRIPOS>ATOM
      1 C         -16.5017   -2.3953   19.0571 C.ar    1  UNL1       -0.0022
      2 C         -16.4766   -0.9829   19.5615 C.ar    1  UNL1        0.0012
      3 C         -17.6587   -0.4294   20.3005 C.ar    1  UNL1        0.0712
      4 C         -18.8659   -1.2883   20.5351 C.ar    1  UNL1        0.0038
      5 C         -18.8910   -2.7007   20.0307 C.ar    1  UNL1       -0.0002
      6 C         -17.7088   -3.2542   19.2917 C.ar    1  UNL1        0.0005
      7 C         -17.7339   -4.6667   18.7873 C.ar    1  UNL1        0.0334
      8 C         -17.2398   -5.7832   19.6587 C.ar    1  UNL1       -0.0009
      9 C         -17.2648   -7.1956   19.1544 C.ar    1  UNL1       -0.0164
     10 C         -17.7838   -7.4916   17.7785 C.ar    1  UNL1       -0.0008
     11 C         -18.2779   -6.3751   16.9070 C.ar    1  UNL1        0.0366
     12 C         -18.2529   -4.9627   17.4115 C.ar    1  UNL1        0.1386
     13 O         -18.7470   -3.8462   16.5400 O.3     1  UNL1       -0.4714
     14 C         -20.2071   -3.5031   16.5164 C.3     1  UNL1        0.2525
     15 C         -16.7707   -8.3120   20.0258 C.3     1  UNL1        0.0679
     16 C         -16.1508   -9.5292   19.4060 C.2     1  UNL1        0.0547
     17 O         -16.8945  -10.8319   19.4053 O.co2   1  UNL1       -0.5488
     18 O         -14.7873   -9.4437   18.7867 O.co2   1  UNL1       -0.5488
     19 C         -17.6337    0.9830   20.8049 C.3     1  UNL1        0.4186
     20 F         -17.6088    2.3954   21.3094 F       1  UNL1       -0.1659
     21 F         -19.0263    0.8175   21.3372 F       1  UNL1       -0.1659
     22 F         -16.2412    1.1485   20.2726 F       1  UNL1       -0.1659
     23 C         -15.3195   -2.9489   18.3180 C.3     1  UNL1        0.1234
     24 N         -13.9451   -2.8331   18.9075 N.am    1  UNL1       -0.2419
     25 C         -12.9987   -1.7842   18.4033 C.2     1  UNL1        0.4054
     26 O         -13.4267   -0.8512   17.3096 O.2     1  UNL1       -0.2262
     27 C         -13.5151   -5.2475   19.7654 C.3     1  UNL1        0.0234
     28 C         -13.5171   -3.7661   20.0012 C.3     1  UNL1        0.0971
     29 O         -11.6242   -1.6684   18.9928 O.3     1  UNL1       -0.4295
     30 C         -10.4565   -2.3112   18.3049 C.3     1  UNL1        0.2367
     31 C         -10.4215   -3.7993   18.1194 C.ar    1  UNL1        0.0214
     32 C         -11.0105   -4.4152   16.8851 C.ar    1  UNL1        0.0002
     33 C         -10.9755   -5.9033   16.6995 C.ar    1  UNL1        0.0112
     34 C         -10.3515   -6.7754   17.7483 C.ar    1  UNL1        0.0577
     35 CL        -10.3165   -8.2635   17.5628 Cl      1  UNL1       -0.0822
     36 C          -9.7625   -6.1594   18.9826 C.ar    1  UNL1        0.0112
     37 C          -9.7975   -4.6714   19.1682 C.ar    1  UNL1        0.0002
@<TRIPOS>UNITY_ATOM_ATTR
17 1
charge -1
@<TRIPOS>BOND
     1    27    28    1
     2    28    24    1
     3    24    23    1
     4    23     1    1
     5     1     2   ar
     6     2     3   ar
     7     3    19    1
     8    19    20    1
     9    19    21    1
    10    19    22    1
    11     3     4   ar
    12     4     5   ar
    13     5     6   ar
    14     6     7    1
    15     7     8   ar
    16     8     9   ar
    17     9    15    1
    18    15    16    1
    19    16    17   ar
    20    16    18   ar
    21     9    10   ar
    22    10    11   ar
    23    11    12   ar
    24    12    13    1
    25    13    14    1
    26    24    25   am
    27    25    26    2
    28    25    29    1
    29    29    30    1
    30    30    31    1
    31    31    32   ar
    32    32    33   ar
    33    33    34   ar
    34    34    35    1
    35    34    36   ar
    36    36    37   ar
    37     6     1   ar
    38    12     7   ar
    39    37    31   ar
@<TRIPOS>MOLECULE
*****
 37 39 0 0 0
SMALL
GASTEIGER

@<TRIPOS>ATOM
      1 C           2.2507   -0.7179   19.7347 C.ar    1  UNL1       -0.0022
      2 C           2.8177   -2.1064   19.7117 C.ar    1  UNL1        0.0012
      3 C           3.8498   -2.4781   18.6887 C.ar    1  UNL1        0.0712
      4 C           4.3149   -1.4614   17.6888 C.ar    1  UNL1        0.0038
      5 C           3.7478   -0.0729   17.7118 C.ar    1  UNL1       -0.0002
      6 C           2.7157    0.2988   18.7348 C.ar    1  UNL1        0.0005
      7 C           2.1487    1.6874   18.7578 C.ar    1  UNL1        0.0334
      8 C           0.8253    1.9679   18.1098 C.ar    1  UNL1       -0.0009
      9 C           0.2582    3.3563   18.1329 C.ar    1  UNL1       -0.0164
     10 C           1.0145    4.4644   18.8039 C.ar    1  UNL1       -0.0008
     11 C           2.3379    4.1839   19.4519 C.ar    1  UNL1        0.0366
     12 C           2.9050    2.7953   19.4289 C.ar    1  UNL1        0.1386
     13 O           4.2284    2.5149   20.0769 O.3     1  UNL1       -0.4714
     14 C           5.5016    2.8445   19.3554 C.3     1  UNL1        0.2525
     15 C          -1.0652    3.6368   17.4849 C.3     1  UNL1        0.0679
     16 C          -2.1475    4.3293   18.2588 C.2     1  UNL1        0.0547
     17 O          -2.7374    3.6751   19.4730 O.co2   1  UNL1       -0.5488
     18 O          -2.6399    5.6761   17.8187 O.co2   1  UNL1       -0.5488
     19 C           4.4168   -3.8667   18.6656 C.3     1  UNL1        0.4186
     20 F           4.9839   -5.2551   18.6426 F       1  UNL1       -0.1659
     21 F           3.1236   -4.4037   19.2033 F       1  UNL1       -0.1659
     22 F           5.7101   -3.3296   18.1280 F       1  UNL1       -0.1659
     23 C           1.2185   -0.3461   20.7577 C.3     1  UNL1        0.1234
     24 N           1.5613    0.6211   21.8518 N.am    1  UNL1       -0.2419
     25 C           0.6394    1.7640   22.1585 C.2     1  UNL1        0.4054
     26 O          -0.6252    1.9396   21.3712 O.2     1  UNL1       -0.2262
     27 C           3.0725   -0.8310   23.3872 C.3     1  UNL1        0.0234
     28 C           2.8259    0.4455   22.6391 C.3     1  UNL1        0.0971
     29 O           0.9822    2.7313   23.2525 O.3     1  UNL1       -0.4295
     30 C           0.0838    2.8623   24.4465 C.3     1  UNL1        0.2367
     31 C           0.3723    2.0777   25.6919 C.ar    1  UNL1        0.0214
     32 C          -0.7292    1.7885   26.6682 C.ar    1  UNL1        0.0002
     33 C          -0.4407    1.0039   27.9136 C.ar    1  UNL1        0.0112
     34 C           0.9493    0.5084   28.1828 C.ar    1  UNL1        0.0577
     35 CL          1.2378   -0.2762   29.4283 Cl      1  UNL1       -0.0822
     36 C           2.0507    0.7976   27.2066 C.ar    1  UNL1        0.0112
     37 C           1.7622    1.5822   25.9611 C.ar    1  UNL1        0.0002
@<TRIPOS>UNITY_ATOM_ATTR
17 1
charge -1
@<TRIPOS>BOND
     1    27    28    1
     2    28    24    1
     3    24    23    1
     4    23     1    1
     5     1     2   ar
     6     2     3   ar
     7     3    19    1
     8    19    20    1
     9    19    21    1
    10    19    22    1
    11     3     4   ar
    12     4     5   ar
    13     5     6   ar
    14     6     7    1
    15     7     8   ar
    16     8     9   ar
    17     9    15    1
    18    15    16    1
    19    16    17   ar
    20    16    18   ar
    21     9    10   ar
    22    10    11   ar
    23    11    12   ar
    24    12    13    1
    25    13    14    1
    26    24    25   am
    27    25    26    2
    28    25    29    1
    29    29    30    1
    30    30    31    1
    31    31    32   ar
    32    32    33   ar
    33    33    34   ar
    34    34    35    1
    35    34    36   ar
    36    36    37   ar
    37     6     1   ar
    38    12     7   ar
    39    37    31   ar
@<TRIPOS>MOLECULE
*****
 37 39 0 0 0
SMALL
GASTEIGER

@<TRIPOS>ATOM
      1 C         -10.9556  -18.2868   23.5282 C.ar    1  UNL1       -0.0022
      2 C         -12.3285  -18.8842   23.6181 C.ar    1  UNL1        0.0012
      3 C         -13.5357  -17.9939   23.6127 C.ar    1  UNL1        0.0712
      4 C         -13.3700  -16.5062   23.5175 C.ar    1  UNL1        0.0038
      5 C         -11.9971  -15.9087   23.4276 C.ar    1  UNL1       -0.0002
      6 C         -10.7899  -16.7990   23.4329 C.ar    1  UNL1        0.0005
      7 C          -9.4169  -16.2015   23.3430 C.ar    1  UNL1        0.0334
      8 C          -8.6358  -15.9254   24.5935 C.ar    1  UNL1       -0.0009
      9 C          -7.2629  -15.3280   24.5036 C.ar    1  UNL1       -0.0164
     10 C          -6.6710  -15.0067   23.1632 C.ar    1  UNL1       -0.0008
     11 C          -7.4521  -15.2828   21.9128 C.ar    1  UNL1        0.0366
     12 C          -8.8251  -15.8803   22.0027 C.ar    1  UNL1        0.1386
     13 O          -9.6062  -16.1565   20.7523 O.3     1  UNL1       -0.4714
     14 C         -10.5353  -15.1148   20.2029 C.3     1  UNL1        0.2525
     15 C          -6.4818  -15.0518   25.7541 C.3     1  UNL1        0.0679
     16 C          -7.0356  -15.4544   27.0886 C.2     1  UNL1        0.0547
     17 O          -6.3956  -16.5699   27.8607 O.co2   1  UNL1       -0.5488
     18 O          -8.2296  -14.7416   27.6511 O.co2   1  UNL1       -0.5488
     19 C         -14.9087  -18.5914   23.7027 C.3     1  UNL1        0.4186
     20 F         -16.2816  -19.1888   23.7925 F       1  UNL1       -0.1659
     21 F         -15.0023  -18.6013   22.2057 F       1  UNL1       -0.1659
     22 F         -14.8150  -18.5814   25.1997 F       1  UNL1       -0.1659
     23 C          -9.7484  -19.1771   23.5336 C.3     1  UNL1        0.1234
     24 N          -9.1104  -19.5834   22.2382 N.am    1  UNL1       -0.2419
     25 C          -7.6557  -19.3059   21.9992 C.2     1  UNL1        0.4054
     26 O          -6.8391  -18.6223   23.0555 O.2     1  UNL1       -0.2262
     27 C         -10.4968  -19.4734   20.0438 C.3     1  UNL1        0.0234
     28 C          -9.9270  -20.2670   21.1819 C.3     1  UNL1        0.0971
     29 O          -7.0177  -19.7122   20.7039 O.3     1  UNL1       -0.4295
     30 C          -5.7446  -20.5053   20.7112 C.3     1  UNL1        0.2367
     31 C          -4.4222  -19.8018   20.6317 C.ar    1  UNL1        0.0214
     32 C          -3.5709  -19.6644   21.8590 C.ar    1  UNL1        0.0002
     33 C          -2.2484  -18.9609   21.7796 C.ar    1  UNL1        0.0112
     34 C          -1.7774  -18.3948   20.4728 C.ar    1  UNL1        0.0577
     35 CL         -0.4550  -17.6913   20.3934 Cl      1  UNL1       -0.0822
     36 C          -2.6287  -18.5322   19.2455 C.ar    1  UNL1        0.0112
     37 C          -3.9511  -19.2357   19.3250 C.ar    1  UNL1        0.0002
@<TRIPOS>UNITY_ATOM_ATTR
17 1
charge -1
@<TRIPOS>BOND
     1    27    28    1
     2    28    24    1
     3    24    23    1
     4    23     1    1
     5     1     2   ar
     6     2     3   ar
     7     3    19    1
     8    19    20    1
     9    19    21    1
    10    19    22    1
    11     3     4   ar
    12     4     5   ar
    13     5     6   ar
    14     6     7    1
    15     7     8   ar
    16     8     9   ar
    17     9    15    1
    18    15    16    1
    19    16    17   ar
    20    16    18   ar
    21     9    10   ar
    22    10    11   ar
    23    11    12   ar
    24    12    13    1
    25    13    14    1
    26    24    25   am
    27    25    26    2
    28    25    29    1
    29    29    30    1
    30    30    31    1
    31    31    32   ar
    32    32    33   ar
    33    33    34   ar
    34    34    35    1
    35    34    36   ar
    36    36    37   ar
    37     6     1   ar
    38    12     7   ar
    39    37    31   ar
@<TRIPOS>MOLECULE
*****
 37 39 0 0 0
SMALL
GASTEIGER

@<TRIPOS>ATOM
      1 C          -7.6227  -19.4767   21.8961 C.ar    1  UNL1       -0.0022
      2 C          -8.5335  -20.0652   20.8598 C.ar    1  UNL1        0.0012
      3 C          -8.1512  -20.0157   19.4102 C.ar    1  UNL1        0.0712
      4 C          -6.8580  -19.3777   18.9970 C.ar    1  UNL1        0.0038
      5 C          -5.9472  -18.7892   20.0333 C.ar    1  UNL1       -0.0002
      6 C          -6.3295  -18.8387   21.4829 C.ar    1  UNL1        0.0005
      7 C          -5.4187  -18.2502   22.5193 C.ar    1  UNL1        0.0334
      8 C          -5.8761  -17.0842   23.3447 C.ar    1  UNL1       -0.0009
      9 C          -4.9654  -16.4957   24.3811 C.ar    1  UNL1       -0.0164
     10 C          -3.5971  -17.0732   24.5921 C.ar    1  UNL1       -0.0008
     11 C          -3.1397  -18.2391   23.7667 C.ar    1  UNL1        0.0366
     12 C          -4.0505  -18.8276   22.7303 C.ar    1  UNL1        0.1386
     13 O          -3.5931  -19.9936   21.9049 O.3     1  UNL1       -0.4714
     14 C          -2.4599  -19.8281   20.9361 C.3     1  UNL1        0.2525
     15 C          -5.4228  -15.3297   25.2064 C.3     1  UNL1        0.0679
     16 C          -6.6535  -15.4488   26.0556 C.2     1  UNL1        0.0547
     17 O          -6.5554  -16.0069   27.4445 O.co2   1  UNL1       -0.5488
     18 O          -7.9825  -15.0098   25.5159 O.co2   1  UNL1       -0.5488
     19 C          -9.0620  -20.6042   18.3738 C.3     1  UNL1        0.4186
     20 F          -9.9728  -21.1927   17.3374 F       1  UNL1       -0.1659
     21 F          -8.1055  -21.7433   18.1800 F       1  UNL1       -0.1659
     22 F         -10.0185  -19.4652   18.5675 F       1  UNL1       -0.1659
     23 C          -8.0050  -19.5262   23.3458 C.3     1  UNL1        0.1234
     24 N          -9.2307  -18.8052   23.8232 N.am    1  UNL1       -0.2419
     25 C         -10.3936  -19.5816   24.3664 C.2     1  UNL1        0.4054
     26 O         -10.3307  -21.0788   24.4322 O.2     1  UNL1       -0.2262
     27 C          -9.0152  -16.6018   22.4637 C.3     1  UNL1        0.0234
     28 C          -9.2935  -17.3080   23.7574 C.3     1  UNL1        0.0971
     29 O         -11.6193  -18.8607   24.8438 O.3     1  UNL1       -0.4295
     30 C         -12.7334  -18.5599   23.8856 C.3     1  UNL1        0.2367
     31 C         -12.4556  -17.7851   22.6316 C.ar    1  UNL1        0.0214
     32 C         -11.9715  -18.4957   21.4026 C.ar    1  UNL1        0.0002
     33 C         -11.6937  -17.7209   20.1486 C.ar    1  UNL1        0.0112
     34 C         -11.8999  -16.2354   20.1237 C.ar    1  UNL1        0.0577
     35 CL        -11.6221  -15.4605   18.8698 Cl      1  UNL1       -0.0822
     36 C         -12.3840  -15.5247   21.3528 C.ar    1  UNL1        0.0112
     37 C         -12.6618  -16.2996   22.6067 C.ar    1  UNL1        0.0002
@<TRIPOS>UNITY_ATOM_ATTR
17 1
charge -1
@<TRIPOS>BOND
     1    27    28    1
     2    28    24    1
     3    24    23    1
     4    23     1    1
     5     1     2   ar
     6     2     3   ar
     7     3    19    1
     8    19    20    1
     9    19    21    1
    10    19    22    1
    11     3     4   ar
    12     4     5   ar
    13     5     6   ar
    14     6     7    1
    15     7     8   ar
    16     8     9   ar
    17     9    15    1
    18    15    16    1
    19    16    17   ar
    20    16    18   ar
    21     9    10   ar
    22    10    11   ar
    23    11    12   ar
    24    12    13    1
    25    13    14    1
    26    24    25   am
    27    25    26    2
    28    25    29    1
    29    29    30    1
    30    30    31    1
    31    31    32   ar
    32    32    33   ar
    33    33    34   ar
    34    34    35    1
    35    34    36   ar
    36    36    37   ar
    37     6     1   ar
    38    12     7   ar
    39    37    31   ar
