@<TRIPOS>MOLECULE
*****
 29 33 0 0 0
SMALL
GASTEIGER

@<TRIPOS>ATOM
      1 C          -6.0485  -17.0024   23.3621 C.ar    1  UNL1        0.1436
      2 N          -4.6400  -16.5003   23.4810 N.ar    1  UNL1       -0.2290
      3 C          -3.7389  -17.4797   22.7890 C.ar    1  UNL1        0.0984
      4 C          -2.2529  -17.5063   22.5860 C.ar    1  UNL1        0.0206
      5 C          -1.6185  -18.6402   21.8364 C.ar    1  UNL1        0.0016
      6 C          -2.4700  -19.7475   21.2899 C.ar    1  UNL1        0.0016
      7 C          -3.9560  -19.7209   21.4930 C.ar    1  UNL1        0.0188
      8 C          -4.5904  -18.5870   22.2425 C.ar    1  UNL1        0.0786
      9 N          -6.0178  -18.2920   22.5967 N.ar    1  UNL1       -0.3134
     10 C          -7.2727  -16.3324   23.9121 C.3     1  UNL1        0.1744
     11 O          -8.1877  -14.9550   21.0987 O.2     1  UNL1       -0.2463
     12 C          -9.0175  -15.8808   21.9380 C.ar    1  UNL1        0.3319
     13 N          -8.5969  -16.5138   23.2312 N.ar    1  UNL1       -0.2711
     14 C          -9.7330  -17.3603   23.7240 C.ar    1  UNL1        0.0993
     15 C          -9.8902  -18.2169   24.9452 C.ar    1  UNL1        0.1176
     16 N         -11.1701  -18.9636   25.1778 N.ar    1  UNL1       -0.2407
     17 C         -12.2929  -18.8537   24.1892 C.ar    1  UNL1        0.1005
     18 C         -12.1357  -17.9970   22.9680 C.ar    1  UNL1        0.0395
     19 C         -10.8557  -17.2503   22.7354 C.ar    1  UNL1        0.0827
     20 N         -10.4135  -16.3360   21.6316 N.ar    1  UNL1       -0.2817
     21 C         -11.2249  -15.9453   20.4320 C.3     1  UNL1        0.0900
     22 C         -12.5561  -15.7942   19.7573 C.3     1  UNL1        0.0246
     23 C         -11.2992  -15.4200   19.0290 C.3     1  UNL1        0.0246
     24 C          -7.2060  -19.1381   22.2469 C.3     1  UNL1        0.1073
     25 C          -7.7295  -19.1515   20.8412 C.3     1  UNL1        0.0271
     26 C          -9.1483  -19.5576   20.5731 C.3     1  UNL1        0.0337
     27 C          -9.6499  -19.6438   19.1621 C.3     1  UNL1        0.1372
     28 O          -9.1562  -20.7324   18.2558 O.3     1  UNL1       -0.3820
     29 H          -8.2099  -20.6060   18.0842 H       1  UNL1        0.2104
@<TRIPOS>BOND
     1    11    12    2
     2    12    13   ar
     3    13    10    1
     4    10     1    1
     5     1     2   ar
     6     2     3   ar
     7     3     4   ar
     8     4     5   ar
     9     5     6   ar
    10     6     7   ar
    11     7     8   ar
    12     8     9   ar
    13     9    24    1
    14    24    25    1
    15    25    26    1
    16    26    27    1
    17    27    28    1
    18    13    14   ar
    19    14    15   ar
    20    15    16   ar
    21    16    17   ar
    22    17    18   ar
    23    18    19   ar
    24    19    20   ar
    25    20    21    1
    26    21    22    1
    27    22    23    1
    28    20    12   ar
    29    23    21    1
    30     9     1   ar
    31    19    14   ar
    32     8     3   ar
    33    28    29    1
@<TRIPOS>MOLECULE
*****
 29 33 0 0 0
SMALL
GASTEIGER

@<TRIPOS>ATOM
      1 C          -6.9165  -17.5753   22.7986 C.ar    1  UNL1        0.1436
      2 N          -7.2328  -18.6792   21.8335 N.ar    1  UNL1       -0.2290
      3 C          -5.9366  -19.2729   21.3675 C.ar    1  UNL1        0.0984
      4 C          -5.6293  -20.3895   20.4141 C.ar    1  UNL1        0.0206
      5 C          -4.2047  -20.7691   20.1377 C.ar    1  UNL1        0.0016
      6 C          -3.0873  -20.0323   20.8147 C.ar    1  UNL1        0.0016
      7 C          -3.3946  -18.9157   21.7682 C.ar    1  UNL1        0.0188
      8 C          -4.8192  -18.5361   22.0445 C.ar    1  UNL1        0.0786
      9 N          -5.4248  -17.4869   22.9290 N.ar    1  UNL1       -0.3134
     10 C          -7.9164  -16.7115   23.5086 C.3     1  UNL1        0.1744
     11 O         -10.0877  -18.0882   25.5186 O.2     1  UNL1       -0.2463
     12 C         -10.3799  -17.5166   24.1629 C.ar    1  UNL1        0.3319
     13 N          -9.3819  -16.8838   23.2390 N.ar    1  UNL1       -0.2711
     14 C         -10.1066  -16.4536   21.9982 C.ar    1  UNL1        0.0993
     15 C          -9.6367  -15.7751   20.7457 C.ar    1  UNL1        0.1176
     16 N         -10.6127  -15.4636   19.6501 N.ar    1  UNL1       -0.2407
     17 C         -12.0587  -15.8305   19.8071 C.ar    1  UNL1        0.1005
     18 C         -12.5286  -16.5090   21.0596 C.ar    1  UNL1        0.0395
     19 C         -11.5525  -16.8205   22.1551 C.ar    1  UNL1        0.0827
     20 N         -11.7214  -17.4775   23.4930 N.ar    1  UNL1       -0.2817
     21 C         -13.0063  -18.0031   24.0612 C.3     1  UNL1        0.0900
     22 C         -13.7798  -18.5756   25.2119 C.3     1  UNL1        0.0246
     23 C         -14.4582  -18.3410   23.8948 C.3     1  UNL1        0.0246
     24 C          -4.6711  -16.5192   23.7924 C.3     1  UNL1        0.1073
     25 C          -4.8920  -16.5082   25.2760 C.3     1  UNL1        0.0271
     26 C          -5.4280  -15.2776   25.9454 C.3     1  UNL1        0.0337
     27 C          -6.4901  -15.3984   26.9977 C.3     1  UNL1        0.1372
     28 O          -7.9046  -15.0102   26.6836 O.3     1  UNL1       -0.3820
     29 H          -7.9486  -14.0555   26.5175 H       1  UNL1        0.2104
@<TRIPOS>BOND
     1    11    12    2
     2    12    13   ar
     3    13    10    1
     4    10     1    1
     5     1     2   ar
     6     2     3   ar
     7     3     4   ar
     8     4     5   ar
     9     5     6   ar
    10     6     7   ar
    11     7     8   ar
    12     8     9   ar
    13     9    24    1
    14    24    25    1
    15    25    26    1
    16    26    27    1
    17    27    28    1
    18    13    14   ar
    19    14    15   ar
    20    15    16   ar
    21    16    17   ar
    22    17    18   ar
    23    18    19   ar
    24    19    20   ar
    25    20    21    1
    26    21    22    1
    27    22    23    1
    28    20    12   ar
    29    23    21    1
    30     9     1   ar
    31    19    14   ar
    32     8     3   ar
    33    28    29    1
@<TRIPOS>MOLECULE
*****
 29 33 0 0 0
SMALL
GASTEIGER

@<TRIPOS>ATOM
      1 C          -6.4772  -17.2317   23.3677 C.ar    1  UNL1        0.1436
      2 N          -6.4003  -18.3544   22.3760 N.ar    1  UNL1       -0.2290
      3 C          -4.9520  -18.6343   22.1040 C.ar    1  UNL1        0.0984
      4 C          -4.2725  -19.6313   21.2128 C.ar    1  UNL1        0.0206
      5 C          -2.7747  -19.6785   21.1452 C.ar    1  UNL1        0.0016
      6 C          -1.9565  -18.7287   21.9688 C.ar    1  UNL1        0.0016
      7 C          -2.6360  -17.7317   22.8600 C.ar    1  UNL1        0.0188
      8 C          -4.1337  -17.6845   22.9276 C.ar    1  UNL1        0.0786
      9 N          -5.0764  -16.8176   23.7086 N.ar    1  UNL1       -0.3134
     10 C          -7.7343  -16.6288   23.9213 C.3     1  UNL1        0.1744
     11 O          -8.1937  -15.1647   21.0411 O.2     1  UNL1       -0.2463
     12 C          -9.2080  -15.9792   21.7879 C.ar    1  UNL1        0.3319
     13 N          -8.9969  -16.6521   23.1118 N.ar    1  UNL1       -0.2711
     14 C         -10.2700  -17.3525   23.4841 C.ar    1  UNL1        0.0993
     15 C         -10.6495  -18.1778   24.6777 C.ar    1  UNL1        0.1176
     16 N         -12.0269  -18.7631   24.7776 N.ar    1  UNL1       -0.2407
     17 C         -13.0250  -18.5230   23.6838 C.ar    1  UNL1        0.1005
     18 C         -12.6455  -17.6977   22.4902 C.ar    1  UNL1        0.0395
     19 C         -11.2680  -17.1124   22.3903 C.ar    1  UNL1        0.0827
     20 N         -10.6117  -16.2637   21.3421 N.ar    1  UNL1       -0.2817
     21 C         -11.2474  -15.7837   20.0710 C.3     1  UNL1        0.0900
     22 C         -11.1418  -15.0777   18.7517 C.3     1  UNL1        0.0246
     23 C         -12.4540  -15.6583   19.1888 C.3     1  UNL1        0.0246
     24 C          -4.6866  -15.7281   24.6630 C.3     1  UNL1        0.1073
     25 C          -5.0083  -15.8587   26.1223 C.3     1  UNL1        0.0271
     26 C          -6.0737  -14.9991   26.7354 C.3     1  UNL1        0.0337
     27 C          -7.3113  -15.6289   27.3026 C.3     1  UNL1        0.1372
     28 O          -8.5247  -14.7890   27.5714 O.3     1  UNL1       -0.3820
     29 H          -8.3280  -14.1532   28.2771 H       1  UNL1        0.2104
@<TRIPOS>BOND
     1    11    12    2
     2    12    13   ar
     3    13    10    1
     4    10     1    1
     5     1     2   ar
     6     2     3   ar
     7     3     4   ar
     8     4     5   ar
     9     5     6   ar
    10     6     7   ar
    11     7     8   ar
    12     8     9   ar
    13     9    24    1
    14    24    25    1
    15    25    26    1
    16    26    27    1
    17    27    28    1
    18    13    14   ar
    19    14    15   ar
    20    15    16   ar
    21    16    17   ar
    22    17    18   ar
    23    18    19   ar
    24    19    20   ar
    25    20    21    1
    26    21    22    1
    27    22    23    1
    28    20    12   ar
    29    23    21    1
    30     9     1   ar
    31    19    14   ar
    32     8     3   ar
    33    28    29    1
@<TRIPOS>MOLECULE
*****
 29 33 0 0 0
SMALL
GASTEIGER

@<TRIPOS>ATOM
      1 C          -5.1765  -18.9173   22.0115 C.ar    1  UNL1        0.1436
      2 N          -4.6857  -19.3623   20.6657 N.ar    1  UNL1       -0.2290
      3 C          -3.4157  -18.6219   20.3675 C.ar    1  UNL1        0.0984
      4 C          -2.4890  -18.6529   19.1884 C.ar    1  UNL1        0.0206
      5 C          -1.2683  -17.7814   19.1707 C.ar    1  UNL1        0.0016
      6 C          -0.9743  -16.8788   20.3321 C.ar    1  UNL1        0.0016
      7 C          -1.9010  -16.8477   21.5112 C.ar    1  UNL1        0.0188
      8 C          -3.1217  -17.7193   21.5288 C.ar    1  UNL1        0.0786
      9 N          -4.2099  -17.9019   22.5449 N.ar    1  UNL1       -0.3134
     10 C          -6.4164  -19.4026   22.7025 C.3     1  UNL1        0.1744
     11 O          -8.5671  -17.5007   24.2538 O.2     1  UNL1       -0.2463
     12 C          -8.7558  -18.1251   22.9031 C.ar    1  UNL1        0.3319
     13 N          -7.7672  -18.9993   22.1900 N.ar    1  UNL1       -0.2711
     14 C          -8.3666  -19.3994   20.8745 C.ar    1  UNL1        0.0993
     15 C          -7.8505  -20.2536   19.7547 C.ar    1  UNL1        0.1176
     16 N          -8.6934  -20.4809   18.5350 N.ar    1  UNL1       -0.2407
     17 C         -10.0524  -19.8540   18.4350 C.ar    1  UNL1        0.1005
     18 C         -10.5686  -18.9998   19.5548 C.ar    1  UNL1        0.0395
     19 C          -9.7257  -18.7725   20.7745 C.ar    1  UNL1        0.0827
     20 N          -9.9662  -17.9850   22.0282 N.ar    1  UNL1       -0.2817
     21 C         -11.2004  -17.1958   22.3505 C.3     1  UNL1        0.0900
     22 C         -12.6280  -17.1464   22.8084 C.3     1  UNL1        0.0246
     23 C         -11.9107  -15.8785   22.4510 C.3     1  UNL1        0.0246
     24 C          -4.3134  -17.1934   23.8630 C.3     1  UNL1        0.1073
     25 C          -5.2139  -16.0022   24.0056 C.3     1  UNL1        0.0271
     26 C          -5.2868  -15.2693   25.3122 C.3     1  UNL1        0.0337
     27 C          -6.4258  -15.5263   26.2538 C.3     1  UNL1        0.1372
     28 O          -7.8050  -15.0461   25.9112 O.3     1  UNL1       -0.3820
     29 H          -7.8170  -14.0763   25.9030 H       1  UNL1        0.2104
@<TRIPOS>BOND
     1    11    12    2
     2    12    13   ar
     3    13    10    1
     4    10     1    1
     5     1     2   ar
     6     2     3   ar
     7     3     4   ar
     8     4     5   ar
     9     5     6   ar
    10     6     7   ar
    11     7     8   ar
    12     8     9   ar
    13     9    24    1
    14    24    25    1
    15    25    26    1
    16    26    27    1
    17    27    28    1
    18    13    14   ar
    19    14    15   ar
    20    15    16   ar
    21    16    17   ar
    22    17    18   ar
    23    18    19   ar
    24    19    20   ar
    25    20    21    1
    26    21    22    1
    27    22    23    1
    28    20    12   ar
    29    23    21    1
    30     9     1   ar
    31    19    14   ar
    32     8     3   ar
    33    28    29    1
@<TRIPOS>MOLECULE
*****
 29 33 0 0 0
SMALL
GASTEIGER

@<TRIPOS>ATOM
      1 C          -7.6633  -17.0208   22.9992 C.ar    1  UNL1        0.1436
      2 N          -8.1175  -16.9300   21.5725 N.ar    1  UNL1       -0.2290
      3 C          -9.6008  -16.7073   21.5716 C.ar    1  UNL1        0.0984
      4 C         -10.5902  -16.5411   20.4565 C.ar    1  UNL1        0.0206
      5 C         -12.0420  -16.3281   20.7674 C.ar    1  UNL1        0.0016
      6 C         -12.5047  -16.2813   22.1935 C.ar    1  UNL1        0.0016
      7 C         -11.5153  -16.4475   23.3087 C.ar    1  UNL1        0.0188
      8 C         -10.0635  -16.6605   22.9977 C.ar    1  UNL1        0.0786
      9 N          -8.8660  -16.8543   23.8800 N.ar    1  UNL1       -0.3134
     10 C          -6.2538  -17.2398   23.4636 C.3     1  UNL1        0.1744
     11 O          -3.3698  -15.8910   22.7475 O.2     1  UNL1       -0.2463
     12 C          -3.9050  -17.1763   22.1892 C.ar    1  UNL1        0.3319
     13 N          -5.2306  -17.7962   22.5183 N.ar    1  UNL1       -0.2711
     14 C          -5.3535  -19.0703   21.7363 C.ar    1  UNL1        0.0993
     15 C          -6.4419  -20.0996   21.6590 C.ar    1  UNL1        0.1176
     16 N          -6.2806  -21.2963   20.7693 N.ar    1  UNL1       -0.2407
     17 C          -5.0309  -21.4638   19.9568 C.ar    1  UNL1        0.1005
     18 C          -3.9425  -20.4346   20.0340 C.ar    1  UNL1        0.0395
     19 C          -4.1038  -19.2378   20.9238 C.ar    1  UNL1        0.0827
     20 N          -3.2086  -18.0672   21.2037 N.ar    1  UNL1       -0.2817
     21 C          -1.8547  -17.8294   20.6034 C.3     1  UNL1        0.0900
     22 C          -0.6679  -16.9377   20.3873 C.3     1  UNL1        0.0246
     23 C          -0.6963  -18.3090   19.7800 C.3     1  UNL1        0.0246
     24 C          -8.8703  -16.8775   25.3798 C.3     1  UNL1        0.1073
     25 C          -8.5051  -15.6432   26.1501 C.3     1  UNL1        0.0271
     26 C          -7.3560  -15.6730   27.1136 C.3     1  UNL1        0.0337
     27 C          -5.9708  -15.3475   26.6391 C.3     1  UNL1        0.1372
     28 O          -5.7752  -14.4305   25.4682 O.3     1  UNL1       -0.3820
     29 H          -6.1269  -14.8495   24.6672 H       1  UNL1        0.2104
@<TRIPOS>BOND
     1    11    12    2
     2    12    13   ar
     3    13    10    1
     4    10     1    1
     5     1     2   ar
     6     2     3   ar
     7     3     4   ar
     8     4     5   ar
     9     5     6   ar
    10     6     7   ar
    11     7     8   ar
    12     8     9   ar
    13     9    24    1
    14    24    25    1
    15    25    26    1
    16    26    27    1
    17    27    28    1
    18    13    14   ar
    19    14    15   ar
    20    15    16   ar
    21    16    17   ar
    22    17    18   ar
    23    18    19   ar
    24    19    20   ar
    25    20    21    1
    26    21    22    1
    27    22    23    1
    28    20    12   ar
    29    23    21    1
    30     9     1   ar
    31    19    14   ar
    32     8     3   ar
    33    28    29    1
@<TRIPOS>MOLECULE
*****
 29 33 0 0 0
SMALL
GASTEIGER

@<TRIPOS>ATOM
      1 C          -5.3167  -19.7307   21.4838 C.ar    1  UNL1        0.1436
      2 N          -4.6611  -20.0133   20.1646 N.ar    1  UNL1       -0.2290
      3 C          -3.4610  -19.1217   20.0430 C.ar    1  UNL1        0.0984
      4 C          -2.4354  -18.9612   18.9602 C.ar    1  UNL1        0.0206
      5 C          -1.3239  -17.9670   19.1214 C.ar    1  UNL1        0.0016
      6 C          -1.2378  -17.1333   20.3653 C.ar    1  UNL1        0.0016
      7 C          -2.2633  -17.2938   21.4481 C.ar    1  UNL1        0.0188
      8 C          -3.3749  -18.2880   21.2869 C.ar    1  UNL1        0.0786
      9 N          -4.5218  -18.6644   22.1774 N.ar    1  UNL1       -0.3134
     10 C          -6.5506  -20.3974   22.0159 C.3     1  UNL1        0.1744
     11 O          -7.6381  -18.5230   19.5759 O.2     1  UNL1       -0.2463
     12 C          -8.3675  -18.8190   20.8528 C.ar    1  UNL1        0.3319
     13 N          -7.8676  -19.6805   21.9743 N.ar    1  UNL1       -0.2711
     14 C          -8.9159  -19.6994   23.0470 C.ar    1  UNL1        0.0993
     15 C          -8.9736  -20.3807   24.3821 C.ar    1  UNL1        0.1176
     16 N         -10.1791  -20.2121   25.2586 N.ar    1  UNL1       -0.2407
     17 C         -11.3269  -19.3622   24.8001 C.ar    1  UNL1        0.1005
     18 C         -11.2692  -18.6809   23.4650 C.ar    1  UNL1        0.0395
     19 C         -10.0637  -18.8495   22.5885 C.ar    1  UNL1        0.0827
     20 N          -9.7247  -18.3054   21.2324 N.ar    1  UNL1       -0.2817
     21 C         -10.5910  -17.4056   20.4017 C.3     1  UNL1        0.0900
     22 C         -11.0694  -16.0292   20.0457 C.3     1  UNL1        0.0246
     23 C         -11.6129  -17.2235   19.3189 C.3     1  UNL1        0.0246
     24 C          -4.8213  -18.0775   23.5249 C.3     1  UNL1        0.1073
     25 C          -4.6937  -16.5991   23.7443 C.3     1  UNL1        0.0271
     26 C          -5.8007  -15.8423   24.4163 C.3     1  UNL1        0.0337
     27 C          -6.8833  -15.2090   23.5935 C.3     1  UNL1        0.1372
     28 O          -7.6650  -14.0532   24.1442 O.3     1  UNL1       -0.3820
     29 H          -8.1909  -14.3508   24.9030 H       1  UNL1        0.2104
@<TRIPOS>BOND
     1    11    12    2
     2    12    13   ar
     3    13    10    1
     4    10     1    1
     5     1     2   ar
     6     2     3   ar
     7     3     4   ar
     8     4     5   ar
     9     5     6   ar
    10     6     7   ar
    11     7     8   ar
    12     8     9   ar
    13     9    24    1
    14    24    25    1
    15    25    26    1
    16    26    27    1
    17    27    28    1
    18    13    14   ar
    19    14    15   ar
    20    15    16   ar
    21    16    17   ar
    22    17    18   ar
    23    18    19   ar
    24    19    20   ar
    25    20    21    1
    26    21    22    1
    27    22    23    1
    28    20    12   ar
    29    23    21    1
    30     9     1   ar
    31    19    14   ar
    32     8     3   ar
    33    28    29    1
@<TRIPOS>MOLECULE
*****
 29 33 0 0 0
SMALL
GASTEIGER

@<TRIPOS>ATOM
      1 C          -7.0582  -18.0148   22.5842 C.ar    1  UNL1        0.1436
      2 N          -7.5020  -19.0724   21.6175 N.ar    1  UNL1       -0.2290
      3 C          -6.2774  -19.7467   21.0739 C.ar    1  UNL1        0.0984
      4 C          -6.1004  -20.8615   20.0860 C.ar    1  UNL1        0.0206
      5 C          -4.7228  -21.3355   19.7288 C.ar    1  UNL1        0.0016
      6 C          -3.5222  -20.6947   20.3595 C.ar    1  UNL1        0.0016
      7 C          -3.6992  -19.5799   21.3474 C.ar    1  UNL1        0.0188
      8 C          -5.0768  -19.1060   21.7045 C.ar    1  UNL1        0.0786
      9 N          -5.5594  -18.0356   22.6380 N.ar    1  UNL1       -0.3134
     10 C          -7.9558  -17.0975   23.3608 C.3     1  UNL1        0.1744
     11 O         -10.1011  -18.3683   25.4662 O.2     1  UNL1       -0.2463
     12 C         -10.4284  -17.7496   24.1395 C.ar    1  UNL1        0.3319
     13 N          -9.4423  -17.1655   23.1717 N.ar    1  UNL1       -0.2711
     14 C         -10.2037  -16.6614   21.9817 C.ar    1  UNL1        0.0993
     15 C          -9.7587  -15.9894   20.7166 C.ar    1  UNL1        0.1176
     16 N         -10.7705  -15.5899   19.6838 N.ar    1  UNL1       -0.2407
     17 C         -12.2271  -15.8623   19.9161 C.ar    1  UNL1        0.1005
     18 C         -12.6720  -16.5343   21.1811 C.ar    1  UNL1        0.0395
     19 C         -11.6603  -16.9338   22.2139 C.ar    1  UNL1        0.0827
     20 N         -11.7992  -17.6064   23.5475 N.ar    1  UNL1       -0.2817
     21 C         -13.0834  -18.0567   24.1783 C.3     1  UNL1        0.0900
     22 C         -14.5583  -18.3126   24.0819 C.3     1  UNL1        0.0246
     23 C         -13.8330  -18.5808   25.3672 C.3     1  UNL1        0.0246
     24 C          -4.6949  -17.1426   23.4778 C.3     1  UNL1        0.1073
     25 C          -3.7448  -16.1852   22.8215 C.3     1  UNL1        0.0271
     26 C          -2.3441  -16.6177   22.5041 C.3     1  UNL1        0.0337
     27 C          -1.8376  -16.5436   21.0941 C.3     1  UNL1        0.1372
     28 O          -2.7853  -16.7275   19.9461 O.3     1  UNL1       -0.3820
     29 H          -3.1244  -17.6363   19.9492 H       1  UNL1        0.2104
@<TRIPOS>BOND
     1    11    12    2
     2    12    13   ar
     3    13    10    1
     4    10     1    1
     5     1     2   ar
     6     2     3   ar
     7     3     4   ar
     8     4     5   ar
     9     5     6   ar
    10     6     7   ar
    11     7     8   ar
    12     8     9   ar
    13     9    24    1
    14    24    25    1
    15    25    26    1
    16    26    27    1
    17    27    28    1
    18    13    14   ar
    19    14    15   ar
    20    15    16   ar
    21    16    17   ar
    22    17    18   ar
    23    18    19   ar
    24    19    20   ar
    25    20    21    1
    26    21    22    1
    27    22    23    1
    28    20    12   ar
    29    23    21    1
    30     9     1   ar
    31    19    14   ar
    32     8     3   ar
    33    28    29    1
@<TRIPOS>MOLECULE
*****
 29 33 0 0 0
SMALL
GASTEIGER

@<TRIPOS>ATOM
      1 C          -6.1734  -16.9653   23.3526 C.ar    1  UNL1        0.1436
      2 N          -4.7230  -16.5840   23.3856 N.ar    1  UNL1       -0.2290
      3 C          -3.9545  -17.6175   22.6167 C.ar    1  UNL1        0.0984
      4 C          -2.4925  -17.7616   22.3137 C.ar    1  UNL1        0.0206
      5 C          -2.0059  -18.9257   21.5024 C.ar    1  UNL1        0.0016
      6 C          -2.9812  -19.9457   20.9942 C.ar    1  UNL1        0.0016
      7 C          -4.4432  -19.8016   21.2972 C.ar    1  UNL1        0.0188
      8 C          -4.9298  -18.6375   22.1085 C.ar    1  UNL1        0.0786
      9 N          -6.3012  -18.2344   22.5633 N.ar    1  UNL1       -0.3134
     10 C          -7.2985  -16.2100   23.9960 C.3     1  UNL1        0.1744
     11 O          -9.5414  -17.8992   25.6589 O.2     1  UNL1       -0.2463
     12 C          -9.7440  -17.2363   24.3286 C.ar    1  UNL1        0.3319
     13 N          -8.7131  -16.4599   23.5643 N.ar    1  UNL1       -0.2711
     14 C          -9.3451  -15.9772   22.2924 C.ar    1  UNL1        0.0993
     15 C          -8.8097  -15.1641   21.1513 C.ar    1  UNL1        0.1176
     16 N          -9.6960  -14.8292   19.9884 N.ar    1  UNL1       -0.2407
     17 C         -11.1176  -15.3073   19.9667 C.ar    1  UNL1        0.1005
     18 C         -11.6529  -16.1204   21.1078 C.ar    1  UNL1        0.0395
     19 C         -10.7667  -16.4554   22.2707 C.ar    1  UNL1        0.0827
     20 N         -11.0132  -17.2335   23.5291 N.ar    1  UNL1       -0.2817
     21 C         -12.3026  -17.8931   23.9195 C.3     1  UNL1        0.0900
     22 C         -13.0624  -18.8417   24.7988 C.3     1  UNL1        0.0246
     23 C         -13.7761  -18.0871   23.7165 C.3     1  UNL1        0.0246
     24 C          -7.5765  -18.9710   22.2788 C.3     1  UNL1        0.1073
     25 C          -7.8784  -19.4373   20.8854 C.3     1  UNL1        0.0271
     26 C          -9.0131  -18.8249   20.1189 C.3     1  UNL1        0.0337
     27 C         -10.2545  -19.6230   19.8513 C.3     1  UNL1        0.1372
     28 O         -11.1939  -19.9482   20.9746 O.3     1  UNL1       -0.3820
     29 H         -10.7529  -20.5401   21.6039 H       1  UNL1        0.2104
@<TRIPOS>BOND
     1    11    12    2
     2    12    13   ar
     3    13    10    1
     4    10     1    1
     5     1     2   ar
     6     2     3   ar
     7     3     4   ar
     8     4     5   ar
     9     5     6   ar
    10     6     7   ar
    11     7     8   ar
    12     8     9   ar
    13     9    24    1
    14    24    25    1
    15    25    26    1
    16    26    27    1
    17    27    28    1
    18    13    14   ar
    19    14    15   ar
    20    15    16   ar
    21    16    17   ar
    22    17    18   ar
    23    18    19   ar
    24    19    20   ar
    25    20    21    1
    26    21    22    1
    27    22    23    1
    28    20    12   ar
    29    23    21    1
    30     9     1   ar
    31    19    14   ar
    32     8     3   ar
    33    28    29    1
@<TRIPOS>MOLECULE
*****
 29 33 0 0 0
SMALL
GASTEIGER

@<TRIPOS>ATOM
      1 C          -5.6806  -19.4334   21.9625 C.ar    1  UNL1        0.1436
      2 N          -5.2644  -19.7646   20.5600 N.ar    1  UNL1       -0.2290
      3 C          -4.0010  -19.0131   20.2618 C.ar    1  UNL1        0.0984
      4 C          -3.1354  -18.9505   19.0383 C.ar    1  UNL1        0.0206
      5 C          -1.9052  -18.0923   19.0330 C.ar    1  UNL1        0.0016
      6 C          -1.5405  -17.2966   20.2511 C.ar    1  UNL1        0.0016
      7 C          -2.4061  -17.3592   21.4746 C.ar    1  UNL1        0.0188
      8 C          -3.6363  -18.2175   21.4799 C.ar    1  UNL1        0.0786
      9 N          -4.6744  -18.4772   22.5310 N.ar    1  UNL1       -0.3134
     10 C          -6.8907  -19.9651   22.6720 C.3     1  UNL1        0.1744
     11 O          -9.7404  -20.9004   23.9580 O.2     1  UNL1       -0.2463
     12 C          -9.4411  -19.5574   23.3607 C.ar    1  UNL1        0.3319
     13 N          -8.1312  -19.1275   22.7696 N.ar    1  UNL1       -0.2711
     14 C          -8.2796  -17.7128   22.2933 C.ar    1  UNL1        0.0993
     15 C          -7.3195  -16.7720   21.6278 C.ar    1  UNL1        0.1176
     16 N          -7.7611  -15.3867   21.2589 N.ar    1  UNL1       -0.2407
     17 C          -9.1627  -14.9424   21.5557 C.ar    1  UNL1        0.1005
     18 C         -10.1227  -15.8832   22.2212 C.ar    1  UNL1        0.0395
     19 C          -9.6812  -17.2685   22.5901 C.ar    1  UNL1        0.0827
     20 N         -10.3990  -18.4085   23.2497 N.ar    1  UNL1       -0.2817
     21 C         -11.8245  -18.4008   23.7165 C.3     1  UNL1        0.0900
     22 C         -12.8536  -18.7398   24.7540 C.3     1  UNL1        0.0246
     23 C         -13.2645  -18.0487   23.4877 C.3     1  UNL1        0.0246
     24 C          -4.7015  -17.8848   23.9088 C.3     1  UNL1        0.1073
     25 C          -4.8386  -16.4015   24.0849 C.3     1  UNL1        0.0271
     26 C          -5.2695  -15.8398   25.4073 C.3     1  UNL1        0.0337
     27 C          -6.5161  -15.0108   25.4997 C.3     1  UNL1        0.1372
     28 O          -7.1012  -14.3957   24.2629 O.3     1  UNL1       -0.3820
     29 H          -6.4891  -13.7299   23.9123 H       1  UNL1        0.2104
@<TRIPOS>BOND
     1    11    12    2
     2    12    13   ar
     3    13    10    1
     4    10     1    1
     5     1     2   ar
     6     2     3   ar
     7     3     4   ar
     8     4     5   ar
     9     5     6   ar
    10     6     7   ar
    11     7     8   ar
    12     8     9   ar
    13     9    24    1
    14    24    25    1
    15    25    26    1
    16    26    27    1
    17    27    28    1
    18    13    14   ar
    19    14    15   ar
    20    15    16   ar
    21    16    17   ar
    22    17    18   ar
    23    18    19   ar
    24    19    20   ar
    25    20    21    1
    26    21    22    1
    27    22    23    1
    28    20    12   ar
    29    23    21    1
    30     9     1   ar
    31    19    14   ar
    32     8     3   ar
    33    28    29    1
