@<TRIPOS>MOLECULE
*****
 41 44 0 0 0
SMALL
GASTEIGER

@<TRIPOS>ATOM
      1 C          -5.1768  -18.3285   22.6638 C.ar    1  UNL1        0.2144
      2 C          -4.6941  -17.0468   23.2754 C.ar    1  UNL1        0.1822
      3 O          -3.4137  -16.4253   22.8017 O.2     1  UNL1       -0.4500
      4 C          -2.6160  -17.0857   21.7164 C.ar    1  UNL1        0.1545
      5 C          -1.3356  -16.4643   21.2428 C.ar    1  UNL1        0.0744
      6 C          -0.5380  -17.1246   20.1576 C.ar    1  UNL1        0.1397
      7 O           0.7424  -16.5032   19.6838 O.3     1  UNL1       -0.5053
      8 C          -1.0208  -18.4064   19.5460 C.ar    1  UNL1        0.0735
      9 C          -2.3012  -19.0278   20.0197 C.ar    1  UNL1        0.1428
     10 O          -2.7839  -20.3096   19.4082 O.3     1  UNL1       -0.5052
     11 C          -3.0988  -18.3675   21.1049 C.ar    1  UNL1        0.1104
     12 C          -4.3792  -18.9889   21.5786 C.ar    1  UNL1        0.2382
     13 O          -4.8620  -20.2707   20.9671 O.2     1  UNL1       -0.2830
     14 H           1.0440  -15.7025   20.0658 H       1  UNL1        0.2922
     15 H          -2.2857  -20.7221   18.7303 H       1  UNL1        0.2922
     16 C          -5.4917  -16.3864   24.3606 C.ar    1  UNL1        0.0379
     17 C          -5.1169  -16.5926   25.7983 C.ar    1  UNL1        0.0062
     18 C          -5.9145  -15.9323   26.8834 C.ar    1  UNL1        0.0367
     19 C          -7.0871  -15.0657   26.5310 C.ar    1  UNL1        0.1337
     20 O          -7.8847  -14.4053   27.6162 O.3     1  UNL1       -0.5055
     21 C          -7.4619  -14.8595   25.0933 C.ar    1  UNL1        0.0367
     22 C          -6.6643  -15.5198   24.0081 C.ar    1  UNL1        0.0062
     23 H          -7.6506  -14.5342   28.5143 H       1  UNL1        0.2922
     24 O          -6.4573  -18.9500   23.1376 O.3     1  UNL1       -0.4441
     25 C         -10.2587  -18.3200   20.8133 C.3     1  UNL1        0.2380
     26 C         -10.1900  -17.9274   22.2594 C.3     1  UNL1        0.2438
     27 C          -8.9228  -18.1374   23.0341 C.3     1  UNL1        0.2252
     28 O          -8.8541  -17.7448   24.4802 O.3     1  UNL1       -0.3757
     29 C          -7.7244  -18.7400   22.3628 C.3     1  UNL1        0.3195
     30 O          -7.7931  -19.1326   20.9167 O.3     1  UNL1       -0.3173
     31 C          -9.0603  -18.9226   20.1420 C.3     1  UNL1        0.1626
     32 C          -9.1291  -19.3152   18.6959 C.3     1  UNL1        0.0362
     33 H          -7.9714  -17.9462   24.8283 H       1  UNL1        0.2107
     34 O         -11.5259  -18.1099   20.0386 O.3     1  UNL1       -0.4458
     35 C         -11.3682  -15.7074   19.0624 C.3     1  UNL1        0.1212
     36 C         -12.0926  -16.7294   19.8876 C.2     1  UNL1        0.3176
     37 O         -13.3836  -16.3708   20.5617 O.2     1  UNL1       -0.2501
     38 O         -11.3884  -17.3248   22.9307 O.3     1  UNL1       -0.4456
     39 C         -12.2366  -18.1607   23.8428 C.2     1  UNL1        0.3176
     40 C         -13.7220  -17.9562   23.8823 C.3     1  UNL1        0.1212
     41 O         -11.5993  -19.2012   24.7153 O.2     1  UNL1       -0.2501
@<TRIPOS>BOND
     1    35    36    1
     2    36    37    2
     3    36    34    1
     4    25    34    1
     5    25    26    1
     6    26    38    1
     7    38    39    1
     8    39    40    1
     9    39    41    2
    10    26    27    1
    11    27    28    1
    12    27    29    1
    13    29    24    1
    14    24     1    1
    15     1     2   ar
    16     2    16    1
    17    16    17   ar
    18    17    18   ar
    19    18    19   ar
    20    19    20    1
    21    19    21   ar
    22    21    22   ar
    23     2     3   ar
    24     3     4   ar
    25     4     5   ar
    26     5     6   ar
    27     6     7    1
    28     6     8   ar
    29     8     9   ar
    30     9    10    1
    31     9    11   ar
    32    11    12   ar
    33    12    13    2
    34    29    30    1
    35    30    31    1
    36    31    32    1
    37    31    25    1
    38    12     1   ar
    39    22    16   ar
    40    11     4   ar
    41    28    33    1
    42    20    23    1
    43     7    14    1
    44    10    15    1
@<TRIPOS>MOLECULE
*****
 41 44 0 0 0
SMALL
GASTEIGER

@<TRIPOS>ATOM
      1 C           6.7924   -2.8576   24.1182 C.ar    1  UNL1        0.2144
      2 C           6.2398   -2.7728   25.5101 C.ar    1  UNL1        0.1822
      3 O           6.2901   -3.9707   26.4114 O.2     1  UNL1       -0.4500
      4 C           6.8931   -5.2536   25.9207 C.ar    1  UNL1        0.1545
      5 C           6.9435   -6.4516   26.8219 C.ar    1  UNL1        0.0744
      6 C           7.5465   -7.7344   26.3313 C.ar    1  UNL1        0.1397
      7 O           7.5969   -8.9324   27.2325 O.3     1  UNL1       -0.5053
      8 C           8.0991   -7.8192   24.9393 C.ar    1  UNL1        0.0735
      9 C           8.0488   -6.6212   24.0381 C.ar    1  UNL1        0.1428
     10 O           8.6014   -6.7060   22.6462 O.3     1  UNL1       -0.5052
     11 C           7.4458   -5.3384   24.5288 C.ar    1  UNL1        0.1104
     12 C           7.3954   -4.1403   23.6275 C.ar    1  UNL1        0.2382
     13 O           7.9480   -4.2251   22.2356 O.2     1  UNL1       -0.2830
     14 H           7.2517   -8.8795   28.1020 H       1  UNL1        0.2922
     15 H           8.9781   -7.5073   22.3397 H       1  UNL1        0.2922
     16 C           5.6367   -1.4899   26.0008 C.ar    1  UNL1        0.0379
     17 C           4.1495   -1.3709   26.1549 C.ar    1  UNL1        0.0062
     18 C           3.5465   -0.0881   26.6455 C.ar    1  UNL1        0.0367
     19 C           4.4309    1.0758   26.9821 C.ar    1  UNL1        0.1337
     20 O           3.8279    2.3587   27.4727 O.3     1  UNL1       -0.5055
     21 C           5.9182    0.9568   26.8280 C.ar    1  UNL1        0.0367
     22 C           6.5211   -0.3260   26.3374 C.ar    1  UNL1        0.0062
     23 H           2.8988    2.4329   27.5690 H       1  UNL1        0.2922
     24 O           6.7420   -1.6595   23.2170 O.3     1  UNL1       -0.4441
     25 C           2.9960   -0.7450   20.8973 C.3     1  UNL1        0.2380
     26 C           4.0389   -1.6497   20.3112 C.3     1  UNL1        0.2438
     27 C           5.2876   -1.9545   21.0845 C.3     1  UNL1        0.2252
     28 O           6.3306   -2.8593   20.4984 O.3     1  UNL1       -0.3757
     29 C           5.4933   -1.3546   22.4438 C.3     1  UNL1        0.3195
     30 O           4.4503   -0.4498   23.0299 O.3     1  UNL1       -0.3173
     31 C           3.2016   -0.1450   22.2567 C.3     1  UNL1        0.1626
     32 C           2.1586    0.7597   22.8428 C.3     1  UNL1        0.0362
     33 H           7.0674   -2.9504   21.1227 H       1  UNL1        0.2107
     34 O           1.7473   -0.4401   20.1241 O.3     1  UNL1       -0.4458
     35 C           2.8063    1.7480   19.2074 C.3     1  UNL1        0.1212
     36 C           1.7219    0.7126   19.1646 C.2     1  UNL1        0.3176
     37 O           0.6120    0.8297   18.1624 O.2     1  UNL1       -0.2501
     38 O           3.8333   -2.2496   18.9519 O.3     1  UNL1       -0.4456
     39 C           4.5971   -1.7195   17.7748 C.2     1  UNL1        0.3176
     40 C           3.9156   -0.8303   16.7773 C.3     1  UNL1        0.1212
     41 O           6.0423   -2.0786   17.5951 O.2     1  UNL1       -0.2501
@<TRIPOS>BOND
     1    35    36    1
     2    36    37    2
     3    36    34    1
     4    25    34    1
     5    25    26    1
     6    26    38    1
     7    38    39    1
     8    39    40    1
     9    39    41    2
    10    26    27    1
    11    27    28    1
    12    27    29    1
    13    29    24    1
    14    24     1    1
    15     1     2   ar
    16     2    16    1
    17    16    17   ar
    18    17    18   ar
    19    18    19   ar
    20    19    20    1
    21    19    21   ar
    22    21    22   ar
    23     2     3   ar
    24     3     4   ar
    25     4     5   ar
    26     5     6   ar
    27     6     7    1
    28     6     8   ar
    29     8     9   ar
    30     9    10    1
    31     9    11   ar
    32    11    12   ar
    33    12    13    2
    34    29    30    1
    35    30    31    1
    36    31    32    1
    37    31    25    1
    38    12     1   ar
    39    22    16   ar
    40    11     4   ar
    41    28    33    1
    42    20    23    1
    43     7    14    1
    44    10    15    1
@<TRIPOS>MOLECULE
*****
 41 44 0 0 0
SMALL
GASTEIGER

@<TRIPOS>ATOM
      1 C           6.6707   -2.7775   24.2036 C.ar    1  UNL1        0.2144
      2 C           6.1402   -2.7320   25.6059 C.ar    1  UNL1        0.1822
      3 O           6.2322   -3.9459   26.4823 O.2     1  UNL1       -0.4500
      4 C           6.8546   -5.2053   25.9564 C.ar    1  UNL1        0.1545
      5 C           6.9466   -6.4191   26.8327 C.ar    1  UNL1        0.0744
      6 C           7.5690   -7.6784   26.3068 C.ar    1  UNL1        0.1397
      7 O           7.6610   -8.8924   27.1832 O.3     1  UNL1       -0.5053
      8 C           8.0994   -7.7239   24.9044 C.ar    1  UNL1        0.0735
      9 C           8.0074   -6.5101   24.0281 C.ar    1  UNL1        0.1428
     10 O           8.5379   -6.5556   22.6257 O.3     1  UNL1       -0.5052
     11 C           7.3851   -5.2508   24.5540 C.ar    1  UNL1        0.1104
     12 C           7.2931   -4.0369   23.6776 C.ar    1  UNL1        0.2382
     13 O           7.8235   -4.0823   22.2753 O.2     1  UNL1       -0.2830
     14 H           7.3296   -8.8640   28.0592 H       1  UNL1        0.2922
     15 H           8.9267   -7.3423   22.2972 H       1  UNL1        0.2922
     16 C           5.5178   -1.4726   26.1319 C.ar    1  UNL1        0.0379
     17 C           6.3878   -0.3629   26.6433 C.ar    1  UNL1        0.0062
     18 C           5.7654    0.8964   27.1692 C.ar    1  UNL1        0.0367
     19 C           4.2729    1.0460   27.1837 C.ar    1  UNL1        0.1337
     20 O           3.6505    2.3055   27.7096 O.3     1  UNL1       -0.5055
     21 C           3.4029   -0.0637   26.6722 C.ar    1  UNL1        0.0367
     22 C           4.0254   -1.3230   26.1463 C.ar    1  UNL1        0.0062
     23 H           4.1940    2.9986   28.0291 H       1  UNL1        0.2922
     24 O           6.5787   -1.5636   23.3272 O.3     1  UNL1       -0.4441
     25 C           3.0112   -0.9902   20.6450 C.3     1  UNL1        0.2380
     26 C           3.3573    0.0528   21.6659 C.3     1  UNL1        0.2438
     27 C           4.5464   -0.1384   22.5600 C.3     1  UNL1        0.2252
     28 O           4.8925    0.9046   23.5810 O.3     1  UNL1       -0.3757
     29 C           5.3895   -1.3725   22.4331 C.3     1  UNL1        0.3195
     30 O           5.0435   -2.4155   21.4121 O.3     1  UNL1       -0.3173
     31 C           3.8543   -2.2243   20.5180 C.3     1  UNL1        0.1626
     32 C           3.5082   -3.2673   19.4970 C.3     1  UNL1        0.0362
     33 H           5.6824    0.6277   24.0711 H       1  UNL1        0.2107
     34 O           1.8220   -0.7990   19.7509 O.3     1  UNL1       -0.4458
     35 C           3.1863    0.3495   17.8615 C.3     1  UNL1        0.1212
     36 C           1.8949    0.1614   18.6011 C.2     1  UNL1        0.3176
     37 O           0.6763    0.9339   18.1908 O.2     1  UNL1       -0.2501
     38 O           2.5142    1.2869   21.7929 O.3     1  UNL1       -0.4456
     39 C           1.1680    1.2112   22.4502 C.2     1  UNL1        0.3176
     40 C           1.0678    1.0646   23.9396 C.3     1  UNL1        0.1212
     41 O          -0.0780    1.2822   21.6181 O.2     1  UNL1       -0.2501
@<TRIPOS>BOND
     1    35    36    1
     2    36    37    2
     3    36    34    1
     4    25    34    1
     5    25    26    1
     6    26    38    1
     7    38    39    1
     8    39    40    1
     9    39    41    2
    10    26    27    1
    11    27    28    1
    12    27    29    1
    13    29    24    1
    14    24     1    1
    15     1     2   ar
    16     2    16    1
    17    16    17   ar
    18    17    18   ar
    19    18    19   ar
    20    19    20    1
    21    19    21   ar
    22    21    22   ar
    23     2     3   ar
    24     3     4   ar
    25     4     5   ar
    26     5     6   ar
    27     6     7    1
    28     6     8   ar
    29     8     9   ar
    30     9    10    1
    31     9    11   ar
    32    11    12   ar
    33    12    13    2
    34    29    30    1
    35    30    31    1
    36    31    32    1
    37    31    25    1
    38    12     1   ar
    39    22    16   ar
    40    11     4   ar
    41    28    33    1
    42    20    23    1
    43     7    14    1
    44    10    15    1
@<TRIPOS>MOLECULE
*****
 41 44 0 0 0
SMALL
GASTEIGER

@<TRIPOS>ATOM
      1 C           7.0649   -1.9158   24.2400 C.ar    1  UNL1        0.2144
      2 C           6.4482   -3.2269   23.8517 C.ar    1  UNL1        0.1822
      3 O           6.2532   -4.2986   24.8828 O.2     1  UNL1       -0.4500
      4 C           6.6749   -4.0594   26.3023 C.ar    1  UNL1        0.1545
      5 C           6.4799   -5.1311   27.3335 C.ar    1  UNL1        0.0744
      6 C           6.9016   -4.8918   28.7529 C.ar    1  UNL1        0.1397
      7 O           6.7066   -5.9635   29.7841 O.3     1  UNL1       -0.5053
      8 C           7.5183   -3.5807   29.1412 C.ar    1  UNL1        0.0735
      9 C           7.7133   -2.5090   28.1101 C.ar    1  UNL1        0.1428
     10 O           8.3301   -1.1979   28.4984 O.3     1  UNL1       -0.5052
     11 C           7.2916   -2.7483   26.6906 C.ar    1  UNL1        0.1104
     12 C           7.4866   -1.6765   25.6594 C.ar    1  UNL1        0.2382
     13 O           8.1034   -0.3655   26.0477 O.2     1  UNL1       -0.2830
     14 H           6.3213   -6.7825   29.5416 H       1  UNL1        0.2922
     15 H           8.5935   -1.0484   29.3850 H       1  UNL1        0.2922
     16 C           6.0265   -3.4662   22.4321 C.ar    1  UNL1        0.0379
     17 C           7.0561   -3.7733   21.3855 C.ar    1  UNL1        0.0062
     18 C           6.6343   -4.0125   19.9660 C.ar    1  UNL1        0.0367
     19 C           5.1830   -3.9447   19.5933 C.ar    1  UNL1        0.1337
     20 O           4.7612   -4.1840   18.1738 O.3     1  UNL1       -0.5055
     21 C           4.1534   -3.6376   20.6399 C.ar    1  UNL1        0.0367
     22 C           4.5751   -3.3984   22.0594 C.ar    1  UNL1        0.0062
     23 H           5.4044   -4.3758   17.5199 H       1  UNL1        0.2922
     24 O           7.2599   -0.8441   23.2087 O.3     1  UNL1       -0.4441
     25 C           3.7241    0.7582   20.9326 C.3     1  UNL1        0.2380
     26 C           4.9932    0.4218   20.2072 C.3     1  UNL1        0.2438
     27 C           6.1718   -0.1123   20.9659 C.3     1  UNL1        0.2252
     28 O           7.4408   -0.4487   20.2405 O.3     1  UNL1       -0.3757
     29 C           6.0813   -0.3100   22.4500 C.3     1  UNL1        0.3195
     30 O           4.8122    0.0265   23.1755 O.3     1  UNL1       -0.3173
     31 C           3.6336    0.5606   22.4168 C.3     1  UNL1        0.1626
     32 C           2.3646    0.8970   23.1423 C.3     1  UNL1        0.0362
     33 H           8.0974   -0.7788   20.8736 H       1  UNL1        0.2107
     34 O           2.5455    1.2924   20.1739 O.3     1  UNL1       -0.4458
     35 C           1.3310   -1.0041   20.1422 C.3     1  UNL1        0.1212
     36 C           1.5736    0.3456   19.5344 C.2     1  UNL1        0.3176
     37 O           0.8444    0.7485   18.2871 O.2     1  UNL1       -0.2501
     38 O           5.0836    0.6195   18.7231 O.3     1  UNL1       -0.4456
     39 C           5.0361   -0.5653   17.8043 C.2     1  UNL1        0.3176
     40 C           3.7678   -0.8998   17.0767 C.3     1  UNL1        0.1212
     41 O           6.2569   -1.4157   17.6133 O.2     1  UNL1       -0.2501
@<TRIPOS>BOND
     1    35    36    1
     2    36    37    2
     3    36    34    1
     4    25    34    1
     5    25    26    1
     6    26    38    1
     7    38    39    1
     8    39    40    1
     9    39    41    2
    10    26    27    1
    11    27    28    1
    12    27    29    1
    13    29    24    1
    14    24     1    1
    15     1     2   ar
    16     2    16    1
    17    16    17   ar
    18    17    18   ar
    19    18    19   ar
    20    19    20    1
    21    19    21   ar
    22    21    22   ar
    23     2     3   ar
    24     3     4   ar
    25     4     5   ar
    26     5     6   ar
    27     6     7    1
    28     6     8   ar
    29     8     9   ar
    30     9    10    1
    31     9    11   ar
    32    11    12   ar
    33    12    13    2
    34    29    30    1
    35    30    31    1
    36    31    32    1
    37    31    25    1
    38    12     1   ar
    39    22    16   ar
    40    11     4   ar
    41    28    33    1
    42    20    23    1
    43     7    14    1
    44    10    15    1
@<TRIPOS>MOLECULE
*****
 41 44 0 0 0
SMALL
GASTEIGER

@<TRIPOS>ATOM
      1 C           0.2398    2.6624   22.7497 C.ar    1  UNL1        0.2144
      2 C           0.8977    1.7080   23.7017 C.ar    1  UNL1        0.1822
      3 O           1.6927    0.5508   23.1739 O.2     1  UNL1       -0.4500
      4 C           1.8300    0.3479   21.6939 C.ar    1  UNL1        0.1545
      5 C           2.6250   -0.8093   21.1661 C.ar    1  UNL1        0.0744
      6 C           2.7622   -1.0121   19.6862 C.ar    1  UNL1        0.1397
      7 O           3.5573   -2.1694   19.1583 O.3     1  UNL1       -0.5053
      8 C           2.1043   -0.0577   18.7342 C.ar    1  UNL1        0.0735
      9 C           1.3093    1.0995   19.2621 C.ar    1  UNL1        0.1428
     10 O           0.6514    2.0539   18.3101 O.3     1  UNL1       -0.5052
     11 C           1.1721    1.3023   20.7419 C.ar    1  UNL1        0.1104
     12 C           0.3770    2.4596   21.2698 C.ar    1  UNL1        0.2382
     13 O          -0.2809    3.4140   20.3178 O.2     1  UNL1       -0.2830
     14 H           3.9682   -2.7656   19.7530 H       1  UNL1        0.2922
     15 H           0.7371    1.9272   17.3856 H       1  UNL1        0.2922
     16 C           0.7605    1.9109   25.1816 C.ar    1  UNL1        0.0379
     17 C           1.5922    2.9477   25.8768 C.ar    1  UNL1        0.0062
     18 C           1.4549    3.1505   27.3566 C.ar    1  UNL1        0.0367
     19 C           0.4860    2.3166   28.1413 C.ar    1  UNL1        0.1337
     20 O           0.3488    2.5194   29.6212 O.3     1  UNL1       -0.5055
     21 C          -0.3457    1.2798   27.4461 C.ar    1  UNL1        0.0367
     22 C          -0.2085    1.0770   25.9663 C.ar    1  UNL1        0.0062
     23 H           0.8683    3.1671   30.0555 H       1  UNL1        0.2922
     24 O          -0.5553    3.8197   23.2776 O.3     1  UNL1       -0.4441
     25 C          -5.0503    3.6189   23.3410 C.3     1  UNL1        0.2380
     26 C          -4.2863    3.7286   24.6271 C.3     1  UNL1        0.2438
     27 C          -2.7879    3.7955   24.6060 C.3     1  UNL1        0.2252
     28 O          -2.0238    3.9053   25.8921 O.3     1  UNL1       -0.3757
     29 C          -2.0536    3.7528   23.2987 C.3     1  UNL1        0.3195
     30 O          -2.8177    3.6430   22.0125 O.3     1  UNL1       -0.3173
     31 C          -4.3160    3.5761   22.0337 C.3     1  UNL1        0.1626
     32 C          -5.0801    3.4663   20.7476 C.3     1  UNL1        0.0362
     33 H          -1.0733    3.9374   25.7017 H       1  UNL1        0.2107
     34 O          -6.5487    3.5519   23.3622 O.3     1  UNL1       -0.4458
     35 C          -6.7075    6.1133   22.9576 C.3     1  UNL1        0.1212
     36 C          -7.3563    4.8157   23.3385 C.2     1  UNL1        0.3176
     37 O          -8.8127    4.7817   23.6957 O.2     1  UNL1       -0.2501
     38 O          -5.0206    3.7714   25.9344 O.3     1  UNL1       -0.4456
     39 C          -5.0881    5.0504   26.7152 C.2     1  UNL1        0.3176
     40 C          -6.3123    5.9135   26.6364 C.3     1  UNL1        0.1212
     41 O          -3.9313    5.4663   27.5748 O.2     1  UNL1       -0.2501
@<TRIPOS>BOND
     1    35    36    1
     2    36    37    2
     3    36    34    1
     4    25    34    1
     5    25    26    1
     6    26    38    1
     7    38    39    1
     8    39    40    1
     9    39    41    2
    10    26    27    1
    11    27    28    1
    12    27    29    1
    13    29    24    1
    14    24     1    1
    15     1     2   ar
    16     2    16    1
    17    16    17   ar
    18    17    18   ar
    19    18    19   ar
    20    19    20    1
    21    19    21   ar
    22    21    22   ar
    23     2     3   ar
    24     3     4   ar
    25     4     5   ar
    26     5     6   ar
    27     6     7    1
    28     6     8   ar
    29     8     9   ar
    30     9    10    1
    31     9    11   ar
    32    11    12   ar
    33    12    13    2
    34    29    30    1
    35    30    31    1
    36    31    32    1
    37    31    25    1
    38    12     1   ar
    39    22    16   ar
    40    11     4   ar
    41    28    33    1
    42    20    23    1
    43     7    14    1
    44    10    15    1
@<TRIPOS>MOLECULE
*****
 41 44 0 0 0
SMALL
GASTEIGER

@<TRIPOS>ATOM
      1 C           3.9098    1.8319   34.4952 C.ar    1  UNL1        0.2144
      2 C           4.3199    0.5185   35.0927 C.ar    1  UNL1        0.1822
      3 O           3.8327    0.1305   36.4572 O.2     1  UNL1       -0.4500
      4 C           2.9352    1.0559   37.2244 C.ar    1  UNL1        0.1545
      5 C           2.4480    0.6679   38.5889 C.ar    1  UNL1        0.0744
      6 C           1.5506    1.5932   39.3559 C.ar    1  UNL1        0.1397
      7 O           1.0633    1.2052   40.7205 O.3     1  UNL1       -0.5053
      8 C           1.1405    2.9066   38.7585 C.ar    1  UNL1        0.0735
      9 C           1.6278    3.2946   37.3940 C.ar    1  UNL1        0.1428
     10 O           1.2177    4.6079   36.7965 O.3     1  UNL1       -0.5052
     11 C           2.5251    2.3692   36.6269 C.ar    1  UNL1        0.1104
     12 C           3.0125    2.7572   35.2623 C.ar    1  UNL1        0.2382
     13 O           2.6024    4.0706   34.6648 O.2     1  UNL1       -0.2830
     14 H           1.3194    0.3848   41.0938 H       1  UNL1        0.2922
     15 H           0.6571    5.1859   37.2757 H       1  UNL1        0.2922
     16 C           5.2174   -0.4068   34.3256 C.ar    1  UNL1        0.0379
     17 C           6.6832   -0.1088   34.2143 C.ar    1  UNL1        0.0062
     18 C           7.5805   -1.0341   33.4472 C.ar    1  UNL1        0.0367
     19 C           7.0120   -2.2575   32.7913 C.ar    1  UNL1        0.1337
     20 O           7.9094   -3.1829   32.0242 O.3     1  UNL1       -0.5055
     21 C           5.5462   -2.5555   32.9026 C.ar    1  UNL1        0.0367
     22 C           4.6488   -1.6302   33.6697 C.ar    1  UNL1        0.0062
     23 H           8.8251   -2.9967   31.9547 H       1  UNL1        0.2922
     24 O           4.3972    2.2199   33.1306 O.3     1  UNL1       -0.4441
     25 C           3.5454   -0.4349   29.5984 C.3     1  UNL1        0.2380
     26 C           2.4144    0.0898   30.4323 C.3     1  UNL1        0.2438
     27 C           2.6983    0.9747   31.6097 C.3     1  UNL1        0.2252
     28 O           1.5672    1.4994   32.4436 O.3     1  UNL1       -0.3757
     29 C           4.1132    1.3349   31.9532 C.3     1  UNL1        0.3195
     30 O           5.2444    0.8102   31.1193 O.3     1  UNL1       -0.3173
     31 C           4.9605   -0.0747   29.9419 C.3     1  UNL1        0.1626
     32 C           6.0915   -0.5994   29.1080 C.3     1  UNL1        0.0362
     33 H           1.9215    2.0508   33.1587 H       1  UNL1        0.2107
     34 O           3.2615   -1.3198   28.4210 O.3     1  UNL1       -0.4458
     35 C           2.6180    0.5416   26.7266 C.3     1  UNL1        0.1212
     36 C           3.3052   -0.7564   27.0315 C.2     1  UNL1        0.3176
     37 O           4.0360   -1.4910   25.9470 O.2     1  UNL1       -0.2501
     38 O           0.9994   -0.2705   30.0888 O.3     1  UNL1       -0.4456
     39 C           0.1050    0.7418   29.4363 C.2     1  UNL1        0.3176
     40 C          -1.1457    0.2976   28.7374 C.3     1  UNL1        0.1212
     41 O           0.4613    2.1981   29.4829 O.2     1  UNL1       -0.2501
@<TRIPOS>BOND
     1    35    36    1
     2    36    37    2
     3    36    34    1
     4    25    34    1
     5    25    26    1
     6    26    38    1
     7    38    39    1
     8    39    40    1
     9    39    41    2
    10    26    27    1
    11    27    28    1
    12    27    29    1
    13    29    24    1
    14    24     1    1
    15     1     2   ar
    16     2    16    1
    17    16    17   ar
    18    17    18   ar
    19    18    19   ar
    20    19    20    1
    21    19    21   ar
    22    21    22   ar
    23     2     3   ar
    24     3     4   ar
    25     4     5   ar
    26     5     6   ar
    27     6     7    1
    28     6     8   ar
    29     8     9   ar
    30     9    10    1
    31     9    11   ar
    32    11    12   ar
    33    12    13    2
    34    29    30    1
    35    30    31    1
    36    31    32    1
    37    31    25    1
    38    12     1   ar
    39    22    16   ar
    40    11     4   ar
    41    28    33    1
    42    20    23    1
    43     7    14    1
    44    10    15    1
@<TRIPOS>MOLECULE
*****
 41 44 0 0 0
SMALL
GASTEIGER

@<TRIPOS>ATOM
      1 C          -1.1342    3.5761   23.0386 C.ar    1  UNL1        0.2144
      2 C          -1.6326    3.2575   24.4170 C.ar    1  UNL1        0.1822
      3 O          -3.1050    3.2678   24.7031 O.2     1  UNL1       -0.4500
      4 C          -4.0791    3.5967   23.6108 C.ar    1  UNL1        0.1545
      5 C          -5.5514    3.6070   23.8969 C.ar    1  UNL1        0.0744
      6 C          -6.5254    3.9360   22.8047 C.ar    1  UNL1        0.1397
      7 O          -7.9979    3.9463   23.0908 O.3     1  UNL1       -0.5053
      8 C          -6.0270    4.2546   21.4262 C.ar    1  UNL1        0.0735
      9 C          -4.5546    4.2443   21.1401 C.ar    1  UNL1        0.1428
     10 O          -4.0562    4.5629   19.7617 O.3     1  UNL1       -0.5052
     11 C          -3.5806    3.9153   22.2324 C.ar    1  UNL1        0.1104
     12 C          -2.1082    3.9050   21.9463 C.ar    1  UNL1        0.2382
     13 O          -1.6097    4.2237   20.5678 O.2     1  UNL1       -0.2830
     14 H          -8.3093    3.7473   23.9518 H       1  UNL1        0.2922
     15 H          -4.6646    4.7684   19.0793 H       1  UNL1        0.2922
     16 C          -0.6586    2.9285   25.5093 C.ar    1  UNL1        0.0379
     17 C           0.2022    4.0074   26.0966 C.ar    1  UNL1        0.0062
     18 C           1.1762    3.6784   27.1889 C.ar    1  UNL1        0.0367
     19 C           1.2894    2.2705   27.6938 C.ar    1  UNL1        0.1337
     20 O           2.2635    1.9416   28.7861 O.3     1  UNL1       -0.5055
     21 C           0.4287    1.1916   27.1065 C.ar    1  UNL1        0.0367
     22 C          -0.5453    1.5206   26.0142 C.ar    1  UNL1        0.0062
     23 H           2.8012    2.6156   29.1530 H       1  UNL1        0.2922
     24 O           0.3383    3.5658   22.7524 O.3     1  UNL1       -0.4441
     25 C           2.4277   -0.3162   21.8496 C.3     1  UNL1        0.2380
     26 C           1.7436    0.4408   20.7501 C.3     1  UNL1        0.2438
     27 C           1.0471    1.7347   21.0510 C.3     1  UNL1        0.2252
     28 O           0.3630    2.4917   19.9515 O.3     1  UNL1       -0.3757
     29 C           1.0348    2.2718   22.4515 C.3     1  UNL1        0.3195
     30 O           1.7189    1.5148   23.5511 O.3     1  UNL1       -0.3173
     31 C           2.4154    0.2209   23.2502 C.3     1  UNL1        0.1626
     32 C           3.0995   -0.5360   24.3497 C.3     1  UNL1        0.0362
     33 H          -0.0340    3.2993   20.3134 H       1  UNL1        0.2107
     34 O           3.1242   -1.6101   21.5486 O.3     1  UNL1       -0.4458
     35 C           4.9385   -2.8311   20.1460 C.3     1  UNL1        0.1212
     36 C           4.4556   -1.6023   20.8579 C.2     1  UNL1        0.3176
     37 O           5.3041   -0.3655   20.8789 O.2     1  UNL1       -0.2501
     38 O           1.7559   -0.0963   19.3496 O.3     1  UNL1       -0.4456
     39 C           2.7082    0.4692   18.3378 C.2     1  UNL1        0.3176
     40 C           3.4860   -0.4505   17.4440 C.3     1  UNL1        0.1212
     41 O           2.8825    1.9543   18.2200 O.2     1  UNL1       -0.2501
@<TRIPOS>BOND
     1    35    36    1
     2    36    37    2
     3    36    34    1
     4    25    34    1
     5    25    26    1
     6    26    38    1
     7    38    39    1
     8    39    40    1
     9    39    41    2
    10    26    27    1
    11    27    28    1
    12    27    29    1
    13    29    24    1
    14    24     1    1
    15     1     2   ar
    16     2    16    1
    17    16    17   ar
    18    17    18   ar
    19    18    19   ar
    20    19    20    1
    21    19    21   ar
    22    21    22   ar
    23     2     3   ar
    24     3     4   ar
    25     4     5   ar
    26     5     6   ar
    27     6     7    1
    28     6     8   ar
    29     8     9   ar
    30     9    10    1
    31     9    11   ar
    32    11    12   ar
    33    12    13    2
    34    29    30    1
    35    30    31    1
    36    31    32    1
    37    31    25    1
    38    12     1   ar
    39    22    16   ar
    40    11     4   ar
    41    28    33    1
    42    20    23    1
    43     7    14    1
    44    10    15    1
@<TRIPOS>MOLECULE
*****
 41 44 0 0 0
SMALL
GASTEIGER

@<TRIPOS>ATOM
      1 C           6.2543   -1.0267   30.3118 C.ar    1  UNL1        0.2144
      2 C           6.2520   -1.9743   31.4745 C.ar    1  UNL1        0.1822
      3 O           6.4702   -3.4408   31.2473 O.2     1  UNL1       -0.4500
      4 C           6.6908   -3.9597   29.8572 C.ar    1  UNL1        0.1545
      5 C           6.9091   -5.4263   29.6300 C.ar    1  UNL1        0.0744
      6 C           7.1297   -5.9451   28.2400 C.ar    1  UNL1        0.1397
      7 O           7.3479   -7.4117   28.0127 O.3     1  UNL1       -0.5053
      8 C           7.1321   -4.9975   27.0773 C.ar    1  UNL1        0.0735
      9 C           6.9138   -3.5309   27.3045 C.ar    1  UNL1        0.1428
     10 O           6.9162   -2.5833   26.1418 O.3     1  UNL1       -0.5052
     11 C           6.6932   -3.0121   28.6945 C.ar    1  UNL1        0.1104
     12 C           6.4749   -1.5455   28.9218 C.ar    1  UNL1        0.2382
     13 O           6.4773   -0.5979   27.7591 O.2     1  UNL1       -0.2830
     14 H           7.3465   -8.0037   28.7391 H       1  UNL1        0.2922
     15 H           7.0540   -2.9074   25.2735 H       1  UNL1        0.2922
     16 C           6.0313   -1.4554   32.8646 C.ar    1  UNL1        0.0379
     17 C           4.7232   -1.6986   33.5571 C.ar    1  UNL1        0.0062
     18 C           4.5026   -1.1796   34.9470 C.ar    1  UNL1        0.0367
     19 C           5.5902   -0.4175   35.6445 C.ar    1  UNL1        0.1337
     20 O           5.3696    0.1014   37.0345 O.3     1  UNL1       -0.5055
     21 C           6.8983   -0.1744   34.9519 C.ar    1  UNL1        0.0367
     22 C           7.1189   -0.6933   33.5620 C.ar    1  UNL1        0.0062
     23 H           4.5524   -0.0505   37.4671 H       1  UNL1        0.2922
     24 O           6.0361    0.4399   30.5391 O.3     1  UNL1       -0.4441
     25 C           1.9081    1.9868   31.4428 C.3     1  UNL1        0.2380
     26 C           2.2987    1.6736   30.0289 C.3     1  UNL1        0.2438
     27 C           3.6747    1.1580   29.7276 C.3     1  UNL1        0.2252
     28 O           4.0654    0.8447   28.3137 O.3     1  UNL1       -0.3757
     29 C           4.6601    0.9555   30.8403 C.3     1  UNL1        0.3195
     30 O           4.2694    1.2688   32.2543 O.3     1  UNL1       -0.3173
     31 C           2.8934    1.7844   32.5556 C.3     1  UNL1        0.1626
     32 C           2.5028    2.0976   33.9695 C.3     1  UNL1        0.0362
     33 H           4.9808    0.5245   28.2946 H       1  UNL1        0.2107
     34 O           0.5321    2.5024   31.7440 O.3     1  UNL1       -0.4458
     35 C          -0.1164    4.6933   32.9807 C.3     1  UNL1        0.1212
     36 C           0.2615    3.9776   31.7178 C.2     1  UNL1        0.3176
     37 O           0.3689    4.7369   30.4287 O.2     1  UNL1       -0.2501
     38 O           1.3134    1.8760   28.9162 O.3     1  UNL1       -0.4456
     39 C           0.1712    0.9193   28.7426 C.2     1  UNL1        0.3176
     40 C          -0.9886    1.2872   27.8654 C.3     1  UNL1        0.1212
     41 O           0.1888   -0.4054   29.4462 O.2     1  UNL1       -0.2501
@<TRIPOS>BOND
     1    35    36    1
     2    36    37    2
     3    36    34    1
     4    25    34    1
     5    25    26    1
     6    26    38    1
     7    38    39    1
     8    39    40    1
     9    39    41    2
    10    26    27    1
    11    27    28    1
    12    27    29    1
    13    29    24    1
    14    24     1    1
    15     1     2   ar
    16     2    16    1
    17    16    17   ar
    18    17    18   ar
    19    18    19   ar
    20    19    20    1
    21    19    21   ar
    22    21    22   ar
    23     2     3   ar
    24     3     4   ar
    25     4     5   ar
    26     5     6   ar
    27     6     7    1
    28     6     8   ar
    29     8     9   ar
    30     9    10    1
    31     9    11   ar
    32    11    12   ar
    33    12    13    2
    34    29    30    1
    35    30    31    1
    36    31    32    1
    37    31    25    1
    38    12     1   ar
    39    22    16   ar
    40    11     4   ar
    41    28    33    1
    42    20    23    1
    43     7    14    1
    44    10    15    1
@<TRIPOS>MOLECULE
*****
 41 44 0 0 0
SMALL
GASTEIGER

@<TRIPOS>ATOM
      1 C           6.7969   -1.6874   29.7453 C.ar    1  UNL1        0.2144
      2 C           6.5421   -2.5749   30.9274 C.ar    1  UNL1        0.1822
      3 O           6.7419   -4.0568   30.8096 O.2     1  UNL1       -0.4500
      4 C           7.1964   -4.6514   29.5095 C.ar    1  UNL1        0.1545
      5 C           7.3961   -6.1333   29.3916 C.ar    1  UNL1        0.0744
      6 C           7.8506   -6.7277   28.0916 C.ar    1  UNL1        0.1397
      7 O           8.0504   -8.2097   27.9737 O.3     1  UNL1       -0.5053
      8 C           8.1053   -5.8402   26.9095 C.ar    1  UNL1        0.0735
      9 C           7.9056   -4.3583   27.0273 C.ar    1  UNL1        0.1428
     10 O           8.1603   -3.4708   25.8452 O.3     1  UNL1       -0.5052
     11 C           7.4511   -3.7639   28.3274 C.ar    1  UNL1        0.1104
     12 C           7.2513   -2.2818   28.4453 C.ar    1  UNL1        0.2382
     13 O           7.5060   -1.3944   27.2631 O.2     1  UNL1       -0.2830
     14 H           7.8913   -8.7641   28.7122 H       1  UNL1        0.2922
     15 H           8.4442   -3.8421   25.0331 H       1  UNL1        0.2922
     16 C           6.0877   -1.9804   32.2275 C.ar    1  UNL1        0.0379
     17 C           7.0115   -1.0962   33.0115 C.ar    1  UNL1        0.0062
     18 C           6.5570   -0.5018   34.3115 C.ar    1  UNL1        0.0367
     19 C           5.1786   -0.7915   34.8274 C.ar    1  UNL1        0.1337
     20 O           4.7242   -0.1970   36.1275 O.3     1  UNL1       -0.5055
     21 C           4.2548   -1.6757   34.0434 C.ar    1  UNL1        0.0367
     22 C           4.7093   -2.2701   32.7434 C.ar    1  UNL1        0.0062
     23 H           5.3013    0.3553   36.6173 H       1  UNL1        0.2922
     24 O           6.5971   -0.2054   29.8632 O.3     1  UNL1       -0.4441
     25 C           2.5019    1.5663   29.2797 C.3     1  UNL1        0.2380
     26 C           3.4144    1.3833   28.1034 C.3     1  UNL1        0.2438
     27 C           4.7795    0.7927   28.2979 C.3     1  UNL1        0.2252
     28 O           5.6921    0.6097   27.1216 O.3     1  UNL1       -0.3757
     29 C           5.2320    0.3852   29.6687 C.3     1  UNL1        0.3195
     30 O           4.3194    0.5682   30.8451 O.3     1  UNL1       -0.3173
     31 C           2.9544    1.1587   30.6506 C.3     1  UNL1        0.1626
     32 C           2.0418    1.3417   31.8268 C.3     1  UNL1        0.0362
     33 H           6.5285    0.2189   27.4191 H       1  UNL1        0.2107
     34 O           1.1368    2.1568   29.0852 O.3     1  UNL1       -0.4458
     35 C          -0.9753    1.6917   27.6455 C.3     1  UNL1        0.1212
     36 C          -0.0184    1.2718   28.7217 C.2     1  UNL1        0.3176
     37 O          -0.2168   -0.0330   29.4344 O.2     1  UNL1       -0.2501
     38 O           2.9619    1.7908   26.7326 O.3     1  UNL1       -0.4456
     39 C           2.5235    0.7487   25.7468 C.2     1  UNL1        0.3176
     40 C           1.3305    0.9981   24.8724 C.3     1  UNL1        0.1212
     41 O           3.2781   -0.5429   25.6354 O.2     1  UNL1       -0.2501
@<TRIPOS>BOND
     1    35    36    1
     2    36    37    2
     3    36    34    1
     4    25    34    1
     5    25    26    1
     6    26    38    1
     7    38    39    1
     8    39    40    1
     9    39    41    2
    10    26    27    1
    11    27    28    1
    12    27    29    1
    13    29    24    1
    14    24     1    1
    15     1     2   ar
    16     2    16    1
    17    16    17   ar
    18    17    18   ar
    19    18    19   ar
    20    19    20    1
    21    19    21   ar
    22    21    22   ar
    23     2     3   ar
    24     3     4   ar
    25     4     5   ar
    26     5     6   ar
    27     6     7    1
    28     6     8   ar
    29     8     9   ar
    30     9    10    1
    31     9    11   ar
    32    11    12   ar
    33    12    13    2
    34    29    30    1
    35    30    31    1
    36    31    32    1
    37    31    25    1
    38    12     1   ar
    39    22    16   ar
    40    11     4   ar
    41    28    33    1
    42    20    23    1
    43     7    14    1
    44    10    15    1
