@<TRIPOS>MOLECULE
*****
 21 23 0 0 0
SMALL
GASTEIGER

@<TRIPOS>ATOM
      1 C          -6.8940  -19.0580   20.9788 C.ar    1  UNL1        0.0295
      2 C          -7.9600  -18.5544   21.9062 C.ar    1  UNL1        0.0070
      3 C          -9.2926  -18.8428   21.2808 C.ar    1  UNL1        0.0071
      4 C          -9.0502  -19.5245   19.9669 C.ar    1  UNL1        0.0354
      5 S          -7.5678  -19.6575   19.7802 S.2     1  UNL1       -0.0864
      6 O          -0.9744  -18.7313   21.9016 O.3     1  UNL1       -0.5055
      7 C          -2.4543  -18.8130   21.6709 C.ar    1  UNL1        0.1337
      8 C          -3.4061  -18.4019   22.7548 C.ar    1  UNL1        0.0366
      9 C          -4.8861  -18.4836   22.5241 C.ar    1  UNL1        0.0036
     10 C          -5.4141  -18.9763   21.2095 C.ar    1  UNL1        0.0062
     11 C          -4.4623  -19.3874   20.1256 C.ar    1  UNL1        0.0036
     12 C          -2.9824  -19.3057   20.3563 C.ar    1  UNL1        0.0366
     13 H          -0.6445  -18.4235   22.7228 H       1  UNL1        0.2922
     14 C         -10.6324  -18.5081   21.8666 C.ar    1  UNL1        0.0035
     15 C         -11.6776  -17.8463   21.0183 C.ar    1  UNL1        0.0002
     16 C         -13.0173  -17.5117   21.6040 C.ar    1  UNL1        0.0031
     17 C         -13.3118  -17.8388   23.0379 C.ar    1  UNL1        0.0366
     18 C         -12.2666  -18.5006   23.8862 C.ar    1  UNL1        0.1337
     19 O         -12.5611  -18.8277   25.3202 O.3     1  UNL1       -0.5055
     20 C         -10.9269  -18.8352   23.3005 C.ar    1  UNL1        0.0366
     21 H         -13.3980  -18.6186   25.6860 H       1  UNL1        0.2922
@<TRIPOS>BOND
     1     6     7    1
     2     7     8   ar
     3     8     9   ar
     4     9    10   ar
     5    10     1    1
     6     1     2   ar
     7     2     3   ar
     8     3    14    1
     9    14    15   ar
    10    15    16   ar
    11    16    17   ar
    12    17    18   ar
    13    18    19    1
    14    18    20   ar
    15     3     4   ar
    16     4     5   ar
    17    10    11   ar
    18    11    12   ar
    19    12     7   ar
    20     5     1   ar
    21    20    14   ar
    22     6    13    1
    23    19    21    1
@<TRIPOS>MOLECULE
*****
 21 23 0 0 0
SMALL
GASTEIGER

@<TRIPOS>ATOM
      1 C          -9.4486  -19.0071   21.5621 C.ar    1  UNL1        0.0295
      2 C          -8.0560  -19.0019   22.1195 C.ar    1  UNL1        0.0070
      3 C          -7.1093  -19.3360   21.0050 C.ar    1  UNL1        0.0071
      4 C          -7.9168  -19.5477   19.7587 C.ar    1  UNL1        0.0354
      5 S          -9.3625  -19.3445   20.1030 S.2     1  UNL1       -0.0864
      6 O         -14.4797  -17.8771   24.6298 O.3     1  UNL1       -0.5055
      7 C         -13.2219  -18.1596   23.8628 C.ar    1  UNL1        0.1337
      8 C         -12.0509  -18.7961   24.5509 C.ar    1  UNL1        0.0366
      9 C         -10.7931  -19.0786   23.7840 C.ar    1  UNL1        0.0036
     10 C         -10.7064  -18.7246   22.3290 C.ar    1  UNL1        0.0062
     11 C         -11.8774  -18.0881   21.6409 C.ar    1  UNL1        0.0036
     12 C         -13.1352  -17.8056   22.4078 C.ar    1  UNL1        0.0366
     13 H         -14.5339  -18.0982   25.5387 H       1  UNL1        0.2922
     14 C          -5.6171  -19.4402   21.1171 C.ar    1  UNL1        0.0035
     15 C          -4.8558  -20.3363   20.1858 C.ar    1  UNL1        0.0002
     16 C          -3.3636  -20.4404   20.2979 C.ar    1  UNL1        0.0031
     17 C          -2.6329  -19.6485   21.3413 C.ar    1  UNL1        0.0366
     18 C          -3.3942  -18.7524   22.2726 C.ar    1  UNL1        0.1337
     19 O          -2.6634  -17.9604   23.3160 O.3     1  UNL1       -0.5055
     20 C          -4.8863  -18.6482   22.1605 C.ar    1  UNL1        0.0366
     21 H          -1.7313  -18.0255   23.3860 H       1  UNL1        0.2922
@<TRIPOS>BOND
     1     6     7    1
     2     7     8   ar
     3     8     9   ar
     4     9    10   ar
     5    10     1    1
     6     1     2   ar
     7     2     3   ar
     8     3    14    1
     9    14    15   ar
    10    15    16   ar
    11    16    17   ar
    12    17    18   ar
    13    18    19    1
    14    18    20   ar
    15     3     4   ar
    16     4     5   ar
    17    10    11   ar
    18    11    12   ar
    19    12     7   ar
    20     5     1   ar
    21    20    14   ar
    22     6    13    1
    23    19    21    1
@<TRIPOS>MOLECULE
*****
 21 23 0 0 0
SMALL
GASTEIGER

@<TRIPOS>ATOM
      1 C          -5.8214  -19.0942   20.8959 C.ar    1  UNL1        0.0295
      2 C          -6.6844  -18.8149   22.0906 C.ar    1  UNL1        0.0070
      3 C          -8.0993  -19.1600   21.7312 C.ar    1  UNL1        0.0071
      4 C          -8.1107  -19.6525   20.3145 C.ar    1  UNL1        0.0354
      5 S          -6.7029  -19.6119   19.7982 S.2     1  UNL1       -0.0864
      6 O           0.1144  -18.2831   20.5661 O.3     1  UNL1       -0.5055
      7 C          -1.3696  -18.4858   20.6485 C.ar    1  UNL1        0.1337
      8 C          -2.0242  -18.7017   21.9808 C.ar    1  UNL1        0.0366
      9 C          -3.5081  -18.9045   22.0632 C.ar    1  UNL1        0.0036
     10 C          -4.3375  -18.8914   20.8135 C.ar    1  UNL1        0.0062
     11 C          -3.6829  -18.6755   19.4813 C.ar    1  UNL1        0.0036
     12 C          -2.1989  -18.4727   19.3988 C.ar    1  UNL1        0.0366
     13 H           0.6324  -18.2913   21.3468 H       1  UNL1        0.2922
     14 C          -9.2931  -19.0345   22.6307 C.ar    1  UNL1        0.0035
     15 C          -9.4080  -19.9010   23.8497 C.ar    1  UNL1        0.0002
     16 C         -10.6018  -19.7755   24.7492 C.ar    1  UNL1        0.0031
     17 C         -11.6806  -18.7836   24.4297 C.ar    1  UNL1        0.0366
     18 C         -11.5657  -17.9172   23.2107 C.ar    1  UNL1        0.1337
     19 O         -12.6446  -16.9252   22.8912 O.3     1  UNL1       -0.5055
     20 C         -10.3720  -18.0426   22.3112 C.ar    1  UNL1        0.0366
     21 H         -13.3903  -16.8468   23.4531 H       1  UNL1        0.2922
@<TRIPOS>BOND
     1     6     7    1
     2     7     8   ar
     3     8     9   ar
     4     9    10   ar
     5    10     1    1
     6     1     2   ar
     7     2     3   ar
     8     3    14    1
     9    14    15   ar
    10    15    16   ar
    11    16    17   ar
    12    17    18   ar
    13    18    19    1
    14    18    20   ar
    15     3     4   ar
    16     4     5   ar
    17    10    11   ar
    18    11    12   ar
    19    12     7   ar
    20     5     1   ar
    21    20    14   ar
    22     6    13    1
    23    19    21    1
@<TRIPOS>MOLECULE
*****
 21 23 0 0 0
SMALL
GASTEIGER

@<TRIPOS>ATOM
      1 C          -6.2412  -19.2647   21.6378 C.ar    1  UNL1        0.0295
      2 C          -7.3223  -18.2579   21.3780 C.ar    1  UNL1        0.0070
      3 C          -8.5951  -18.7796   21.9764 C.ar    1  UNL1        0.0071
      4 C          -8.3005  -20.1088   22.6060 C.ar    1  UNL1        0.0354
      5 S          -6.8457  -20.4086   22.3968 S.2     1  UNL1       -0.0864
      6 O          -0.5055  -18.7982   19.9394 O.3     1  UNL1       -0.5055
      7 C          -1.9394  -18.9148   20.3640 C.ar    1  UNL1        0.1337
      8 C          -3.0258  -18.9651   19.3309 C.ar    1  UNL1        0.0366
      9 C          -4.4597  -19.0817   19.7556 C.ar    1  UNL1        0.0036
     10 C          -4.8073  -19.1481   21.2132 C.ar    1  UNL1        0.0062
     11 C          -3.7209  -19.0978   22.2462 C.ar    1  UNL1        0.0036
     12 C          -2.2870  -18.9812   21.8216 C.ar    1  UNL1        0.0366
     13 H          -0.2884  -18.7567   19.0288 H       1  UNL1        0.2922
     14 C          -9.9282  -18.0926   21.9498 C.ar    1  UNL1        0.0035
     15 C         -10.7817  -18.0635   23.1830 C.ar    1  UNL1        0.0002
     16 C         -12.1148  -17.3766   23.1564 C.ar    1  UNL1        0.0031
     17 C         -12.5946  -16.7188   21.8967 C.ar    1  UNL1        0.0366
     18 C         -11.7411  -16.7479   20.6635 C.ar    1  UNL1        0.1337
     19 O         -12.2209  -16.0900   19.4037 O.3     1  UNL1       -0.5055
     20 C         -10.4080  -17.4348   20.6900 C.ar    1  UNL1        0.0366
     21 H         -13.0537  -15.6609   19.3871 H       1  UNL1        0.2922
@<TRIPOS>BOND
     1     6     7    1
     2     7     8   ar
     3     8     9   ar
     4     9    10   ar
     5    10     1    1
     6     1     2   ar
     7     2     3   ar
     8     3    14    1
     9    14    15   ar
    10    15    16   ar
    11    16    17   ar
    12    17    18   ar
    13    18    19    1
    14    18    20   ar
    15     3     4   ar
    16     4     5   ar
    17    10    11   ar
    18    11    12   ar
    19    12     7   ar
    20     5     1   ar
    21    20    14   ar
    22     6    13    1
    23    19    21    1
@<TRIPOS>MOLECULE
*****
 21 23 0 0 0
SMALL
GASTEIGER

@<TRIPOS>ATOM
      1 C          -5.6306  -19.0991   20.6015 C.ar    1  UNL1        0.0295
      2 C          -6.5412  -18.8733   21.7718 C.ar    1  UNL1        0.0070
      3 C          -7.9379  -19.2158   21.3452 C.ar    1  UNL1        0.0071
      4 C          -7.8905  -19.6533   19.9112 C.ar    1  UNL1        0.0354
      5 S          -6.4644  -19.5812   19.4516 S.2     1  UNL1       -0.0864
      6 O           0.3053  -18.2272   20.5320 O.3     1  UNL1       -0.5055
      7 C          -1.1786  -18.4451   20.5494 C.ar    1  UNL1        0.1337
      8 C          -1.8707  -18.7924   21.8340 C.ar    1  UNL1        0.0366
      9 C          -3.3546  -19.0104   21.8514 C.ar    1  UNL1        0.0036
     10 C          -4.1466  -18.8811   20.5841 C.ar    1  UNL1        0.0062
     11 C          -3.4545  -18.5338   19.2994 C.ar    1  UNL1        0.0036
     12 C          -1.9706  -18.3159   19.2821 C.ar    1  UNL1        0.0366
     13 H           0.8000  -18.3079   21.3236 H       1  UNL1        0.2922
     14 C          -9.1664  -19.1350   22.2022 C.ar    1  UNL1        0.0035
     15 C         -10.3903  -18.4323   21.6941 C.ar    1  UNL1        0.0002
     16 C         -11.6188  -18.3515   22.5511 C.ar    1  UNL1        0.0031
     17 C         -11.6233  -18.9733   23.9160 C.ar    1  UNL1        0.0366
     18 C         -10.3993  -19.6759   24.4241 C.ar    1  UNL1        0.1337
     19 O         -10.4038  -20.2978   25.7891 O.3     1  UNL1       -0.5055
     20 C          -9.1709  -19.7568   23.5672 C.ar    1  UNL1        0.0366
     21 H         -11.1712  -20.2473   26.3244 H       1  UNL1        0.2922
@<TRIPOS>BOND
     1     6     7    1
     2     7     8   ar
     3     8     9   ar
     4     9    10   ar
     5    10     1    1
     6     1     2   ar
     7     2     3   ar
     8     3    14    1
     9    14    15   ar
    10    15    16   ar
    11    16    17   ar
    12    17    18   ar
    13    18    19    1
    14    18    20   ar
    15     3     4   ar
    16     4     5   ar
    17    10    11   ar
    18    11    12   ar
    19    12     7   ar
    20     5     1   ar
    21    20    14   ar
    22     6    13    1
    23    19    21    1
@<TRIPOS>MOLECULE
*****
 21 23 0 0 0
SMALL
GASTEIGER

@<TRIPOS>ATOM
      1 C          -7.8797  -19.3863   21.2806 C.ar    1  UNL1        0.0295
      2 C          -6.5647  -18.7475   21.6163 C.ar    1  UNL1        0.0070
      3 C          -5.5225  -19.3258   20.7056 C.ar    1  UNL1        0.0071
      4 C          -6.1934  -20.3220   19.8070 C.ar    1  UNL1        0.0354
      5 S          -7.6502  -20.3594   20.1624 S.2     1  UNL1       -0.0864
      6 O         -13.1349  -18.2488   23.9431 O.3     1  UNL1       -0.5055
      7 C         -11.8211  -18.5332   23.2774 C.ar    1  UNL1        0.1337
      8 C         -10.8691  -19.5188   23.8874 C.ar    1  UNL1        0.0366
      9 C          -9.5553  -19.8032   23.2218 C.ar    1  UNL1        0.0036
     10 C          -9.1935  -19.1019   21.9462 C.ar    1  UNL1        0.0062
     11 C         -10.1455  -18.1162   21.3362 C.ar    1  UNL1        0.0036
     12 C         -11.4593  -17.8319   22.0018 C.ar    1  UNL1        0.0366
     13 H         -13.3609  -18.6869   24.7399 H       1  UNL1        0.2922
     14 C          -4.0653  -18.9703   20.6953 C.ar    1  UNL1        0.0035
     15 C          -3.2773  -18.9988   21.9713 C.ar    1  UNL1        0.0002
     16 C          -1.8201  -18.6433   21.9610 C.ar    1  UNL1        0.0031
     17 C          -1.1509  -18.2593   20.6747 C.ar    1  UNL1        0.0366
     18 C          -1.9388  -18.2308   19.3987 C.ar    1  UNL1        0.1337
     19 O          -1.2696  -17.8468   18.1124 O.3     1  UNL1       -0.5055
     20 C          -3.3960  -18.5863   19.4089 C.ar    1  UNL1        0.0366
     21 H          -0.3593  -17.6247   18.1060 H       1  UNL1        0.2922
@<TRIPOS>BOND
     1     6     7    1
     2     7     8   ar
     3     8     9   ar
     4     9    10   ar
     5    10     1    1
     6     1     2   ar
     7     2     3   ar
     8     3    14    1
     9    14    15   ar
    10    15    16   ar
    11    16    17   ar
    12    17    18   ar
    13    18    19    1
    14    18    20   ar
    15     3     4   ar
    16     4     5   ar
    17    10    11   ar
    18    11    12   ar
    19    12     7   ar
    20     5     1   ar
    21    20    14   ar
    22     6    13    1
    23    19    21    1
@<TRIPOS>MOLECULE
*****
 21 23 0 0 0
SMALL
GASTEIGER

@<TRIPOS>ATOM
      1 C          -4.8311  -19.3755   20.3917 C.ar    1  UNL1        0.0295
      2 C          -6.0992  -18.6196   20.6574 C.ar    1  UNL1        0.0070
      3 C          -7.2341  -19.6003   20.6485 C.ar    1  UNL1        0.0071
      4 C          -6.6675  -20.9624   20.3773 C.ar    1  UNL1        0.0354
      5 S          -5.1824  -20.8235   20.2186 S.2     1  UNL1       -0.0864
      6 O           0.6785  -17.0209   20.0766 O.3     1  UNL1       -0.5055
      7 C          -0.6989  -17.6096   20.1554 C.ar    1  UNL1        0.1337
      8 C          -1.5136  -17.7812   18.9077 C.ar    1  UNL1        0.0366
      9 C          -2.8910  -18.3698   18.9865 C.ar    1  UNL1        0.0036
     10 C          -3.4537  -18.7869   20.3129 C.ar    1  UNL1        0.0062
     11 C          -2.6390  -18.6152   21.5606 C.ar    1  UNL1        0.0036
     12 C          -1.2615  -18.0266   21.4818 C.ar    1  UNL1        0.0366
     13 H           1.0300  -16.7604   19.2480 H       1  UNL1        0.2922
     14 C          -8.6815  -19.2759   20.8717 C.ar    1  UNL1        0.0035
     15 C          -9.6532  -19.3597   19.7321 C.ar    1  UNL1        0.0002
     16 C         -11.1006  -19.0352   19.9552 C.ar    1  UNL1        0.0031
     17 C         -11.5762  -18.6270   21.3179 C.ar    1  UNL1        0.0366
     18 C         -10.6045  -18.5432   22.4575 C.ar    1  UNL1        0.1337
     19 O         -11.0802  -18.1350   23.8203 O.3     1  UNL1       -0.5055
     20 C          -9.1572  -18.8676   22.2345 C.ar    1  UNL1        0.0366
     21 H         -11.9843  -17.9323   23.9597 H       1  UNL1        0.2922
@<TRIPOS>BOND
     1     6     7    1
     2     7     8   ar
     3     8     9   ar
     4     9    10   ar
     5    10     1    1
     6     1     2   ar
     7     2     3   ar
     8     3    14    1
     9    14    15   ar
    10    15    16   ar
    11    16    17   ar
    12    17    18   ar
    13    18    19    1
    14    18    20   ar
    15     3     4   ar
    16     4     5   ar
    17    10    11   ar
    18    11    12   ar
    19    12     7   ar
    20     5     1   ar
    21    20    14   ar
    22     6    13    1
    23    19    21    1
@<TRIPOS>MOLECULE
*****
 21 23 0 0 0
SMALL
GASTEIGER

@<TRIPOS>ATOM
      1 C         -16.1575   -7.2237   18.9784 C.ar    1  UNL1        0.0295
      2 C         -14.6845   -7.4136   18.7676 C.ar    1  UNL1        0.0070
      3 C         -13.9986   -6.1211   19.0977 C.ar    1  UNL1        0.0071
      4 C         -15.0476   -5.1324   19.5125 C.ar    1  UNL1        0.0354
      5 S         -16.3818   -5.8138   19.4388 S.2     1  UNL1       -0.0864
      6 O         -20.4057  -11.3747   18.1291 O.3     1  UNL1       -0.5055
      7 C         -19.3437  -10.3369   18.3414 C.ar    1  UNL1        0.1337
      8 C         -19.7257   -8.9461   18.7532 C.ar    1  UNL1        0.0366
      9 C         -18.6636   -7.9084   18.9656 C.ar    1  UNL1        0.0036
     10 C         -17.2195   -8.2614   18.7661 C.ar    1  UNL1        0.0062
     11 C         -16.8375   -9.6522   18.3543 C.ar    1  UNL1        0.0036
     12 C         -17.8995  -10.6900   18.1419 C.ar    1  UNL1        0.0366
     13 H         -21.3078  -11.1541   18.2537 H       1  UNL1        0.2922
     14 C         -12.5228   -5.8627   19.0257 C.ar    1  UNL1        0.0035
     15 C         -11.5670   -7.0093   18.8785 C.ar    1  UNL1        0.0002
     16 C         -10.0911   -6.7509   18.8065 C.ar    1  UNL1        0.0031
     17 C          -9.5712   -5.3460   18.8816 C.ar    1  UNL1        0.0366
     18 C         -10.5270   -4.1994   19.0288 C.ar    1  UNL1        0.1337
     19 O         -10.0070   -2.7944   19.1039 O.3     1  UNL1       -0.5055
     20 C         -12.0028   -4.4577   19.1008 C.ar    1  UNL1        0.0366
     21 H          -9.0851   -2.6330   19.0589 H       1  UNL1        0.2922
@<TRIPOS>BOND
     1     6     7    1
     2     7     8   ar
     3     8     9   ar
     4     9    10   ar
     5    10     1    1
     6     1     2   ar
     7     2     3   ar
     8     3    14    1
     9    14    15   ar
    10    15    16   ar
    11    16    17   ar
    12    17    18   ar
    13    18    19    1
    14    18    20   ar
    15     3     4   ar
    16     4     5   ar
    17    10    11   ar
    18    11    12   ar
    19    12     7   ar
    20     5     1   ar
    21    20    14   ar
    22     6    13    1
    23    19    21    1
@<TRIPOS>MOLECULE
*****
 21 23 0 0 0
SMALL
GASTEIGER

@<TRIPOS>ATOM
      1 C         -14.0833   -7.2098   18.6455 C.ar    1  UNL1        0.0295
      2 C         -15.4722   -7.1281   19.2060 C.ar    1  UNL1        0.0070
      3 C         -16.2050   -8.3764   18.8126 C.ar    1  UNL1        0.0071
      4 C         -15.2690   -9.2296   18.0089 C.ar    1  UNL1        0.0354
      5 S         -13.9577   -8.5086   17.9056 S.2     1  UNL1       -0.0864
      6 O          -9.7847   -3.0686   19.2555 O.3     1  UNL1       -0.5055
      7 C         -10.8593   -4.1039   19.1030 C.ar    1  UNL1        0.1337
      8 C         -10.4911   -5.5341   18.8407 C.ar    1  UNL1        0.0366
      9 C         -11.5657   -6.5694   18.6882 C.ar    1  UNL1        0.0036
     10 C         -13.0086   -6.1745   18.7980 C.ar    1  UNL1        0.0062
     11 C         -13.3768   -4.7443   19.0603 C.ar    1  UNL1        0.0036
     12 C         -12.3022   -3.7090   19.2128 C.ar    1  UNL1        0.0366
     13 H          -8.8833   -3.3153   19.1869 H       1  UNL1        0.2922
     14 C         -17.6246   -8.7125   19.1616 C.ar    1  UNL1        0.0035
     15 C         -18.3439   -7.9255   20.2167 C.ar    1  UNL1        0.0002
     16 C         -19.7635   -8.2615   20.5657 C.ar    1  UNL1        0.0031
     17 C         -20.4637   -9.3845   19.8597 C.ar    1  UNL1        0.0366
     18 C         -19.7444  -10.1715   18.8047 C.ar    1  UNL1        0.1337
     19 O         -20.4446  -11.2946   18.0987 O.3     1  UNL1       -0.5055
     20 C         -18.3248   -9.8355   18.4556 C.ar    1  UNL1        0.0366
     21 H         -21.3314  -11.5045   18.3167 H       1  UNL1        0.2922
@<TRIPOS>BOND
     1     6     7    1
     2     7     8   ar
     3     8     9   ar
     4     9    10   ar
     5    10     1    1
     6     1     2   ar
     7     2     3   ar
     8     3    14    1
     9    14    15   ar
    10    15    16   ar
    11    16    17   ar
    12    17    18   ar
    13    18    19    1
    14    18    20   ar
    15     3     4   ar
    16     4     5   ar
    17    10    11   ar
    18    11    12   ar
    19    12     7   ar
    20     5     1   ar
    21    20    14   ar
    22     6    13    1
    23    19    21    1
