@<TRIPOS>MOLECULE
*****
 34 35 0 0 0
SMALL
GASTEIGER

@<TRIPOS>ATOM
      1 C          -3.5884  -17.3222   22.6162 C.3     1  UNL1        0.1486
      2 C          -2.4831  -17.3875   21.6041 C.2     1  UNL1        0.2621
      3 O          -2.6179  -16.6614   20.2986 O.2     1  UNL1       -0.2713
      4 N          -1.2431  -18.1789   21.8977 N.am    1  UNL1       -0.1956
      5 O          -0.1379  -18.2441   20.8857 O.3     1  UNL1       -0.2951
      6 H          -1.1547  -18.6554   22.7546 H       1  UNL1        0.1823
      7 H          -0.3836  -17.7240   20.1046 H       1  UNL1        0.2414
      8 N          -4.0744  -15.9923   23.1113 N.pl3   1  UNL1       -0.3269
      9 H          -3.5444  -15.1802   22.9414 H       1  UNL1        0.1472
     10 C          -5.3679  -15.8998   23.8652 C.ar    1  UNL1        0.0444
     11 C          -5.3597  -15.5981   25.3345 C.ar    1  UNL1        0.0122
     12 C          -6.6531  -15.5056   26.0884 C.ar    1  UNL1        0.0065
     13 C          -6.6450  -15.2039   27.5577 C.3     1  UNL1        0.0334
     14 C          -7.9548  -15.7147   25.3729 C.ar    1  UNL1        0.1322
     15 F          -9.2483  -15.6221   26.1268 F       1  UNL1       -0.2048
     16 C          -7.9630  -16.0163   23.9036 C.ar    1  UNL1        0.0065
     17 C          -9.2647  -16.2254   23.1882 C.3     1  UNL1        0.0334
     18 C          -6.6696  -16.1089   23.1498 C.ar    1  UNL1        0.0122
     19 C          -4.2076  -18.5869   23.1331 C.3     1  UNL1        0.0290
     20 C          -4.8428  -19.5551   22.1797 C.3     1  UNL1        0.0036
     21 C          -6.3306  -19.5526   21.9886 C.3     1  UNL1        0.0172
     22 C          -6.9168  -19.9294   20.6602 C.3     1  UNL1        0.0688
     23 N          -7.8586  -18.9929   19.9633 N.3     1  UNL1       -0.2951
     24 H          -7.8602  -18.1246   20.4985 H       1  UNL1        0.1235
     25 C          -9.2935  -19.3822   19.7652 C.3     1  UNL1        0.0768
     26 C         -10.3236  -18.9936   20.7840 C.ar    1  UNL1       -0.0079
     27 C         -11.3488  -17.9497   20.4535 C.ar    1  UNL1       -0.0007
     28 C         -12.3788  -17.5611   21.4723 C.ar    1  UNL1        0.0294
     29 C         -12.3837  -18.2164   22.8216 C.ar    1  UNL1        0.1401
     30 F         -13.4137  -17.8277   23.8404 F       1  UNL1       -0.2042
     31 C         -11.3585  -19.2603   23.1521 C.ar    1  UNL1        0.0294
     32 C         -10.3284  -19.6489   22.1333 C.ar    1  UNL1       -0.0007
     33 C          -8.7722  -21.1911   17.9746 C.3     1  UNL1        0.0018
     34 C          -9.6985  -20.1602   18.5483 C.3     1  UNL1        0.0202
@<TRIPOS>BOND
     1    33    34    1
     2    34    25    1
     3    25    23    1
     4    23    22    1
     5    22    21    1
     6    21    20    1
     7    20    19    1
     8     1    19    1
     9     1     8    1
    10     8    10    1
    11    10    11   ar
    12    11    12   ar
    13    12    13    1
    14    12    14   ar
    15    14    15    1
    16    14    16   ar
    17    16    17    1
    18    16    18   ar
    19     1     2    1
    20     2     3    2
    21     2     4   am
    22     4     5    1
    23    25    26    1
    24    26    27   ar
    25    27    28   ar
    26    28    29   ar
    27    29    30    1
    28    29    31   ar
    29    31    32   ar
    30    18    10   ar
    31    32    26   ar
    32    23    24    1
    33     8     9    1
    34     4     6    1
    35     5     7    1
@<TRIPOS>MOLECULE
*****
 34 35 0 0 0
SMALL
GASTEIGER

@<TRIPOS>ATOM
      1 C          -6.7992  -15.7027   23.8753 C.3     1  UNL1        0.1486
      2 C          -6.7368  -15.1727   25.2771 C.2     1  UNL1        0.2621
      3 O          -5.4481  -14.6256   25.8155 O.2     1  UNL1       -0.2713
      4 N          -7.9633  -15.1897   26.1406 N.am    1  UNL1       -0.1956
      5 O          -7.9009  -14.6597   27.5425 O.3     1  UNL1       -0.2951
      6 H          -8.8091  -15.5487   25.7873 H       1  UNL1        0.1823
      7 H          -7.0021  -14.3469   27.7302 H       1  UNL1        0.2414
      8 N          -7.7543  -15.1007   22.8877 N.pl3   1  UNL1       -0.3269
      9 H          -7.5394  -14.2429   22.4551 H       1  UNL1        0.1472
     10 C          -9.0369  -15.8058   22.5591 C.ar    1  UNL1        0.0444
     11 C          -9.7243  -15.5421   21.2523 C.ar    1  UNL1        0.0122
     12 C         -11.0068  -16.2472   20.9238 C.ar    1  UNL1        0.0065
     13 C         -11.6943  -15.9834   19.6169 C.3     1  UNL1        0.0334
     14 C         -11.6019  -17.2160   21.9022 C.ar    1  UNL1        0.1322
     15 F         -12.8845  -17.9211   21.5737 F       1  UNL1       -0.2048
     16 C         -10.9145  -17.4797   23.2090 C.ar    1  UNL1        0.0065
     17 C         -11.5096  -18.4486   24.1874 C.3     1  UNL1        0.0334
     18 C          -9.6320  -16.7747   23.5375 C.ar    1  UNL1        0.0122
     19 C          -5.9064  -16.8347   23.4610 C.3     1  UNL1        0.0290
     20 C          -4.4171  -16.6561   23.4671 C.3     1  UNL1        0.0036
     21 C          -3.5222  -17.8292   23.7373 C.3     1  UNL1        0.0172
     22 C          -2.6733  -18.3941   22.6371 C.3     1  UNL1        0.0688
     23 N          -3.1328  -19.6062   21.8823 N.3     1  UNL1       -0.2951
     24 H          -2.2939  -20.0819   21.5503 H       1  UNL1        0.1235
     25 C          -4.0408  -19.4527   20.6983 C.3     1  UNL1        0.0768
     26 C          -5.5274  -19.5447   20.8762 C.ar    1  UNL1       -0.0079
     27 C          -6.4432  -19.1235   19.7654 C.ar    1  UNL1       -0.0007
     28 C          -7.9297  -19.2155   19.9433 C.ar    1  UNL1        0.0294
     29 C          -8.5005  -19.7289   21.2320 C.ar    1  UNL1        0.1401
     30 F          -9.9871  -19.8209   21.4099 F       1  UNL1       -0.2042
     31 C          -7.5847  -20.1502   22.3428 C.ar    1  UNL1        0.0294
     32 C          -6.0981  -20.0581   22.1649 C.ar    1  UNL1       -0.0007
     33 C          -2.6360  -17.9813   19.0822 C.3     1  UNL1        0.0018
     34 C          -3.4622  -19.2071   19.3362 C.3     1  UNL1        0.0202
@<TRIPOS>BOND
     1    33    34    1
     2    34    25    1
     3    25    23    1
     4    23    22    1
     5    22    21    1
     6    21    20    1
     7    20    19    1
     8     1    19    1
     9     1     8    1
    10     8    10    1
    11    10    11   ar
    12    11    12   ar
    13    12    13    1
    14    12    14   ar
    15    14    15    1
    16    14    16   ar
    17    16    17    1
    18    16    18   ar
    19     1     2    1
    20     2     3    2
    21     2     4   am
    22     4     5    1
    23    25    26    1
    24    26    27   ar
    25    27    28   ar
    26    28    29   ar
    27    29    30    1
    28    29    31   ar
    29    31    32   ar
    30    18    10   ar
    31    32    26   ar
    32    23    24    1
    33     8     9    1
    34     4     6    1
    35     5     7    1
@<TRIPOS>MOLECULE
*****
 34 35 0 0 0
SMALL
GASTEIGER

@<TRIPOS>ATOM
      1 C          -5.6214  -16.4357   24.4617 C.3     1  UNL1        0.1486
      2 C          -5.7538  -15.4581   25.5916 C.2     1  UNL1        0.2621
      3 O          -4.8910  -14.2316   25.6273 O.2     1  UNL1       -0.2713
      4 N          -6.7492  -15.7070   26.6859 N.am    1  UNL1       -0.1956
      5 O          -6.8816  -14.7294   27.8158 O.3     1  UNL1       -0.2951
      6 H          -7.3155  -16.5120   26.6625 H       1  UNL1        0.1823
      7 H          -6.2561  -13.9993   27.6868 H       1  UNL1        0.2414
      8 N          -4.4074  -17.3116   24.3662 N.pl3   1  UNL1       -0.3269
      9 H          -3.9518  -17.6124   25.1854 H       1  UNL1        0.1472
     10 C          -3.8876  -17.7291   23.0224 C.ar    1  UNL1        0.0444
     11 C          -4.5272  -18.8734   22.2934 C.ar    1  UNL1        0.0122
     12 C          -4.0074  -19.2909   20.9497 C.ar    1  UNL1        0.0065
     13 C          -4.6469  -20.4352   20.2206 C.3     1  UNL1        0.0334
     14 C          -2.8481  -18.5640   20.3351 C.ar    1  UNL1        0.1322
     15 F          -2.3283  -18.9815   18.9913 F       1  UNL1       -0.2048
     16 C          -2.2086  -17.4197   21.0641 C.ar    1  UNL1        0.0065
     17 C          -1.0493  -16.6929   20.4495 C.3     1  UNL1        0.0334
     18 C          -2.7284  -17.0023   22.4078 C.ar    1  UNL1        0.0122
     19 C          -6.7029  -16.5374   23.4273 C.3     1  UNL1        0.0290
     20 C          -7.8840  -15.6146   23.4839 C.3     1  UNL1        0.0036
     21 C          -9.1866  -16.0974   24.0496 C.3     1  UNL1        0.0172
     22 C          -9.2093  -17.2694   24.9856 C.3     1  UNL1        0.0688
     23 N          -9.7899  -18.5773   24.5358 N.3     1  UNL1       -0.2951
     24 H          -9.0035  -19.1969   24.3408 H       1  UNL1        0.1235
     25 C         -10.6877  -18.6260   23.3352 C.3     1  UNL1        0.0768
     26 C         -10.1230  -18.9748   21.9900 C.ar    1  UNL1       -0.0079
     27 C         -11.0441  -19.2778   20.8456 C.ar    1  UNL1       -0.0007
     28 C         -10.4794  -19.6267   19.5005 C.ar    1  UNL1        0.0294
     29 C          -8.9936  -19.6725   19.2997 C.ar    1  UNL1        0.1401
     30 F          -8.4290  -20.0214   17.9546 F       1  UNL1       -0.2042
     31 C          -8.0725  -19.3695   20.4442 C.ar    1  UNL1        0.0294
     32 C          -8.6371  -19.0207   21.7893 C.ar    1  UNL1       -0.0007
     33 C         -12.7109  -17.0464   22.9330 C.3     1  UNL1        0.0018
     34 C         -12.1503  -18.3258   23.4797 C.3     1  UNL1        0.0202
@<TRIPOS>BOND
     1    33    34    1
     2    34    25    1
     3    25    23    1
     4    23    22    1
     5    22    21    1
     6    21    20    1
     7    20    19    1
     8     1    19    1
     9     1     8    1
    10     8    10    1
    11    10    11   ar
    12    11    12   ar
    13    12    13    1
    14    12    14   ar
    15    14    15    1
    16    14    16   ar
    17    16    17    1
    18    16    18   ar
    19     1     2    1
    20     2     3    2
    21     2     4   am
    22     4     5    1
    23    25    26    1
    24    26    27   ar
    25    27    28   ar
    26    28    29   ar
    27    29    30    1
    28    29    31   ar
    29    31    32   ar
    30    18    10   ar
    31    32    26   ar
    32    23    24    1
    33     8     9    1
    34     4     6    1
    35     5     7    1
@<TRIPOS>MOLECULE
*****
 34 35 0 0 0
SMALL
GASTEIGER

@<TRIPOS>ATOM
      1 C          -4.9602  -16.1437   24.6393 C.3     1  UNL1        0.1486
      2 C          -5.4654  -15.8822   26.0272 C.2     1  UNL1        0.2621
      3 O          -5.1538  -16.8467   27.1329 O.2     1  UNL1       -0.2713
      4 N          -6.2823  -14.6561   26.3094 N.am    1  UNL1       -0.1956
      5 O          -6.7876  -14.3947   27.6974 O.3     1  UNL1       -0.2951
      6 H          -6.4869  -14.0231   25.5837 H       1  UNL1        0.1823
      7 H          -6.4992  -15.1094   28.2864 H       1  UNL1        0.2414
      8 N          -3.9806  -17.2528   24.3943 N.pl3   1  UNL1       -0.3269
      9 H          -3.4162  -17.5827   25.1304 H       1  UNL1        0.1472
     10 C          -3.8609  -17.8595   23.0276 C.ar    1  UNL1        0.0444
     11 C          -4.9257  -18.7877   22.5231 C.ar    1  UNL1        0.0122
     12 C          -4.8060  -19.3943   21.1565 C.ar    1  UNL1        0.0065
     13 C          -5.8708  -20.3226   20.6520 C.3     1  UNL1        0.0334
     14 C          -3.6214  -19.0727   20.2944 C.ar    1  UNL1        0.1322
     15 F          -3.5016  -19.6793   18.9277 F       1  UNL1       -0.2048
     16 C          -2.5565  -18.1445   20.7988 C.ar    1  UNL1        0.0065
     17 C          -1.3719  -17.8229   19.9367 C.3     1  UNL1        0.0334
     18 C          -2.6763  -17.5379   22.1654 C.ar    1  UNL1        0.0122
     19 C          -5.4346  -15.2959   23.4963 C.3     1  UNL1        0.0290
     20 C          -6.9000  -15.2017   23.1901 C.3     1  UNL1        0.0036
     21 C          -7.7121  -16.4511   23.0184 C.3     1  UNL1        0.0172
     22 C          -8.5645  -16.6297   21.7971 C.3     1  UNL1        0.0688
     23 N          -8.6364  -17.9670   21.1216 N.3     1  UNL1       -0.2951
     24 H          -8.2963  -17.8344   20.1691 H       1  UNL1        0.1235
     25 C          -9.9494  -18.6846   21.0166 C.3     1  UNL1        0.0768
     26 C         -10.9365  -18.6109   22.1436 C.ar    1  UNL1       -0.0079
     27 C         -10.5938  -19.1984   23.4805 C.ar    1  UNL1       -0.0007
     28 C         -11.5810  -19.1247   24.6074 C.ar    1  UNL1        0.0294
     29 C         -12.9109  -18.4635   24.3975 C.ar    1  UNL1        0.1401
     30 F         -13.8981  -18.3898   25.5245 F       1  UNL1       -0.2042
     31 C         -13.2537  -17.8759   23.0606 C.ar    1  UNL1        0.0294
     32 C         -12.2665  -17.9496   21.9336 C.ar    1  UNL1       -0.0007
     33 C          -9.1701  -20.0253   18.9321 C.3     1  UNL1        0.0018
     34 C         -10.2752  -19.4759   19.7847 C.3     1  UNL1        0.0202
@<TRIPOS>BOND
     1    33    34    1
     2    34    25    1
     3    25    23    1
     4    23    22    1
     5    22    21    1
     6    21    20    1
     7    20    19    1
     8     1    19    1
     9     1     8    1
    10     8    10    1
    11    10    11   ar
    12    11    12   ar
    13    12    13    1
    14    12    14   ar
    15    14    15    1
    16    14    16   ar
    17    16    17    1
    18    16    18   ar
    19     1     2    1
    20     2     3    2
    21     2     4   am
    22     4     5    1
    23    25    26    1
    24    26    27   ar
    25    27    28   ar
    26    28    29   ar
    27    29    30    1
    28    29    31   ar
    29    31    32   ar
    30    18    10   ar
    31    32    26   ar
    32    23    24    1
    33     8     9    1
    34     4     6    1
    35     5     7    1
@<TRIPOS>MOLECULE
*****
 34 35 0 0 0
SMALL
GASTEIGER

@<TRIPOS>ATOM
      1 C          -3.6263  -17.8762   22.2045 C.3     1  UNL1        0.1486
      2 C          -2.2801  -18.3840   21.7803 C.2     1  UNL1        0.2621
      3 O          -1.9842  -19.8538   21.8268 O.2     1  UNL1       -0.2713
      4 N          -1.2298  -17.4220   21.3095 N.am    1  UNL1       -0.1956
      5 O           0.1163  -17.9299   20.8853 O.3     1  UNL1       -0.2951
      6 H          -1.4240  -16.4574   21.2790 H       1  UNL1        0.1823
      7 H           0.1409  -18.8953   20.9759 H       1  UNL1        0.2414
      8 N          -3.7263  -16.7413   23.1802 N.pl3   1  UNL1       -0.3269
      9 H          -2.9238  -16.2214   23.4146 H       1  UNL1        0.1472
     10 C          -5.0492  -16.3985   23.7989 C.ar    1  UNL1        0.0444
     11 C          -6.3064  -16.5043   22.9877 C.ar    1  UNL1        0.0122
     12 C          -7.6292  -16.1615   23.6063 C.ar    1  UNL1        0.0065
     13 C          -8.8865  -16.2672   22.7951 C.3     1  UNL1        0.0334
     14 C          -7.6947  -15.7129   25.0362 C.ar    1  UNL1        0.1322
     15 F          -9.0175  -15.3701   25.6548 F       1  UNL1       -0.2048
     16 C          -6.4374  -15.6071   25.8474 C.ar    1  UNL1        0.0065
     17 C          -6.5029  -15.1585   27.2772 C.3     1  UNL1        0.0334
     18 C          -5.1147  -15.9499   25.2287 C.ar    1  UNL1        0.0122
     19 C          -4.8724  -18.5033   21.6531 C.3     1  UNL1        0.0290
     20 C          -5.3825  -19.7906   22.2296 C.3     1  UNL1        0.0036
     21 C          -6.6089  -20.4357   21.6554 C.3     1  UNL1        0.0172
     22 C          -6.8709  -20.3681   20.1799 C.3     1  UNL1        0.0688
     23 N          -7.7707  -19.3035   19.6260 N.3     1  UNL1       -0.2951
     24 H          -7.7084  -18.5064   20.2593 H       1  UNL1        0.1235
     25 C          -9.2305  -19.5846   19.4261 C.3     1  UNL1        0.0768
     26 C         -10.2354  -19.0700   20.4137 C.ar    1  UNL1       -0.0079
     27 C         -10.3314  -19.6879   21.7771 C.ar    1  UNL1       -0.0007
     28 C         -11.3364  -19.1733   22.7647 C.ar    1  UNL1        0.0294
     29 C         -12.2454  -18.0409   22.3888 C.ar    1  UNL1        0.1401
     30 F         -13.2503  -17.5263   23.3763 F       1  UNL1       -0.2042
     31 C         -12.1494  -17.4230   21.0253 C.ar    1  UNL1        0.0294
     32 C         -11.1445  -17.9376   20.0377 C.ar    1  UNL1       -0.0007
     33 C          -8.8422  -21.5095   17.7249 C.3     1  UNL1        0.0018
     34 C          -9.6854  -20.3804   18.2387 C.3     1  UNL1        0.0202
@<TRIPOS>BOND
     1    33    34    1
     2    34    25    1
     3    25    23    1
     4    23    22    1
     5    22    21    1
     6    21    20    1
     7    20    19    1
     8     1    19    1
     9     1     8    1
    10     8    10    1
    11    10    11   ar
    12    11    12   ar
    13    12    13    1
    14    12    14   ar
    15    14    15    1
    16    14    16   ar
    17    16    17    1
    18    16    18   ar
    19     1     2    1
    20     2     3    2
    21     2     4   am
    22     4     5    1
    23    25    26    1
    24    26    27   ar
    25    27    28   ar
    26    28    29   ar
    27    29    30    1
    28    29    31   ar
    29    31    32   ar
    30    18    10   ar
    31    32    26   ar
    32    23    24    1
    33     8     9    1
    34     4     6    1
    35     5     7    1
@<TRIPOS>MOLECULE
*****
 34 35 0 0 0
SMALL
GASTEIGER

@<TRIPOS>ATOM
      1 C          -5.8439  -16.4470   24.1191 C.3     1  UNL1        0.1486
      2 C          -6.0509  -15.5190   25.2793 C.2     1  UNL1        0.2621
      3 O          -5.0402  -14.4508   25.5748 O.2     1  UNL1       -0.2713
      4 N          -7.2686  -15.6593   26.1440 N.am    1  UNL1       -0.1956
      5 O          -7.4755  -14.7313   27.3042 O.3     1  UNL1       -0.2951
      6 H          -7.9319  -16.3604   25.9500 H       1  UNL1        0.1823
      7 H          -6.7357  -14.1059   27.3539 H       1  UNL1        0.2414
      8 N          -4.5409  -17.1733   23.9628 N.pl3   1  UNL1       -0.3269
      9 H          -3.8600  -17.1211   24.6720 H       1  UNL1        0.1472
     10 C          -4.2751  -17.9792   22.7259 C.ar    1  UNL1        0.0444
     11 C          -3.0218  -17.7478   21.9349 C.ar    1  UNL1        0.0122
     12 C          -2.7561  -18.5537   20.6980 C.ar    1  UNL1        0.0065
     13 C          -1.5028  -18.3223   19.9069 C.3     1  UNL1        0.0334
     14 C          -3.7436  -19.5910   20.2522 C.ar    1  UNL1        0.1322
     15 F          -3.4778  -20.3969   19.0152 F       1  UNL1       -0.2048
     16 C          -4.9968  -19.8225   21.0432 C.ar    1  UNL1        0.0065
     17 C          -5.9844  -20.8598   20.5973 C.3     1  UNL1        0.0334
     18 C          -5.2626  -19.0166   22.2800 C.ar    1  UNL1        0.0122
     19 C          -6.9401  -16.6487   23.1152 C.3     1  UNL1        0.0290
     20 C          -7.8394  -15.5060   22.7470 C.3     1  UNL1        0.0036
     21 C          -9.3025  -15.7461   22.5201 C.3     1  UNL1        0.0172
     22 C          -9.8739  -15.6431   21.1370 C.3     1  UNL1        0.0688
     23 N         -10.3571  -16.8755   20.4314 N.3     1  UNL1       -0.2951
     24 H         -11.2942  -16.6685   20.0858 H       1  UNL1        0.1235
     25 C         -10.4462  -18.1771   21.1715 C.3     1  UNL1        0.0768
     26 C         -11.3561  -18.3050   22.3571 C.ar    1  UNL1       -0.0079
     27 C         -12.7500  -17.7542   22.2956 C.ar    1  UNL1       -0.0007
     28 C         -13.6599  -17.8821   23.4812 C.ar    1  UNL1        0.0294
     29 C         -13.1761  -18.5609   24.7282 C.ar    1  UNL1        0.1401
     30 F         -14.0861  -18.6889   25.9138 F       1  UNL1       -0.2042
     31 C         -11.7822  -19.1118   24.7897 C.ar    1  UNL1        0.0294
     32 C         -10.8722  -18.9839   23.6041 C.ar    1  UNL1       -0.0007
     33 C          -9.5640  -19.7148   19.2722 C.3     1  UNL1        0.0018
     34 C          -9.6252  -19.3509   20.7260 C.3     1  UNL1        0.0202
@<TRIPOS>BOND
     1    33    34    1
     2    34    25    1
     3    25    23    1
     4    23    22    1
     5    22    21    1
     6    21    20    1
     7    20    19    1
     8     1    19    1
     9     1     8    1
    10     8    10    1
    11    10    11   ar
    12    11    12   ar
    13    12    13    1
    14    12    14   ar
    15    14    15    1
    16    14    16   ar
    17    16    17    1
    18    16    18   ar
    19     1     2    1
    20     2     3    2
    21     2     4   am
    22     4     5    1
    23    25    26    1
    24    26    27   ar
    25    27    28   ar
    26    28    29   ar
    27    29    30    1
    28    29    31   ar
    29    31    32   ar
    30    18    10   ar
    31    32    26   ar
    32    23    24    1
    33     8     9    1
    34     4     6    1
    35     5     7    1
@<TRIPOS>MOLECULE
*****
 34 35 0 0 0
SMALL
GASTEIGER

@<TRIPOS>ATOM
      1 C          -5.8362  -15.4261   24.0017 C.3     1  UNL1        0.1486
      2 C          -6.0398  -15.4217   25.4878 C.2     1  UNL1        0.2621
      3 O          -4.9853  -15.9893   26.3910 O.2     1  UNL1       -0.2713
      4 N          -7.2980  -14.8495   26.0707 N.am    1  UNL1       -0.1956
      5 O          -7.5016  -14.8451   27.5568 O.3     1  UNL1       -0.2951
      6 H          -7.9901  -14.4770   25.4779 H       1  UNL1        0.1823
      7 H          -6.7314  -15.2453   27.9899 H       1  UNL1        0.2414
      8 N          -4.4657  -15.2091   23.4318 N.pl3   1  UNL1       -0.3269
      9 H          -4.0331  -14.3284   23.5120 H       1  UNL1        0.1472
     10 C          -3.7545  -16.3340   22.7397 C.ar    1  UNL1        0.0444
     11 C          -2.5414  -16.0527   21.9036 C.ar    1  UNL1        0.0122
     12 C          -1.8302  -17.1775   21.2116 C.ar    1  UNL1        0.0065
     13 C          -0.6170  -16.8962   20.3755 C.3     1  UNL1        0.0334
     14 C          -2.3322  -18.5836   21.3556 C.ar    1  UNL1        0.1322
     15 F          -1.6210  -19.7085   20.6635 F       1  UNL1       -0.2048
     16 C          -3.5454  -18.8650   22.1916 C.ar    1  UNL1        0.0065
     17 C          -4.0474  -20.2711   22.3356 C.3     1  UNL1        0.0334
     18 C          -4.2565  -17.7401   22.8837 C.ar    1  UNL1        0.0122
     19 C          -7.0031  -15.6475   23.0854 C.3     1  UNL1        0.0290
     20 C          -7.7609  -16.9410   23.1353 C.3     1  UNL1        0.0036
     21 C          -7.5639  -17.9676   22.0596 C.3     1  UNL1        0.0172
     22 C          -7.6416  -19.4280   22.3933 C.3     1  UNL1        0.0688
     23 N          -8.9765  -20.1051   22.4908 N.3     1  UNL1       -0.2951
     24 H          -9.1888  -20.4724   21.5632 H       1  UNL1        0.1235
     25 C         -10.1805  -19.3287   22.9352 C.3     1  UNL1        0.0768
     26 C         -10.8078  -18.3251   22.0137 C.ar    1  UNL1       -0.0079
     27 C         -11.5165  -17.1294   22.5775 C.ar    1  UNL1       -0.0007
     28 C         -12.1438  -16.1258   21.6560 C.ar    1  UNL1        0.0294
     29 C         -12.0625  -16.3178   20.1706 C.ar    1  UNL1        0.1401
     30 F         -12.6898  -15.3142   19.2491 F       1  UNL1       -0.2042
     31 C         -11.3538  -17.5136   19.6067 C.ar    1  UNL1        0.0294
     32 C         -10.7265  -18.5172   20.5282 C.ar    1  UNL1       -0.0007
     33 C         -10.1165  -18.9231   25.5006 C.3     1  UNL1        0.0018
     34 C         -10.7573  -19.5560   24.3011 C.3     1  UNL1        0.0202
@<TRIPOS>BOND
     1    33    34    1
     2    34    25    1
     3    25    23    1
     4    23    22    1
     5    22    21    1
     6    21    20    1
     7    20    19    1
     8     1    19    1
     9     1     8    1
    10     8    10    1
    11    10    11   ar
    12    11    12   ar
    13    12    13    1
    14    12    14   ar
    15    14    15    1
    16    14    16   ar
    17    16    17    1
    18    16    18   ar
    19     1     2    1
    20     2     3    2
    21     2     4   am
    22     4     5    1
    23    25    26    1
    24    26    27   ar
    25    27    28   ar
    26    28    29   ar
    27    29    30    1
    28    29    31   ar
    29    31    32   ar
    30    18    10   ar
    31    32    26   ar
    32    23    24    1
    33     8     9    1
    34     4     6    1
    35     5     7    1
@<TRIPOS>MOLECULE
*****
 34 35 0 0 0
SMALL
GASTEIGER

@<TRIPOS>ATOM
      1 C          -6.9153  -16.1715   23.9449 C.3     1  UNL1        0.1486
      2 C          -7.3850  -15.5370   25.2203 C.2     1  UNL1        0.2621
      3 O          -8.8514  -15.3317   25.4602 O.2     1  UNL1       -0.2713
      4 N          -6.3883  -15.1077   26.2559 N.am    1  UNL1       -0.1956
      5 O          -6.8581  -14.4732   27.5313 O.3     1  UNL1       -0.2951
      6 H          -5.4259  -15.2423   26.0985 H       1  UNL1        0.1823
      7 H          -7.8264  -14.4153   27.5262 H       1  UNL1        0.2414
      8 N          -5.4493  -16.2326   23.6332 N.pl3   1  UNL1       -0.3269
      9 H          -4.8484  -15.5206   23.9511 H       1  UNL1        0.1472
     10 C          -4.8990  -17.3787   22.8371 C.ar    1  UNL1        0.0444
     11 C          -5.8115  -18.4731   22.3687 C.ar    1  UNL1        0.0122
     12 C          -5.2612  -19.6191   21.5726 C.ar    1  UNL1        0.0065
     13 C          -6.1737  -20.7137   21.1041 C.3     1  UNL1        0.0334
     14 C          -3.7983  -19.6707   21.2449 C.ar    1  UNL1        0.1322
     15 F          -3.2479  -20.8167   20.4488 F       1  UNL1       -0.2048
     16 C          -2.8858  -18.5762   21.7134 C.ar    1  UNL1        0.0065
     17 C          -1.4229  -18.6278   21.3857 C.3     1  UNL1        0.0334
     18 C          -3.4361  -17.4303   22.5094 C.ar    1  UNL1        0.0122
     19 C          -7.9116  -16.7448   22.9811 C.3     1  UNL1        0.0290
     20 C          -8.5348  -15.8675   21.9362 C.3     1  UNL1        0.0036
     21 C         -10.0270  -15.8174   21.7917 C.3     1  UNL1        0.0172
     22 C         -10.6522  -15.9060   20.4311 C.3     1  UNL1        0.0688
     23 N         -11.3913  -17.1463   20.0247 N.3     1  UNL1       -0.2951
     24 H         -12.2935  -17.1205   20.4999 H       1  UNL1        0.1235
     25 C         -10.7971  -18.4964   20.2966 C.3     1  UNL1        0.0768
     26 C         -10.6348  -18.9738   21.7093 C.ar    1  UNL1       -0.0079
     27 C          -9.4211  -19.7642   22.0992 C.ar    1  UNL1       -0.0007
     28 C          -9.2589  -20.2415   23.5120 C.ar    1  UNL1        0.0294
     29 C         -10.3104  -19.9284   24.5348 C.ar    1  UNL1        0.1401
     30 F         -10.1481  -20.4057   25.9476 F       1  UNL1       -0.2042
     31 C         -11.5242  -19.1379   24.1450 C.ar    1  UNL1        0.0294
     32 C         -11.6864  -18.6606   22.7322 C.ar    1  UNL1       -0.0007
     33 C          -8.9052  -19.5615   18.8695 C.3     1  UNL1        0.0018
     34 C         -10.3650  -19.3693   19.1557 C.3     1  UNL1        0.0202
@<TRIPOS>BOND
     1    33    34    1
     2    34    25    1
     3    25    23    1
     4    23    22    1
     5    22    21    1
     6    21    20    1
     7    20    19    1
     8     1    19    1
     9     1     8    1
    10     8    10    1
    11    10    11   ar
    12    11    12   ar
    13    12    13    1
    14    12    14   ar
    15    14    15    1
    16    14    16   ar
    17    16    17    1
    18    16    18   ar
    19     1     2    1
    20     2     3    2
    21     2     4   am
    22     4     5    1
    23    25    26    1
    24    26    27   ar
    25    27    28   ar
    26    28    29   ar
    27    29    30    1
    28    29    31   ar
    29    31    32   ar
    30    18    10   ar
    31    32    26   ar
    32    23    24    1
    33     8     9    1
    34     4     6    1
    35     5     7    1
@<TRIPOS>MOLECULE
*****
 34 35 0 0 0
SMALL
GASTEIGER

@<TRIPOS>ATOM
      1 C          -3.0768  -18.0601   21.4427 C.3     1  UNL1        0.1486
      2 C          -1.7011  -18.5989   21.1835 C.2     1  UNL1        0.2621
      3 O          -1.4437  -20.0738   21.2751 O.2     1  UNL1       -0.2713
      4 N          -0.5828  -17.6627   20.8328 N.am    1  UNL1       -0.1956
      5 O           0.7929  -18.2014   20.5737 O.3     1  UNL1       -0.2951
      6 H          -0.7517  -16.6946   20.7727 H       1  UNL1        0.1823
      7 H           0.7865  -19.1662   20.6735 H       1  UNL1        0.2414
      8 N          -3.2469  -16.7155   22.0853 N.pl3   1  UNL1       -0.3269
      9 H          -2.8795  -15.9122   21.6506 H       1  UNL1        0.1472
     10 C          -3.9770  -16.5947   23.3901 C.ar    1  UNL1        0.0444
     11 C          -5.2136  -15.7508   23.4824 C.ar    1  UNL1        0.0122
     12 C          -5.9435  -15.6301   24.7872 C.ar    1  UNL1        0.0065
     13 C          -7.1802  -14.7861   24.8795 C.3     1  UNL1        0.0334
     14 C          -5.4369  -16.3533   25.9997 C.ar    1  UNL1        0.1322
     15 F          -6.1669  -16.2325   27.3046 F       1  UNL1       -0.2048
     16 C          -4.2003  -17.1972   25.9075 C.ar    1  UNL1        0.0065
     17 C          -3.6937  -17.9205   27.1200 C.3     1  UNL1        0.0334
     18 C          -3.4703  -17.3180   24.6027 C.ar    1  UNL1        0.0122
     19 C          -4.2824  -18.8661   21.0593 C.3     1  UNL1        0.0290
     20 C          -5.1063  -19.5341   22.1199 C.3     1  UNL1        0.0036
     21 C          -6.5968  -19.3655   22.1289 C.3     1  UNL1        0.0172
     22 C          -7.3032  -18.8722   20.9010 C.3     1  UNL1        0.0688
     23 N          -8.6208  -18.1664   21.0263 N.3     1  UNL1       -0.2951
     24 H          -8.6185  -17.6972   21.9320 H       1  UNL1        0.1235
     25 C          -9.8998  -18.9459   20.9457 C.3     1  UNL1        0.0768
     26 C         -11.0173  -18.6545   21.9030 C.ar    1  UNL1       -0.0079
     27 C         -10.8648  -18.9877   23.3575 C.ar    1  UNL1       -0.0007
     28 C         -11.9823  -18.6963   24.3148 C.ar    1  UNL1        0.0294
     29 C         -13.2522  -18.0719   23.8175 C.ar    1  UNL1        0.1401
     30 F         -14.3697  -17.7806   24.7748 F       1  UNL1       -0.2042
     31 C         -13.4047  -17.7387   22.3629 C.ar    1  UNL1        0.0294
     32 C         -12.2872  -18.0301   21.4056 C.ar    1  UNL1       -0.0007
     33 C          -9.4942  -19.8205   18.5331 C.3     1  UNL1        0.0018
     34 C         -10.0614  -20.0167   19.9077 C.3     1  UNL1        0.0202
@<TRIPOS>BOND
     1    33    34    1
     2    34    25    1
     3    25    23    1
     4    23    22    1
     5    22    21    1
     6    21    20    1
     7    20    19    1
     8     1    19    1
     9     1     8    1
    10     8    10    1
    11    10    11   ar
    12    11    12   ar
    13    12    13    1
    14    12    14   ar
    15    14    15    1
    16    14    16   ar
    17    16    17    1
    18    16    18   ar
    19     1     2    1
    20     2     3    2
    21     2     4   am
    22     4     5    1
    23    25    26    1
    24    26    27   ar
    25    27    28   ar
    26    28    29   ar
    27    29    30    1
    28    29    31   ar
    29    31    32   ar
    30    18    10   ar
    31    32    26   ar
    32    23    24    1
    33     8     9    1
    34     4     6    1
    35     5     7    1
