@<TRIPOS>MOLECULE
*****
 32 35 0 0 0
SMALL
GASTEIGER

@<TRIPOS>ATOM
      1 C           7.2768   -5.8025   31.3603 C.3     1  UNL1        0.0217
      2 C           6.7850   -4.4808   30.8493 C.3     1  UNL1        0.0804
      3 C           6.3222   -3.4291   31.8135 C.3     1  UNL1        0.0520
      4 C           5.8303   -2.1074   31.3026 C.3     1  UNL1        0.1458
      5 O           5.8012   -1.8373   29.8274 O.3     1  UNL1       -0.3359
      6 C           6.2639   -2.8890   28.8632 C.3     1  UNL1        0.2175
      7 C           6.2348   -2.6190   27.3879 C.3     1  UNL1        0.1572
      8 N           6.6975   -3.6707   26.4237 N.ar    1  UNL1       -0.3156
      9 C           6.6684   -3.4007   24.9484 C.ar    1  UNL1        0.0840
     10 C           7.1311   -4.4524   23.9842 C.ar    1  UNL1        0.1125
     11 C           7.6230   -5.7742   24.4952 C.ar    1  UNL1        0.2364
     12 O           8.0858   -6.8259   23.5310 O.2     1  UNL1       -0.2831
     13 C           7.6522   -6.0442   25.9704 C.ar    1  UNL1        0.1936
     14 O           8.1441   -7.3659   26.4813 O.3     1  UNL1       -0.5017
     15 C           7.1894   -4.9925   26.9347 C.ar    1  UNL1        0.1517
     16 C           7.2186   -5.2625   28.4099 C.2     1  UNL1        0.2697
     17 O           7.7105   -6.5842   28.9208 O.2     1  UNL1       -0.2681
     18 N           6.7558   -4.2108   29.3742 N.am    1  UNL1       -0.2528
     19 H           8.4331   -8.0229   25.8790 H       1  UNL1        0.2924
     20 C           7.1020   -4.1824   22.5091 C.2     1  UNL1        0.2508
     21 O           8.3832   -4.1298   21.7308 O.2     1  UNL1       -0.2700
     22 N           5.7916   -3.9649   21.8121 N.am    1  UNL1       -0.2967
     23 H           4.9507   -3.9995   22.3229 H       1  UNL1        0.1501
     24 C           5.7625   -3.6949   20.3369 C.3     1  UNL1        0.1188
     25 C           4.8553   -2.6348   19.7864 C.ar    1  UNL1        0.0251
     26 C           3.7167   -2.1177   20.6147 C.ar    1  UNL1        0.0019
     27 C           2.8095   -1.0575   20.0640 C.ar    1  UNL1        0.0295
     28 C           3.0411   -0.5144   18.6852 C.ar    1  UNL1        0.1424
     29 F           2.1340    0.5458   18.1345 F       1  UNL1       -0.2041
     30 C           4.1798   -1.0314   17.8569 C.ar    1  UNL1        0.0590
     31 C           5.0869   -2.0916   18.4074 C.ar    1  UNL1        0.1400
     32 F           6.2256   -2.6086   17.5791 F       1  UNL1       -0.2044
@<TRIPOS>BOND
     1     2     1    1
     2     2     3    1
     3     3     4    1
     4     4     5    1
     5     5     6    1
     6     6     7    1
     7     7     8    1
     8     8     9   ar
     9     9    10   ar
    10    10    20    1
    11    20    21    2
    12    20    22   am
    13    22    24    1
    14    24    25    1
    15    25    26   ar
    16    26    27   ar
    17    27    28   ar
    18    28    29    1
    19    28    30   ar
    20    30    31   ar
    21    31    32    1
    22    10    11   ar
    23    11    12    2
    24    11    13   ar
    25    13    14    1
    26    13    15   ar
    27    15    16    1
    28    16    17    2
    29    16    18   am
    30    18     2    1
    31    18     6    1
    32    15     8   ar
    33    31    25   ar
    34    22    23    1
    35    14    19    1
@<TRIPOS>MOLECULE
*****
 32 35 0 0 0
SMALL
GASTEIGER

@<TRIPOS>ATOM
      1 C           8.2497   -6.9149   28.7505 C.3     1  UNL1        0.0217
      2 C           7.5799   -5.5853   28.9334 C.3     1  UNL1        0.0804
      3 C           7.3205   -5.0598   30.3142 C.3     1  UNL1        0.0520
      4 C           6.6506   -3.7302   30.4971 C.3     1  UNL1        0.1458
      5 O           6.2401   -2.9261   29.2993 O.3     1  UNL1       -0.3359
      6 C           6.4995   -3.4517   27.9185 C.3     1  UNL1        0.2175
      7 C           6.0889   -2.6476   26.7206 C.3     1  UNL1        0.1572
      8 N           6.3483   -3.1731   25.3398 N.ar    1  UNL1       -0.3156
      9 C           5.9377   -2.3690   24.1419 C.ar    1  UNL1        0.0840
     10 C           6.1971   -2.8945   22.7611 C.ar    1  UNL1        0.1125
     11 C           6.8670   -4.2241   22.5782 C.ar    1  UNL1        0.2364
     12 O           7.1263   -4.7496   21.1975 O.2     1  UNL1       -0.2831
     13 C           7.2775   -5.0282   23.7760 C.ar    1  UNL1        0.1936
     14 O           7.9474   -6.3578   23.5931 O.3     1  UNL1       -0.5017
     15 C           7.0181   -4.5027   25.1569 C.ar    1  UNL1        0.1517
     16 C           7.4287   -5.3068   26.3547 C.2     1  UNL1        0.2697
     17 O           8.0985   -6.6364   26.1718 O.2     1  UNL1       -0.2681
     18 N           7.1693   -4.7813   27.7356 N.am    1  UNL1       -0.2528
     19 H           8.1094   -6.6861   22.7306 H       1  UNL1        0.2924
     20 C           5.7866   -2.0904   21.5633 C.2     1  UNL1        0.2508
     21 O           6.2657   -0.6775   21.4084 O.2     1  UNL1       -0.2700
     22 N           4.8969   -2.6993   20.5202 N.am    1  UNL1       -0.2967
     23 H           4.5824   -3.6267   20.6219 H       1  UNL1        0.1501
     24 C           4.4864   -1.8952   19.3224 C.3     1  UNL1        0.1188
     25 C           3.2861   -0.9987   19.3965 C.ar    1  UNL1        0.0251
     26 C           2.3768   -1.0597   20.5879 C.ar    1  UNL1        0.0019
     27 C           1.1765   -0.1630   20.6619 C.ar    1  UNL1        0.0295
     28 C           0.8856    0.7946   19.5446 C.ar    1  UNL1        0.1424
     29 F          -0.3146    1.6913   19.6187 F       1  UNL1       -0.2041
     30 C           1.7950    0.8556   18.3533 C.ar    1  UNL1        0.0590
     31 C           2.9952   -0.0410   18.2792 C.ar    1  UNL1        0.1400
     32 F           3.9046    0.0200   17.0878 F       1  UNL1       -0.2044
@<TRIPOS>BOND
     1     2     1    1
     2     2     3    1
     3     3     4    1
     4     4     5    1
     5     5     6    1
     6     6     7    1
     7     7     8    1
     8     8     9   ar
     9     9    10   ar
    10    10    20    1
    11    20    21    2
    12    20    22   am
    13    22    24    1
    14    24    25    1
    15    25    26   ar
    16    26    27   ar
    17    27    28   ar
    18    28    29    1
    19    28    30   ar
    20    30    31   ar
    21    31    32    1
    22    10    11   ar
    23    11    12    2
    24    11    13   ar
    25    13    14    1
    26    13    15   ar
    27    15    16    1
    28    16    17    2
    29    16    18   am
    30    18     2    1
    31    18     6    1
    32    15     8   ar
    33    31    25   ar
    34    22    23    1
    35    14    19    1
@<TRIPOS>MOLECULE
*****
 32 35 0 0 0
SMALL
GASTEIGER

@<TRIPOS>ATOM
      1 C           1.3622    0.6172   19.3362 C.3     1  UNL1        0.0217
      2 C           2.6408   -0.0861   18.9891 C.3     1  UNL1        0.0804
      3 C           3.0646   -0.2075   17.5554 C.3     1  UNL1        0.0520
      4 C           4.3433   -0.9108   17.2083 C.3     1  UNL1        0.1458
      5 O           5.1981   -1.4926   18.2949 O.3     1  UNL1       -0.3359
      6 C           4.7743   -1.3711   19.7286 C.3     1  UNL1        0.2175
      7 C           5.6291   -1.9529   20.8153 C.3     1  UNL1        0.1572
      8 N           5.2053   -1.8315   22.2490 N.ar    1  UNL1       -0.3156
      9 C           6.0601   -2.4133   23.3357 C.ar    1  UNL1        0.0840
     10 C           5.6363   -2.2918   24.7694 C.ar    1  UNL1        0.1125
     11 C           4.3577   -1.5885   25.1165 C.ar    1  UNL1        0.2364
     12 O           3.9338   -1.4671   26.5502 O.2     1  UNL1       -0.2831
     13 C           3.5028   -1.0067   24.0299 C.ar    1  UNL1        0.1936
     14 O           2.2242   -0.3035   24.3770 O.3     1  UNL1       -0.5017
     15 C           3.9267   -1.1282   22.5961 C.ar    1  UNL1        0.1517
     16 C           3.0718   -0.5464   21.5095 C.2     1  UNL1        0.2697
     17 O           1.7932    0.1569   21.8566 O.2     1  UNL1       -0.2681
     18 N           3.4956   -0.6679   20.0757 N.am    1  UNL1       -0.2528
     19 H           1.9595   -0.2276   25.2726 H       1  UNL1        0.2924
     20 C           6.4911   -2.8736   25.8560 C.2     1  UNL1        0.2508
     21 O           7.9674   -2.6083   25.8720 O.2     1  UNL1       -0.2700
     22 N           5.8697   -3.7207   26.9267 N.am    1  UNL1       -0.2967
     23 H           4.9008   -3.8948   26.9162 H       1  UNL1        0.1501
     24 C           6.7245   -4.3025   28.0133 C.3     1  UNL1        0.1188
     25 C           7.2996   -5.6792   27.8590 C.ar    1  UNL1        0.0251
     26 C           6.9388   -6.5133   26.6656 C.ar    1  UNL1        0.0019
     27 C           7.5139   -7.8901   26.5114 C.ar    1  UNL1        0.0295
     28 C           8.4497   -8.4328   27.5505 C.ar    1  UNL1        0.1424
     29 F           9.0248   -9.8096   27.3962 F       1  UNL1       -0.2041
     30 C           8.8105   -7.5987   28.7439 C.ar    1  UNL1        0.0590
     31 C           8.2354   -6.2219   28.8981 C.ar    1  UNL1        0.1400
     32 F           8.5962   -5.3879   30.0915 F       1  UNL1       -0.2044
@<TRIPOS>BOND
     1     2     1    1
     2     2     3    1
     3     3     4    1
     4     4     5    1
     5     5     6    1
     6     6     7    1
     7     7     8    1
     8     8     9   ar
     9     9    10   ar
    10    10    20    1
    11    20    21    2
    12    20    22   am
    13    22    24    1
    14    24    25    1
    15    25    26   ar
    16    26    27   ar
    17    27    28   ar
    18    28    29    1
    19    28    30   ar
    20    30    31   ar
    21    31    32    1
    22    10    11   ar
    23    11    12    2
    24    11    13   ar
    25    13    14    1
    26    13    15   ar
    27    15    16    1
    28    16    17    2
    29    16    18   am
    30    18     2    1
    31    18     6    1
    32    15     8   ar
    33    31    25   ar
    34    22    23    1
    35    14    19    1
@<TRIPOS>MOLECULE
*****
 32 35 0 0 0
SMALL
GASTEIGER

@<TRIPOS>ATOM
      1 C           7.6515   -3.8441   31.5210 C.3     1  UNL1        0.0217
      2 C           8.1940   -4.9590   30.6769 C.3     1  UNL1        0.0804
      3 C           8.9889   -6.0615   31.3113 C.3     1  UNL1        0.0520
      4 C           9.5315   -7.1765   30.4672 C.3     1  UNL1        0.1458
      5 O           9.2792   -7.1888   28.9886 O.3     1  UNL1       -0.3359
      6 C           8.4843   -6.0863   28.3542 C.3     1  UNL1        0.2175
      7 C           8.2320   -6.0987   26.8756 C.3     1  UNL1        0.1572
      8 N           7.4371   -4.9961   26.2412 N.ar    1  UNL1       -0.3156
      9 C           7.1847   -5.0085   24.7626 C.ar    1  UNL1        0.0840
     10 C           6.3898   -3.9060   24.1282 C.ar    1  UNL1        0.1125
     11 C           5.8472   -2.7910   24.9723 C.ar    1  UNL1        0.2364
     12 O           5.0523   -1.6885   24.3379 O.2     1  UNL1       -0.2831
     13 C           6.0995   -2.7787   26.4508 C.ar    1  UNL1        0.1936
     14 O           5.5569   -1.6637   27.2950 O.3     1  UNL1       -0.5017
     15 C           6.8945   -3.8812   27.0853 C.ar    1  UNL1        0.1517
     16 C           7.1468   -3.8688   28.5639 C.2     1  UNL1        0.2697
     17 O           6.6042   -2.7539   29.4080 O.2     1  UNL1       -0.2681
     18 N           7.9417   -4.9714   29.1984 N.am    1  UNL1       -0.2528
     19 H           5.0604   -0.9750   26.8987 H       1  UNL1        0.2924
     20 C           6.1375   -3.9183   22.6496 C.2     1  UNL1        0.2508
     21 O           7.2873   -4.0360   21.6935 O.2     1  UNL1       -0.2700
     22 N           4.7353   -3.8131   22.1271 N.am    1  UNL1       -0.2967
     23 H           3.9807   -3.7359   22.7546 H       1  UNL1        0.1501
     24 C           4.4830   -3.8255   20.6486 C.3     1  UNL1        0.1188
     25 C           3.9600   -2.5961   19.9667 C.ar    1  UNL1        0.0251
     26 C           2.9935   -1.6970   20.6791 C.ar    1  UNL1        0.0019
     27 C           2.4705   -0.4676   19.9972 C.ar    1  UNL1        0.0295
     28 C           2.9140   -0.1372   18.6029 C.ar    1  UNL1        0.1424
     29 F           2.3910    1.0923   17.9209 F       1  UNL1       -0.2041
     30 C           3.8806   -1.0362   17.8905 C.ar    1  UNL1        0.0590
     31 C           4.4035   -2.2656   18.5724 C.ar    1  UNL1        0.1400
     32 F           5.3701   -3.1647   17.8599 F       1  UNL1       -0.2044
@<TRIPOS>BOND
     1     2     1    1
     2     2     3    1
     3     3     4    1
     4     4     5    1
     5     5     6    1
     6     6     7    1
     7     7     8    1
     8     8     9   ar
     9     9    10   ar
    10    10    20    1
    11    20    21    2
    12    20    22   am
    13    22    24    1
    14    24    25    1
    15    25    26   ar
    16    26    27   ar
    17    27    28   ar
    18    28    29    1
    19    28    30   ar
    20    30    31   ar
    21    31    32    1
    22    10    11   ar
    23    11    12    2
    24    11    13   ar
    25    13    14    1
    26    13    15   ar
    27    15    16    1
    28    16    17    2
    29    16    18   am
    30    18     2    1
    31    18     6    1
    32    15     8   ar
    33    31    25   ar
    34    22    23    1
    35    14    19    1
@<TRIPOS>MOLECULE
*****
 32 35 0 0 0
SMALL
GASTEIGER

@<TRIPOS>ATOM
      1 C           6.1492   -2.0094   31.5208 C.3     1  UNL1        0.0217
      2 C           6.5052   -3.3906   31.0567 C.3     1  UNL1        0.0804
      3 C           6.8417   -4.4550   32.0586 C.3     1  UNL1        0.0520
      4 C           7.1978   -5.8362   31.5945 C.3     1  UNL1        0.1458
      5 O           7.2173   -6.1531   30.1285 O.3     1  UNL1       -0.3359
      6 C           6.8808   -5.0887   29.1266 C.3     1  UNL1        0.2175
      7 C           6.9004   -5.4055   27.6605 C.3     1  UNL1        0.1572
      8 N           6.5639   -4.3412   26.6586 N.ar    1  UNL1       -0.3156
      9 C           6.5834   -4.6580   25.1926 C.ar    1  UNL1        0.0840
     10 C           6.2470   -3.5936   24.1907 C.ar    1  UNL1        0.1125
     11 C           5.8909   -2.2124   24.6548 C.ar    1  UNL1        0.2364
     12 O           5.5544   -1.1480   23.6529 O.2     1  UNL1       -0.2831
     13 C           5.8713   -1.8955   26.1208 C.ar    1  UNL1        0.1936
     14 O           5.5153   -0.5143   26.5849 O.3     1  UNL1       -0.5017
     15 C           6.2078   -2.9599   27.1228 C.ar    1  UNL1        0.1517
     16 C           6.1883   -2.6431   28.5887 C.2     1  UNL1        0.2697
     17 O           5.8322   -1.2618   29.0529 O.2     1  UNL1       -0.2681
     18 N           6.5248   -3.7075   29.5907 N.am    1  UNL1       -0.2528
     19 H           5.3051    0.1506   25.9590 H       1  UNL1        0.2924
     20 C           6.2665   -3.9105   22.7247 C.2     1  UNL1        0.2508
     21 O           7.4664   -4.5744   22.1168 O.2     1  UNL1       -0.2700
     22 N           5.0862   -3.5634   21.8665 N.am    1  UNL1       -0.2967
     23 H           4.2987   -3.1276   22.2655 H       1  UNL1        0.1501
     24 C           5.1057   -3.8802   20.4005 C.3     1  UNL1        0.1188
     25 C           5.2201   -2.7728   19.3954 C.ar    1  UNL1        0.0251
     26 C           6.5538   -2.4394   18.7953 C.ar    1  UNL1        0.0019
     27 C           6.6682   -1.3318   17.7900 C.ar    1  UNL1        0.0295
     28 C           5.4489   -0.5578   17.3850 C.ar    1  UNL1        0.1424
     29 F           5.5632    0.5497   16.3797 F       1  UNL1       -0.2041
     30 C           4.1152   -0.8912   17.9851 C.ar    1  UNL1        0.0590
     31 C           4.0008   -1.9987   18.9902 C.ar    1  UNL1        0.1400
     32 F           2.6671   -2.3321   19.5903 F       1  UNL1       -0.2044
@<TRIPOS>BOND
     1     2     1    1
     2     2     3    1
     3     3     4    1
     4     4     5    1
     5     5     6    1
     6     6     7    1
     7     7     8    1
     8     8     9   ar
     9     9    10   ar
    10    10    20    1
    11    20    21    2
    12    20    22   am
    13    22    24    1
    14    24    25    1
    15    25    26   ar
    16    26    27   ar
    17    27    28   ar
    18    28    29    1
    19    28    30   ar
    20    30    31   ar
    21    31    32    1
    22    10    11   ar
    23    11    12    2
    24    11    13   ar
    25    13    14    1
    26    13    15   ar
    27    15    16    1
    28    16    17    2
    29    16    18   am
    30    18     2    1
    31    18     6    1
    32    15     8   ar
    33    31    25   ar
    34    22    23    1
    35    14    19    1
@<TRIPOS>MOLECULE
*****
 32 35 0 0 0
SMALL
GASTEIGER

@<TRIPOS>ATOM
      1 C          -5.7782    4.7167   23.2483 C.3     1  UNL1        0.0217
      2 C          -4.7489    4.3298   24.2685 C.3     1  UNL1        0.0804
      3 C          -5.0726    4.4164   25.7305 C.3     1  UNL1        0.0520
      4 C          -4.0433    4.0295   26.7507 C.3     1  UNL1        0.1458
      5 O          -2.6903    3.5560   26.3089 O.3     1  UNL1       -0.3359
      6 C          -2.3666    3.4695   24.8468 C.3     1  UNL1        0.2175
      7 C          -1.0136    2.9961   24.4049 C.3     1  UNL1        0.1572
      8 N          -0.6899    2.9095   22.9428 N.ar    1  UNL1       -0.3156
      9 C           0.6631    2.4361   22.5009 C.ar    1  UNL1        0.0840
     10 C           0.9867    2.3496   21.0388 C.ar    1  UNL1        0.1125
     11 C          -0.0426    2.7364   20.0186 C.ar    1  UNL1        0.2364
     12 O           0.2811    2.6499   18.5565 O.2     1  UNL1       -0.2831
     13 C          -1.3955    3.2099   20.4604 C.ar    1  UNL1        0.1936
     14 O          -2.4249    3.5968   19.4402 O.3     1  UNL1       -0.5017
     15 C          -1.7193    3.2964   21.9226 C.ar    1  UNL1        0.1517
     16 C          -3.0722    3.7698   22.3645 C.2     1  UNL1        0.2697
     17 O          -4.1015    4.1567   21.3442 O.2     1  UNL1       -0.2681
     18 N          -3.3960    3.8564   23.8266 N.am    1  UNL1       -0.2528
     19 H          -2.2227    3.5427   18.5269 H       1  UNL1        0.2924
     20 C           2.3397    1.8761   20.5969 C.2     1  UNL1        0.2508
     21 O           3.5769    2.4752   21.1973 O.2     1  UNL1       -0.2700
     22 N           2.4555    0.8036   19.5546 N.am    1  UNL1       -0.2967
     23 H           1.6435    0.4104   19.1606 H       1  UNL1        0.1501
     24 C           3.8085    0.3302   19.1128 C.3     1  UNL1        0.1188
     25 C           4.0881   -1.1390   18.9972 C.ar    1  UNL1        0.0251
     26 C           3.1621   -2.1312   19.6359 C.ar    1  UNL1        0.0019
     27 C           3.4418   -3.6004   19.5203 C.ar    1  UNL1        0.0295
     28 C           4.6474   -4.0773   18.7660 C.ar    1  UNL1        0.1424
     29 F           4.9271   -5.5465   18.6504 F       1  UNL1       -0.2041
     30 C           5.5734   -3.0851   18.1273 C.ar    1  UNL1        0.0590
     31 C           5.2938   -1.6159   18.2429 C.ar    1  UNL1        0.1400
     32 F           6.2198   -0.6237   17.6042 F       1  UNL1       -0.2044
@<TRIPOS>BOND
     1     2     1    1
     2     2     3    1
     3     3     4    1
     4     4     5    1
     5     5     6    1
     6     6     7    1
     7     7     8    1
     8     8     9   ar
     9     9    10   ar
    10    10    20    1
    11    20    21    2
    12    20    22   am
    13    22    24    1
    14    24    25    1
    15    25    26   ar
    16    26    27   ar
    17    27    28   ar
    18    28    29    1
    19    28    30   ar
    20    30    31   ar
    21    31    32    1
    22    10    11   ar
    23    11    12    2
    24    11    13   ar
    25    13    14    1
    26    13    15   ar
    27    15    16    1
    28    16    17    2
    29    16    18   am
    30    18     2    1
    31    18     6    1
    32    15     8   ar
    33    31    25   ar
    34    22    23    1
    35    14    19    1
@<TRIPOS>MOLECULE
*****
 32 35 0 0 0
SMALL
GASTEIGER

@<TRIPOS>ATOM
      1 C          -5.0946    4.8871   26.2012 C.3     1  UNL1        0.0217
      2 C          -5.6318    4.6814   24.8159 C.3     1  UNL1        0.0804
      3 C          -7.0816    4.9368   24.5280 C.3     1  UNL1        0.0520
      4 C          -7.6188    4.7311   23.1427 C.3     1  UNL1        0.1458
      5 O          -6.7063    4.2699   22.0452 O.3     1  UNL1       -0.3359
      6 C          -5.2565    4.0145   22.3330 C.3     1  UNL1        0.2175
      7 C          -4.3439    3.5533   21.2355 C.3     1  UNL1        0.1572
      8 N          -2.8941    3.2979   21.5233 N.ar    1  UNL1       -0.3156
      9 C          -1.9815    2.8367   20.4258 C.ar    1  UNL1        0.0840
     10 C          -0.5317    2.5813   20.7136 C.ar    1  UNL1        0.1125
     11 C           0.0055    2.7870   22.0989 C.ar    1  UNL1        0.2364
     12 O           1.4553    2.5316   22.3867 O.2     1  UNL1       -0.2831
     13 C          -0.9070    3.2481   23.1964 C.ar    1  UNL1        0.1936
     14 O          -0.3698    3.4539   24.5817 O.3     1  UNL1       -0.5017
     15 C          -2.3569    3.5036   22.9086 C.ar    1  UNL1        0.1517
     16 C          -3.2694    3.9647   24.0061 C.2     1  UNL1        0.2697
     17 O          -2.7322    4.1705   25.3914 O.2     1  UNL1       -0.2681
     18 N          -4.7193    4.2202   23.7183 N.am    1  UNL1       -0.2528
     19 H           0.5358    3.2943   24.7615 H       1  UNL1        0.2924
     20 C           0.3808    2.1201   19.6161 C.2     1  UNL1        0.2508
     21 O           0.5369    2.9461   18.3737 O.2     1  UNL1       -0.2700
     22 N           1.1374    0.8330   19.7609 N.am    1  UNL1       -0.2967
     23 H           1.0350    0.2908   20.5763 H       1  UNL1        0.1501
     24 C           2.0499    0.3718   18.6634 C.3     1  UNL1        0.1188
     25 C           2.9879   -0.7745   18.9000 C.ar    1  UNL1        0.0251
     26 C           3.0048   -1.4676   20.2302 C.ar    1  UNL1        0.0019
     27 C           3.9428   -2.6140   20.4668 C.ar    1  UNL1        0.0295
     28 C           4.8639   -3.0673   19.3732 C.ar    1  UNL1        0.1424
     29 F           5.8019   -4.2137   19.6097 F       1  UNL1       -0.2041
     30 C           4.8470   -2.3743   18.0430 C.ar    1  UNL1        0.0590
     31 C           3.9091   -1.2280   17.8064 C.ar    1  UNL1        0.1400
     32 F           3.8922   -0.5349   16.4762 F       1  UNL1       -0.2044
@<TRIPOS>BOND
     1     2     1    1
     2     2     3    1
     3     3     4    1
     4     4     5    1
     5     5     6    1
     6     6     7    1
     7     7     8    1
     8     8     9   ar
     9     9    10   ar
    10    10    20    1
    11    20    21    2
    12    20    22   am
    13    22    24    1
    14    24    25    1
    15    25    26   ar
    16    26    27   ar
    17    27    28   ar
    18    28    29    1
    19    28    30   ar
    20    30    31   ar
    21    31    32    1
    22    10    11   ar
    23    11    12    2
    24    11    13   ar
    25    13    14    1
    26    13    15   ar
    27    15    16    1
    28    16    17    2
    29    16    18   am
    30    18     2    1
    31    18     6    1
    32    15     8   ar
    33    31    25   ar
    34    22    23    1
    35    14    19    1
@<TRIPOS>MOLECULE
*****
 32 35 0 0 0
SMALL
GASTEIGER

@<TRIPOS>ATOM
      1 C          -8.8676   -4.3630   16.7241 C.3     1  UNL1        0.0217
      2 C          -9.9770   -4.9245   17.5632 C.3     1  UNL1        0.0804
      3 C          -9.9520   -6.3676   17.9713 C.3     1  UNL1        0.0520
      4 C         -11.0614   -6.9291   18.8104 C.3     1  UNL1        0.1458
      5 O         -12.1958   -6.0474   19.2413 O.3     1  UNL1       -0.3359
      6 C         -12.2207   -4.6042   18.8331 C.3     1  UNL1        0.2175
      7 C         -13.3552   -3.7224   19.2640 C.3     1  UNL1        0.1572
      8 N         -13.3801   -2.2793   18.8559 N.ar    1  UNL1       -0.3156
      9 C         -14.5146   -1.3975   19.2868 C.ar    1  UNL1        0.0840
     10 C         -14.5395    0.0457   18.8786 C.ar    1  UNL1        0.1125
     11 C         -13.4301    0.6071   18.0396 C.ar    1  UNL1        0.2364
     12 O         -13.4551    2.0503   17.6314 O.2     1  UNL1       -0.2831
     13 C         -12.2957   -0.2746   17.6087 C.ar    1  UNL1        0.1936
     14 O         -11.1863    0.2869   16.7696 O.3     1  UNL1       -0.5017
     15 C         -12.2707   -1.7178   18.0168 C.ar    1  UNL1        0.1517
     16 C         -11.1363   -2.5995   17.5859 C.2     1  UNL1        0.2697
     17 O         -10.0269   -2.0381   16.7469 O.2     1  UNL1       -0.2681
     18 N         -11.1113   -4.0428   17.9941 N.am    1  UNL1       -0.2528
     19 H         -11.2019    1.1884   16.5147 H       1  UNL1        0.2924
     20 C         -15.6739    0.9274   19.3095 C.2     1  UNL1        0.2508
     21 O         -17.0544    0.3580   19.4513 O.2     1  UNL1       -0.2700
     22 N         -15.4278    2.3786   19.5987 N.am    1  UNL1       -0.2967
     23 H         -14.5218    2.7524   19.5056 H       1  UNL1        0.1501
     24 C         -16.5622    3.2603   20.0296 C.3     1  UNL1        0.1188
     25 C         -16.5692    3.8540   21.4071 C.ar    1  UNL1        0.0251
     26 C         -16.2305    5.3022   21.6013 C.ar    1  UNL1        0.0019
     27 C         -16.2375    5.8959   22.9789 C.ar    1  UNL1        0.0295
     28 C         -16.5832    5.0412   24.1621 C.ar    1  UNL1        0.1424
     29 F         -16.5902    5.6348   25.5397 F       1  UNL1       -0.2041
     30 C         -16.9219    3.5929   23.9678 C.ar    1  UNL1        0.0590
     31 C         -16.9149    2.9993   22.5903 C.ar    1  UNL1        0.1400
     32 F         -17.2536    1.5510   22.3961 F       1  UNL1       -0.2044
@<TRIPOS>BOND
     1     2     1    1
     2     2     3    1
     3     3     4    1
     4     4     5    1
     5     5     6    1
     6     6     7    1
     7     7     8    1
     8     8     9   ar
     9     9    10   ar
    10    10    20    1
    11    20    21    2
    12    20    22   am
    13    22    24    1
    14    24    25    1
    15    25    26   ar
    16    26    27   ar
    17    27    28   ar
    18    28    29    1
    19    28    30   ar
    20    30    31   ar
    21    31    32    1
    22    10    11   ar
    23    11    12    2
    24    11    13   ar
    25    13    14    1
    26    13    15   ar
    27    15    16    1
    28    16    17    2
    29    16    18   am
    30    18     2    1
    31    18     6    1
    32    15     8   ar
    33    31    25   ar
    34    22    23    1
    35    14    19    1
@<TRIPOS>MOLECULE
*****
 32 35 0 0 0
SMALL
GASTEIGER

@<TRIPOS>ATOM
      1 C           5.7138   -3.8251   22.1285 C.3     1  UNL1        0.0217
      2 C           5.0085   -3.0851   21.0308 C.3     1  UNL1        0.0804
      3 C           5.2666   -3.4447   19.5976 C.3     1  UNL1        0.0520
      4 C           4.5613   -2.7047   18.4999 C.3     1  UNL1        0.1458
      5 O           3.5979   -1.6051   18.8354 O.3     1  UNL1       -0.3359
      6 C           3.3398   -1.2454   20.2685 C.3     1  UNL1        0.2175
      7 C           2.3764   -0.1457   20.6041 C.3     1  UNL1        0.1572
      8 N           2.1183    0.2140   22.0372 N.ar    1  UNL1       -0.3156
      9 C           1.1549    1.3137   22.3728 C.ar    1  UNL1        0.0840
     10 C           0.8968    1.6734   23.8059 C.ar    1  UNL1        0.1125
     11 C           1.6021    0.9333   24.9036 C.ar    1  UNL1        0.2364
     12 O           1.3441    1.2930   26.3368 O.2     1  UNL1       -0.2831
     13 C           2.5655   -0.1663   24.5682 C.ar    1  UNL1        0.1936
     14 O           3.2708   -0.9063   25.6658 O.3     1  UNL1       -0.5017
     15 C           2.8236   -0.5260   23.1349 C.ar    1  UNL1        0.1517
     16 C           3.7870   -1.6257   22.7995 C.2     1  UNL1        0.2697
     17 O           4.4923   -2.3657   23.8972 O.2     1  UNL1       -0.2681
     18 N           4.0451   -1.9854   21.3662 N.am    1  UNL1       -0.2528
     19 H           3.1096   -0.6817   26.5611 H       1  UNL1        0.2924
     20 C          -0.0665    2.7730   24.1414 C.2     1  UNL1        0.2508
     21 O           0.0327    4.0964   23.4421 O.2     1  UNL1       -0.2700
     22 N          -1.1293    2.5494   25.1762 N.am    1  UNL1       -0.2967
     23 H          -1.1944    1.6809   25.6351 H       1  UNL1        0.1501
     24 C          -2.0926    3.6491   25.5116 C.3     1  UNL1        0.1188
     25 C          -3.4028    3.7451   24.7876 C.ar    1  UNL1        0.0251
     26 C          -3.4447    3.6222   23.2933 C.ar    1  UNL1        0.0019
     27 C          -4.7549    3.7183   22.5693 C.ar    1  UNL1        0.0295
     28 C          -6.0232    3.9372   23.3396 C.ar    1  UNL1        0.1424
     29 F          -7.3334    4.0333   22.6156 F       1  UNL1       -0.2041
     30 C          -5.9813    4.0601   24.8340 C.ar    1  UNL1        0.0590
     31 C          -4.6712    3.9641   25.5580 C.ar    1  UNL1        0.1400
     32 F          -4.6293    4.0870   27.0524 F       1  UNL1       -0.2044
@<TRIPOS>BOND
     1     2     1    1
     2     2     3    1
     3     3     4    1
     4     4     5    1
     5     5     6    1
     6     6     7    1
     7     7     8    1
     8     8     9   ar
     9     9    10   ar
    10    10    20    1
    11    20    21    2
    12    20    22   am
    13    22    24    1
    14    24    25    1
    15    25    26   ar
    16    26    27   ar
    17    27    28   ar
    18    28    29    1
    19    28    30   ar
    20    30    31   ar
    21    31    32    1
    22    10    11   ar
    23    11    12    2
    24    11    13   ar
    25    13    14    1
    26    13    15   ar
    27    15    16    1
    28    16    17    2
    29    16    18   am
    30    18     2    1
    31    18     6    1
    32    15     8   ar
    33    31    25   ar
    34    22    23    1
    35    14    19    1
