@<TRIPOS>MOLECULE
*****
 18 19 0 0 0
SMALL
GASTEIGER

@<TRIPOS>ATOM
      1 C          -9.3251  -16.3339   24.3888 C.2     1  UNL1        0.0063
      2 C          -9.8900  -17.7151   24.5412 C.2     1  UNL1        0.0421
      3 C          -6.7497  -16.0294   24.2326 C.ar    1  UNL1        0.1386
      4 C          -5.4416  -15.6787   24.8775 C.ar    1  UNL1        0.0369
      5 C          -5.4009  -15.2818   26.3235 C.ar    1  UNL1        0.0031
      6 C          -6.6682  -15.2356   27.1246 C.ar    1  UNL1        0.0002
      7 C          -7.9763  -15.5863   26.4796 C.ar    1  UNL1        0.0030
      8 C          -8.0170  -15.9832   25.0337 C.ar    1  UNL1        0.0341
      9 C          -6.8065  -17.8774   22.4074 C.3     1  UNL1        0.2525
     10 O          -6.7904  -16.4263   22.7867 O.3     1  UNL1       -0.4714
     11 C         -11.1981  -18.0658   23.8964 C.2     1  UNL1        0.1957
     12 O         -12.2733  -18.7374   24.6982 O.2     1  UNL1       -0.2866
     13 C         -11.4310  -17.7450   22.4497 C.ar    1  UNL1        0.0420
     14 C         -10.8462  -18.6229   21.3832 C.ar    1  UNL1        0.0239
     15 C         -11.0791  -18.3020   19.9366 C.ar    1  UNL1        0.0990
     16 N         -11.8967  -17.1033   19.5564 N.ar    1  UNL1       -0.2423
     17 C         -12.4815  -16.2254   20.6229 C.ar    1  UNL1        0.0990
     18 C         -12.2486  -16.5462   22.0695 C.ar    1  UNL1        0.0239
@<TRIPOS>BOND
     1     9    10    1
     2    10     3    1
     3     3     4   ar
     4     4     5   ar
     5     5     6   ar
     6     6     7   ar
     7     7     8   ar
     8     8     1    1
     9     1     2    2
    10     2    11    1
    11    11    12    2
    12    11    13    1
    13    13    14   ar
    14    14    15   ar
    15    15    16   ar
    16    16    17   ar
    17    17    18   ar
    18     8     3   ar
    19    18    13   ar
@<TRIPOS>MOLECULE
*****
 18 19 0 0 0
SMALL
GASTEIGER

@<TRIPOS>ATOM
      1 C          -8.1287  -19.2877   21.5314 C.2     1  UNL1        0.0063
      2 C          -6.9357  -20.0684   21.9976 C.2     1  UNL1        0.0421
      3 C         -10.2056  -17.8905   22.2272 C.ar    1  UNL1        0.1386
      4 C         -11.3542  -17.6473   23.1607 C.ar    1  UNL1        0.0369
      5 C         -11.5745  -18.5581   24.3320 C.ar    1  UNL1        0.0031
      6 C         -10.6463  -19.7121   24.5698 C.ar    1  UNL1        0.0002
      7 C          -9.4977  -19.9553   23.6362 C.ar    1  UNL1        0.0030
      8 C          -9.2773  -19.0445   22.4649 C.ar    1  UNL1        0.0341
      9 C         -11.1184  -16.1520   20.5259 C.3     1  UNL1        0.2525
     10 O          -9.9853  -16.9797   21.0559 O.3     1  UNL1       -0.4714
     11 C          -5.7871  -20.3117   21.0641 C.2     1  UNL1        0.1957
     12 O          -5.8397  -21.4524   20.0914 O.2     1  UNL1       -0.2866
     13 C          -4.5857  -19.4143   21.1033 C.ar    1  UNL1        0.0420
     14 C          -4.1005  -18.8675   22.4131 C.ar    1  UNL1        0.0239
     15 C          -2.8991  -17.9702   22.4523 C.ar    1  UNL1        0.0990
     16 N          -2.1831  -17.6196   21.1817 N.ar    1  UNL1       -0.2423
     17 C          -2.6683  -18.1664   19.8719 C.ar    1  UNL1        0.0990
     18 C          -3.8696  -19.0638   19.8327 C.ar    1  UNL1        0.0239
@<TRIPOS>BOND
     1     9    10    1
     2    10     3    1
     3     3     4   ar
     4     4     5   ar
     5     5     6   ar
     6     6     7   ar
     7     7     8   ar
     8     8     1    1
     9     1     2    2
    10     2    11    1
    11    11    12    2
    12    11    13    1
    13    13    14   ar
    14    14    15   ar
    15    15    16   ar
    16    16    17   ar
    17    17    18   ar
    18     8     3   ar
    19    18    13   ar
@<TRIPOS>MOLECULE
*****
 18 19 0 0 0
SMALL
GASTEIGER

@<TRIPOS>ATOM
      1 C          -7.4392  -19.1232   22.4170 C.2     1  UNL1        0.0063
      2 C          -8.3886  -20.1767   22.9057 C.2     1  UNL1        0.0421
      3 C          -4.9158  -18.7645   21.9130 C.ar    1  UNL1        0.1386
      4 C          -3.6684  -19.1608   21.1804 C.ar    1  UNL1        0.0369
      5 C          -3.6967  -20.3119   20.2192 C.ar    1  UNL1        0.0031
      6 C          -4.9725  -21.0668   19.9905 C.ar    1  UNL1        0.0002
      7 C          -6.2200  -20.6706   20.7231 C.ar    1  UNL1        0.0030
      8 C          -6.1917  -19.5194   21.6844 C.ar    1  UNL1        0.0341
      9 C          -3.8028  -17.5247   23.9065 C.3     1  UNL1        0.2525
     10 O          -4.8875  -17.6134   22.8743 O.3     1  UNL1       -0.4714
     11 C          -9.6361  -19.7805   23.6383 C.2     1  UNL1        0.1957
     12 O          -9.7748  -20.0825   25.1010 O.2     1  UNL1       -0.2866
     13 C         -10.7449  -19.0824   22.9081 C.ar    1  UNL1        0.0420
     14 C         -10.7363  -19.0247   21.4093 C.ar    1  UNL1        0.0239
     15 C         -11.8451  -18.3265   20.6792 C.ar    1  UNL1        0.0990
     16 N         -12.9626  -17.6860   21.4479 N.ar    1  UNL1       -0.2423
     17 C         -12.9713  -17.7437   22.9468 C.ar    1  UNL1        0.0990
     18 C         -11.8625  -18.4419   23.6769 C.ar    1  UNL1        0.0239
@<TRIPOS>BOND
     1     9    10    1
     2    10     3    1
     3     3     4   ar
     4     4     5   ar
     5     5     6   ar
     6     6     7   ar
     7     7     8   ar
     8     8     1    1
     9     1     2    2
    10     2    11    1
    11    11    12    2
    12    11    13    1
    13    13    14   ar
    14    14    15   ar
    15    15    16   ar
    16    16    17   ar
    17    17    18   ar
    18     8     3   ar
    19    18    13   ar
@<TRIPOS>MOLECULE
*****
 18 19 0 0 0
SMALL
GASTEIGER

@<TRIPOS>ATOM
      1 C          -6.8518  -18.9074   21.5423 C.2     1  UNL1        0.0063
      2 C          -5.5267  -19.4637   21.9717 C.2     1  UNL1        0.0421
      3 C          -8.1953  -17.3518   23.1315 C.ar    1  UNL1        0.1386
      4 C          -9.2887  -17.1563   24.1395 C.ar    1  UNL1        0.0369
      5 C         -10.1322  -18.3209   24.5665 C.ar    1  UNL1        0.0031
      6 C          -9.8822  -19.6810   23.9855 C.ar    1  UNL1        0.0002
      7 C          -8.7887  -19.8765   22.9774 C.ar    1  UNL1        0.0030
      8 C          -7.9453  -18.7119   22.5504 C.ar    1  UNL1        0.0341
      9 C          -6.5332  -15.4428   23.7172 C.3     1  UNL1        0.2525
     10 O          -7.3519  -16.1872   22.7045 O.3     1  UNL1       -0.4714
     11 C          -4.4332  -19.6593   20.9637 C.2     1  UNL1        0.1957
     12 O          -4.4428  -20.8648   20.0710 O.2     1  UNL1       -0.2866
     13 C          -3.3301  -18.6494   20.8483 C.ar    1  UNL1        0.0420
     14 C          -3.0763  -17.6847   21.9685 C.ar    1  UNL1        0.0239
     15 C          -1.9732  -16.6748   21.8531 C.ar    1  UNL1        0.0990
     16 N          -1.1240  -16.6296   20.6175 N.ar    1  UNL1       -0.2423
     17 C          -1.3778  -17.5943   19.4973 C.ar    1  UNL1        0.0990
     18 C          -2.4809  -18.6042   19.6127 C.ar    1  UNL1        0.0239
@<TRIPOS>BOND
     1     9    10    1
     2    10     3    1
     3     3     4   ar
     4     4     5   ar
     5     5     6   ar
     6     6     7   ar
     7     7     8   ar
     8     8     1    1
     9     1     2    2
    10     2    11    1
    11    11    12    2
    12    11    13    1
    13    13    14   ar
    14    14    15   ar
    15    15    16   ar
    16    16    17   ar
    17    17    18   ar
    18     8     3   ar
    19    18    13   ar
@<TRIPOS>MOLECULE
*****
 18 19 0 0 0
SMALL
GASTEIGER

@<TRIPOS>ATOM
      1 C          -6.6526  -19.9024   21.0429 C.2     1  UNL1        0.0063
      2 C          -7.3797  -19.2329   19.9146 C.2     1  UNL1        0.0421
      3 C          -4.9817  -18.3561   22.2948 C.ar    1  UNL1        0.1386
      4 C          -3.5720  -17.9591   22.6188 C.ar    1  UNL1        0.0369
      5 C          -2.4233  -18.7114   22.0150 C.ar    1  UNL1        0.0031
      6 C          -2.6844  -19.8607   21.0872 C.ar    1  UNL1        0.0002
      7 C          -4.0941  -20.2577   20.7632 C.ar    1  UNL1        0.0030
      8 C          -5.2428  -19.5054   21.3670 C.ar    1  UNL1        0.0341
      9 C          -5.8794  -16.3349   23.6582 C.3     1  UNL1        0.2525
     10 O          -6.1304  -17.6037   22.8986 O.3     1  UNL1       -0.4714
     11 C          -8.7894  -19.6299   19.5905 C.2     1  UNL1        0.1957
     12 O          -9.0624  -20.5599   18.4455 O.2     1  UNL1       -0.2866
     13 C          -9.9262  -19.0969   20.4112 C.ar    1  UNL1        0.0420
     14 C         -10.1628  -19.6230   21.7958 C.ar    1  UNL1        0.0239
     15 C         -11.2996  -19.0901   22.6166 C.ar    1  UNL1        0.0990
     16 N         -12.1998  -18.0311   22.0527 N.ar    1  UNL1       -0.2423
     17 C         -11.9633  -17.5049   20.6680 C.ar    1  UNL1        0.0990
     18 C         -10.8265  -18.0379   19.8473 C.ar    1  UNL1        0.0239
@<TRIPOS>BOND
     1     9    10    1
     2    10     3    1
     3     3     4   ar
     4     4     5   ar
     5     5     6   ar
     6     6     7   ar
     7     7     8   ar
     8     8     1    1
     9     1     2    2
    10     2    11    1
    11    11    12    2
    12    11    13    1
    13    13    14   ar
    14    14    15   ar
    15    15    16   ar
    16    16    17   ar
    17    17    18   ar
    18     8     3   ar
    19    18    13   ar
@<TRIPOS>MOLECULE
*****
 18 19 0 0 0
SMALL
GASTEIGER

@<TRIPOS>ATOM
      1 C          -6.2247  -19.1104   21.7643 C.2     1  UNL1        0.0063
      2 C          -7.3037  -19.0767   20.7228 C.2     1  UNL1        0.0421
      3 C          -3.7600  -18.4805   22.2920 C.ar    1  UNL1        0.1386
      4 C          -2.3188  -18.4175   21.8810 C.ar    1  UNL1        0.0369
      5 C          -1.9011  -18.9215   20.5313 C.ar    1  UNL1        0.0031
      6 C          -2.9245  -19.4884   19.5927 C.ar    1  UNL1        0.0002
      7 C          -4.3657  -19.5514   20.0037 C.ar    1  UNL1        0.0030
      8 C          -4.7834  -19.0474   21.3533 C.ar    1  UNL1        0.0341
      9 C          -4.6564  -16.5638   23.7995 C.3     1  UNL1        0.2525
     10 O          -4.1777  -17.9765   23.6416 O.3     1  UNL1       -0.4714
     11 C          -8.7449  -19.1396   21.1337 C.2     1  UNL1        0.1957
     12 O          -9.8144  -19.3055   20.0951 O.2     1  UNL1       -0.2866
     13 C          -9.1167  -19.0368   22.5833 C.ar    1  UNL1        0.0420
     14 C          -9.1231  -17.6996   23.2628 C.ar    1  UNL1        0.0239
     15 C          -9.4949  -17.5967   24.7124 C.ar    1  UNL1        0.0990
     16 N          -9.8604  -18.8310   25.4824 N.ar    1  UNL1       -0.2423
     17 C          -9.8541  -20.1682   24.8028 C.ar    1  UNL1        0.0990
     18 C          -9.4823  -20.2711   23.3532 C.ar    1  UNL1        0.0239
@<TRIPOS>BOND
     1     9    10    1
     2    10     3    1
     3     3     4   ar
     4     4     5   ar
     5     5     6   ar
     6     6     7   ar
     7     7     8   ar
     8     8     1    1
     9     1     2    2
    10     2    11    1
    11    11    12    2
    12    11    13    1
    13    13    14   ar
    14    14    15   ar
    15    15    16   ar
    16    16    17   ar
    17    17    18   ar
    18     8     3   ar
    19    18    13   ar
@<TRIPOS>MOLECULE
*****
 18 19 0 0 0
SMALL
GASTEIGER

@<TRIPOS>ATOM
      1 C          -8.9947  -16.2652   24.1832 C.2     1  UNL1        0.0063
      2 C          -9.5208  -17.6647   24.3037 C.2     1  UNL1        0.0421
      3 C          -7.4096  -15.6847   26.1583 C.ar    1  UNL1        0.1386
      4 C          -6.0393  -15.3520   26.6696 C.ar    1  UNL1        0.0369
      5 C          -4.8836  -15.2670   25.7171 C.ar    1  UNL1        0.0031
      6 C          -5.0983  -15.5147   24.2534 C.ar    1  UNL1        0.0002
      7 C          -6.4686  -15.8474   23.7421 C.ar    1  UNL1        0.0030
      8 C          -7.6243  -15.9324   24.6946 C.ar    1  UNL1        0.0341
      9 C          -8.8688  -14.6209   28.0262 C.3     1  UNL1        0.2525
     10 O          -8.5653  -15.7697   27.1108 O.3     1  UNL1       -0.4714
     11 C         -10.8911  -17.9975   23.7924 C.2     1  UNL1        0.1957
     12 O         -11.8876  -18.6621   24.6954 O.2     1  UNL1       -0.2866
     13 C         -11.2649  -17.6656   22.3782 C.ar    1  UNL1        0.0420
     14 C         -12.1677  -16.5018   22.0944 C.ar    1  UNL1        0.0239
     15 C         -12.5415  -16.1700   20.6802 C.ar    1  UNL1        0.0990
     16 N         -12.0127  -17.0019   19.5497 N.ar    1  UNL1       -0.2423
     17 C         -11.1099  -18.1658   19.8334 C.ar    1  UNL1        0.0990
     18 C         -10.7360  -18.4977   21.2476 C.ar    1  UNL1        0.0239
@<TRIPOS>BOND
     1     9    10    1
     2    10     3    1
     3     3     4   ar
     4     4     5   ar
     5     5     6   ar
     6     6     7   ar
     7     7     8   ar
     8     8     1    1
     9     1     2    2
    10     2    11    1
    11    11    12    2
    12    11    13    1
    13    13    14   ar
    14    14    15   ar
    15    15    16   ar
    16    16    17   ar
    17    17    18   ar
    18     8     3   ar
    19    18    13   ar
@<TRIPOS>MOLECULE
*****
 18 19 0 0 0
SMALL
GASTEIGER

@<TRIPOS>ATOM
      1 C          -7.7777  -18.4827   22.0296 C.2     1  UNL1        0.0063
      2 C          -8.1426  -19.0712   20.6990 C.2     1  UNL1        0.0421
      3 C          -5.8729  -17.1241   23.1593 C.ar    1  UNL1        0.1386
      4 C          -4.4308  -16.9846   23.5475 C.ar    1  UNL1        0.0369
      5 C          -3.4512  -18.0642   23.1941 C.ar    1  UNL1        0.0031
      6 C          -3.9137  -19.2833   22.4526 C.ar    1  UNL1        0.0002
      7 C          -5.3559  -19.4227   22.0644 C.ar    1  UNL1        0.0030
      8 C          -6.3355  -18.3431   22.4178 C.ar    1  UNL1        0.0341
      9 C          -6.6620  -15.2390   24.7636 C.3     1  UNL1        0.2525
     10 O          -6.8525  -16.0445   23.5127 O.3     1  UNL1       -0.4714
     11 C          -9.5848  -19.2107   20.3108 C.2     1  UNL1        0.1957
     12 O          -9.9693  -20.0888   19.1570 O.2     1  UNL1       -0.2866
     13 C         -10.6424  -18.4722   21.0763 C.ar    1  UNL1        0.0420
     14 C         -11.0895  -17.1154   20.6193 C.ar    1  UNL1        0.0239
     15 C         -12.1471  -16.3769   21.3848 C.ar    1  UNL1        0.0990
     16 N         -12.7577  -16.9953   22.6074 N.ar    1  UNL1       -0.2423
     17 C         -12.3106  -18.3522   23.0645 C.ar    1  UNL1        0.0990
     18 C         -11.2530  -19.0907   22.2990 C.ar    1  UNL1        0.0239
@<TRIPOS>BOND
     1     9    10    1
     2    10     3    1
     3     3     4   ar
     4     4     5   ar
     5     5     6   ar
     6     6     7   ar
     7     7     8   ar
     8     8     1    1
     9     1     2    2
    10     2    11    1
    11    11    12    2
    12    11    13    1
    13    13    14   ar
    14    14    15   ar
    15    15    16   ar
    16    16    17   ar
    17    17    18   ar
    18     8     3   ar
    19    18    13   ar
@<TRIPOS>MOLECULE
*****
 18 19 0 0 0
SMALL
GASTEIGER

@<TRIPOS>ATOM
      1 C         -13.8187   -6.0775   19.7753 C.2     1  UNL1        0.0063
      2 C         -14.5611   -6.8239   18.7068 C.2     1  UNL1        0.0421
      3 C         -11.4212   -5.4692   18.9800 C.ar    1  UNL1        0.1386
      4 C         -10.4007   -4.4368   18.6024 C.ar    1  UNL1        0.0369
      5 C         -10.7570   -2.9803   18.6424 C.ar    1  UNL1        0.0031
      6 C         -12.1338   -2.5561   19.0600 C.ar    1  UNL1        0.0002
      7 C         -13.1543   -3.5885   19.4376 C.ar    1  UNL1        0.0030
      8 C         -12.7980   -5.0451   19.3976 C.ar    1  UNL1        0.0341
      9 C          -9.6256   -7.3446   18.8893 C.3     1  UNL1        0.2525
     10 O         -11.0649   -6.9257   18.9400 O.3     1  UNL1       -0.4714
     11 C         -15.5817   -7.8563   19.0844 C.2     1  UNL1        0.1957
     12 O         -15.2069   -9.3086   19.1062 O.2     1  UNL1       -0.2866
     13 C         -16.9771   -7.4364   19.4401 C.ar    1  UNL1        0.0420
     14 C         -17.4656   -6.0672   19.0707 C.ar    1  UNL1        0.0239
     15 C         -18.8610   -5.6473   19.4264 C.ar    1  UNL1        0.0990
     16 N         -19.7680   -6.5967   20.1516 N.ar    1  UNL1       -0.2423
     17 C         -19.2796   -7.9661   20.5211 C.ar    1  UNL1        0.0990
     18 C         -17.8841   -8.3859   20.1654 C.ar    1  UNL1        0.0239
@<TRIPOS>BOND
     1     9    10    1
     2    10     3    1
     3     3     4   ar
     4     4     5   ar
     5     5     6   ar
     6     6     7   ar
     7     7     8   ar
     8     8     1    1
     9     1     2    2
    10     2    11    1
    11    11    12    2
    12    11    13    1
    13    13    14   ar
    14    14    15   ar
    15    15    16   ar
    16    16    17   ar
    17    17    18   ar
    18     8     3   ar
    19    18    13   ar
