@<TRIPOS>MOLECULE
*****
 26 29 0 0 0
SMALL
GASTEIGER

@<TRIPOS>ATOM
      1 C          -5.8492  -20.2326   21.8216 C.3     1  UNL1        0.0914
      2 C          -4.8538  -19.1706   22.1840 C.ar    1  UNL1       -0.0079
      3 C          -3.3882  -19.4147   21.9781 C.ar    1  UNL1       -0.0032
      4 C          -2.3928  -18.3528   22.3405 C.ar    1  UNL1        0.0028
      5 C          -2.8629  -17.0467   22.9089 C.ar    1  UNL1        0.0375
      6 C          -4.3285  -16.8025   23.1148 C.ar    1  UNL1        0.1450
      7 C          -5.3240  -17.8646   22.7523 C.ar    1  UNL1        0.0341
      8 O          -4.7987  -15.4965   23.6831 O.3     1  UNL1       -0.4535
      9 C          -5.9039  -15.4743   24.6970 C.ar    1  UNL1        0.1453
     10 C          -5.5842  -15.5929   26.1578 C.ar    1  UNL1        0.0375
     11 C          -6.6895  -15.5706   27.1717 C.ar    1  UNL1        0.0031
     12 C          -8.1144  -15.4299   26.7248 C.ar    1  UNL1        0.0002
     13 C          -8.4341  -15.3113   25.2641 C.ar    1  UNL1        0.0031
     14 C          -7.3289  -15.3335   24.2502 C.ar    1  UNL1        0.0375
     15 S          -6.8340  -19.9916   20.7161 S.3     1  UNL1       -0.0709
     16 C         -12.6059  -17.9569   22.7532 C.2     1  UNL1        0.1223
     17 C         -12.7022  -17.3942   21.3661 C.2     1  UNL1        0.0343
     18 C         -11.5702  -17.5824   20.4001 C.2     1  UNL1        0.0232
     19 C         -10.3419  -18.3334   20.8212 C.2     1  UNL1        0.0975
     20 N          -9.0756  -18.6753   20.0934 N.2     1  UNL1       -0.2200
     21 C          -8.1968  -19.4493   21.0307 C.2     1  UNL1        0.1901
     22 N          -8.9198  -19.5858   22.3378 N.2     1  UNL1       -0.2236
     23 C         -10.2457  -18.8961   22.2083 C.2     1  UNL1        0.0863
     24 C         -11.3777  -18.7079   23.1743 C.3     1  UNL1        0.1112
     25 C         -13.7356  -18.4997   25.0290 C.3     1  UNL1        0.2520
     26 O         -13.7379  -17.7687   23.7192 O.2     1  UNL1       -0.4753
@<TRIPOS>BOND
     1    25    26    1
     2    26    16    1
     3    16    17    2
     4    17    18    1
     5    18    19    2
     6    19    20    1
     7    20    21    2
     8    21    15    1
     9    15     1    1
    10     1     2    1
    11     2     3   ar
    12     3     4   ar
    13     4     5   ar
    14     5     6   ar
    15     6     8    1
    16     8     9    1
    17     9    10   ar
    18    10    11   ar
    19    11    12   ar
    20    12    13   ar
    21    13    14   ar
    22     6     7   ar
    23    21    22    1
    24    22    23    2
    25    23    24    1
    26    24    16    1
    27    23    19    1
    28     7     2   ar
    29    14     9   ar
@<TRIPOS>MOLECULE
*****
 26 29 0 0 0
SMALL
GASTEIGER

@<TRIPOS>ATOM
      1 C          -9.7910  -18.7881   20.1793 C.3     1  UNL1        0.0914
      2 C         -10.0439  -18.6421   21.6506 C.ar    1  UNL1       -0.0079
      3 C         -10.6545  -19.7740   22.4226 C.ar    1  UNL1       -0.0032
      4 C         -10.9073  -19.6280   23.8939 C.ar    1  UNL1        0.0028
      5 C         -10.5495  -18.3502   24.5932 C.ar    1  UNL1        0.0375
      6 C          -9.9389  -17.2183   23.8212 C.ar    1  UNL1        0.1450
      7 C          -9.6861  -17.3643   22.3499 C.ar    1  UNL1        0.0341
      8 O          -9.5811  -15.9404   24.5205 O.3     1  UNL1       -0.4535
      9 C          -8.1915  -15.7377   25.0476 C.ar    1  UNL1        0.1453
     10 C          -7.9590  -15.6236   26.5251 C.ar    1  UNL1        0.0375
     11 C          -6.5693  -15.4208   27.0522 C.ar    1  UNL1        0.0031
     12 C          -5.4122  -15.3321   26.1018 C.ar    1  UNL1        0.0002
     13 C          -5.6447  -15.4461   24.6243 C.ar    1  UNL1        0.0031
     14 C          -7.0343  -15.6489   24.0972 C.ar    1  UNL1        0.0375
     15 S          -8.6759  -19.6657   19.6934 S.3     1  UNL1       -0.0709
     16 C          -2.4349  -18.8397   21.0977 C.2     1  UNL1        0.1223
     17 C          -2.9613  -18.5673   22.4756 C.2     1  UNL1        0.0343
     18 C          -4.4366  -18.6262   22.7401 C.2     1  UNL1        0.0232
     19 C          -5.3855  -18.9575   21.6267 C.2     1  UNL1        0.0975
     20 N          -6.8793  -19.0876   21.5864 N.2     1  UNL1       -0.2200
     21 C          -7.2762  -19.4404   20.1835 C.2     1  UNL1        0.1901
     22 N          -6.0276  -19.5284   19.3568 N.2     1  UNL1       -0.2236
     23 C          -4.8591  -19.2299   20.2488 C.2     1  UNL1        0.0863
     24 C          -3.3838  -19.1710   19.9843 C.3     1  UNL1        0.1112
     25 C          -0.4173  -17.8178   19.8192 C.3     1  UNL1        0.2520
     26 O          -0.9596  -18.7808   20.8332 O.2     1  UNL1       -0.4753
@<TRIPOS>BOND
     1    25    26    1
     2    26    16    1
     3    16    17    2
     4    17    18    1
     5    18    19    2
     6    19    20    1
     7    20    21    2
     8    21    15    1
     9    15     1    1
    10     1     2    1
    11     2     3   ar
    12     3     4   ar
    13     4     5   ar
    14     5     6   ar
    15     6     8    1
    16     8     9    1
    17     9    10   ar
    18    10    11   ar
    19    11    12   ar
    20    12    13   ar
    21    13    14   ar
    22     6     7   ar
    23    21    22    1
    24    22    23    2
    25    23    24    1
    26    24    16    1
    27    23    19    1
    28     7     2   ar
    29    14     9   ar
@<TRIPOS>MOLECULE
*****
 26 29 0 0 0
SMALL
GASTEIGER

@<TRIPOS>ATOM
      1 C         -10.9582  -19.4140   20.8508 C.3     1  UNL1        0.0914
      2 C         -10.6214  -19.1360   22.2857 C.ar    1  UNL1       -0.0079
      3 C         -10.6502  -20.2481   23.2919 C.ar    1  UNL1       -0.0032
      4 C         -10.3134  -19.9702   24.7269 C.ar    1  UNL1        0.0028
      5 C          -9.9477  -18.5800   25.1558 C.ar    1  UNL1        0.0375
      6 C          -9.9188  -17.4679   24.1496 C.ar    1  UNL1        0.1450
      7 C         -10.2557  -17.7459   22.7146 C.ar    1  UNL1        0.0341
      8 O          -9.5531  -16.0778   24.5784 O.3     1  UNL1       -0.4535
      9 C          -8.1749  -15.7909   25.0962 C.ar    1  UNL1        0.1453
     10 C          -7.0253  -15.6676   24.1407 C.ar    1  UNL1        0.0375
     11 C          -5.6470  -15.3806   24.6586 C.ar    1  UNL1        0.0031
     12 C          -5.4185  -15.2170   26.1320 C.ar    1  UNL1        0.0002
     13 C          -6.5681  -15.3403   27.0875 C.ar    1  UNL1        0.0031
     14 C          -7.9463  -15.6273   26.5697 C.ar    1  UNL1        0.0375
     15 S          -9.9431  -19.1524   19.7778 S.3     1  UNL1       -0.0709
     16 C          -3.7182  -19.3069   21.4604 C.2     1  UNL1        0.1223
     17 C          -3.6896  -20.5173   20.5748 C.2     1  UNL1        0.0343
     18 C          -4.9405  -20.9684   19.8807 C.2     1  UNL1        0.0232
     19 C          -6.2199  -20.2092   20.0720 C.2     1  UNL1        0.0975
     20 N          -7.6004  -20.4140   19.5223 N.2     1  UNL1       -0.2200
     21 C          -8.4822  -19.3303   20.0681 C.2     1  UNL1        0.1901
     22 N          -7.6467  -18.4556   20.9552 N.2     1  UNL1       -0.2236
     23 C          -6.2484  -18.9989   20.9576 C.2     1  UNL1        0.0863
     24 C          -4.9976  -18.5478   21.6517 C.3     1  UNL1        0.1112
     25 C          -2.4923  -17.6363   23.0275 C.3     1  UNL1        0.2520
     26 O          -2.4674  -18.8558   22.1545 O.2     1  UNL1       -0.4753
@<TRIPOS>BOND
     1    25    26    1
     2    26    16    1
     3    16    17    2
     4    17    18    1
     5    18    19    2
     6    19    20    1
     7    20    21    2
     8    21    15    1
     9    15     1    1
    10     1     2    1
    11     2     3   ar
    12     3     4   ar
    13     4     5   ar
    14     5     6   ar
    15     6     8    1
    16     8     9    1
    17     9    10   ar
    18    10    11   ar
    19    11    12   ar
    20    12    13   ar
    21    13    14   ar
    22     6     7   ar
    23    21    22    1
    24    22    23    2
    25    23    24    1
    26    24    16    1
    27    23    19    1
    28     7     2   ar
    29    14     9   ar
@<TRIPOS>MOLECULE
*****
 26 29 0 0 0
SMALL
GASTEIGER

@<TRIPOS>ATOM
      1 C          -8.8517  -19.8629   21.6365 C.3     1  UNL1        0.0914
      2 C          -9.8078  -18.8854   22.2533 C.ar    1  UNL1       -0.0079
      3 C         -11.2840  -19.1468   22.2033 C.ar    1  UNL1       -0.0032
      4 C         -12.2400  -18.1693   22.8200 C.ar    1  UNL1        0.0028
      5 C         -11.7199  -16.9303   23.4868 C.ar    1  UNL1        0.0375
      6 C         -10.2437  -16.6690   23.5368 C.ar    1  UNL1        0.1450
      7 C          -9.2876  -17.6466   22.9200 C.ar    1  UNL1        0.0341
      8 O          -9.7235  -15.4301   24.2036 O.3     1  UNL1       -0.4535
      9 C          -8.4860  -15.4965   25.0487 C.ar    1  UNL1        0.1453
     10 C          -7.1588  -15.1092   24.4668 C.ar    1  UNL1        0.0375
     11 C          -5.9213  -15.1756   25.3120 C.ar    1  UNL1        0.0031
     12 C          -6.0110  -15.6293   26.7389 C.ar    1  UNL1        0.0002
     13 C          -7.3382  -16.0166   27.3207 C.ar    1  UNL1        0.0031
     14 C          -8.5757  -15.9502   26.4756 C.ar    1  UNL1        0.0375
     15 S          -8.0467  -19.4678   20.4341 S.3     1  UNL1       -0.0709
     16 C          -1.6553  -18.6335   20.1915 C.2     1  UNL1        0.1223
     17 C          -1.7596  -18.7495   21.6834 C.2     1  UNL1        0.0343
     18 C          -3.0972  -18.9650   22.3272 C.2     1  UNL1        0.0232
     19 C          -4.3304  -19.0644   21.4793 C.2     1  UNL1        0.0975
     20 N          -5.7743  -19.2731   21.8282 N.2     1  UNL1       -0.2200
     21 C          -6.5624  -19.2860   20.5519 C.2     1  UNL1        0.1901
     22 N          -5.6056  -19.0853   19.4143 N.2     1  UNL1       -0.2236
     23 C          -4.2262  -18.9483   19.9874 C.2     1  UNL1        0.0863
     24 C          -2.8886  -18.7329   19.3436 C.3     1  UNL1        0.1112
     25 C           0.6644  -17.4639   20.1600 C.3     1  UNL1        0.2520
     26 O          -0.3178  -18.4181   19.5477 O.2     1  UNL1       -0.4753
@<TRIPOS>BOND
     1    25    26    1
     2    26    16    1
     3    16    17    2
     4    17    18    1
     5    18    19    2
     6    19    20    1
     7    20    21    2
     8    21    15    1
     9    15     1    1
    10     1     2    1
    11     2     3   ar
    12     3     4   ar
    13     4     5   ar
    14     5     6   ar
    15     6     8    1
    16     8     9    1
    17     9    10   ar
    18    10    11   ar
    19    11    12   ar
    20    12    13   ar
    21    13    14   ar
    22     6     7   ar
    23    21    22    1
    24    22    23    2
    25    23    24    1
    26    24    16    1
    27    23    19    1
    28     7     2   ar
    29    14     9   ar
@<TRIPOS>MOLECULE
*****
 26 29 0 0 0
SMALL
GASTEIGER

@<TRIPOS>ATOM
      1 C          -4.8624  -16.5132   24.2636 C.3     1  UNL1        0.0914
      2 C          -4.2968  -17.4875   23.2732 C.ar    1  UNL1       -0.0079
      3 C          -2.8156  -17.5508   23.0454 C.ar    1  UNL1       -0.0032
      4 C          -2.2501  -18.5251   22.0550 C.ar    1  UNL1        0.0028
      5 C          -3.1658  -19.4361   21.2923 C.ar    1  UNL1        0.0375
      6 C          -4.6471  -19.3727   21.5201 C.ar    1  UNL1        0.1450
      7 C          -5.2126  -18.3984   22.5106 C.ar    1  UNL1        0.0341
      8 O          -5.5628  -20.2837   20.7575 O.3     1  UNL1       -0.4535
      9 C          -7.0400  -20.0237   20.7456 C.ar    1  UNL1        0.1453
     10 C          -7.7454  -19.7640   19.4476 C.ar    1  UNL1        0.0375
     11 C          -9.2227  -19.5040   19.4358 C.ar    1  UNL1        0.0031
     12 C          -9.9945  -19.5036   20.7220 C.ar    1  UNL1        0.0002
     13 C          -9.2890  -19.7633   22.0200 C.ar    1  UNL1        0.0031
     14 C          -7.8118  -20.0233   22.0319 C.ar    1  UNL1        0.0375
     15 S          -5.7586  -15.4045   23.7971 S.3     1  UNL1       -0.0709
     16 C         -11.8959  -17.0037   22.6222 C.2     1  UNL1        0.1223
     17 C         -11.6173  -16.3862   21.2840 C.2     1  UNL1        0.0343
     18 C         -10.2617  -15.8158   20.9887 C.2     1  UNL1        0.0232
     19 C          -9.1848  -15.8628   22.0318 C.2     1  UNL1        0.0975
     20 N          -7.7631  -15.3847   22.0289 N.2     1  UNL1       -0.2200
     21 C          -7.1630  -15.7067   23.3654 C.2     1  UNL1        0.1901
     22 N          -8.2138  -16.3838   24.1943 N.2     1  UNL1       -0.2236
     23 C          -9.4634  -16.4803   23.3700 C.2     1  UNL1        0.0863
     24 C         -10.8190  -17.0508   23.6653 C.3     1  UNL1        0.1112
     25 C         -13.5589  -18.1077   24.2852 C.3     1  UNL1        0.2520
     26 O         -13.2514  -17.5741   22.9175 O.2     1  UNL1       -0.4753
@<TRIPOS>BOND
     1    25    26    1
     2    26    16    1
     3    16    17    2
     4    17    18    1
     5    18    19    2
     6    19    20    1
     7    20    21    2
     8    21    15    1
     9    15     1    1
    10     1     2    1
    11     2     3   ar
    12     3     4   ar
    13     4     5   ar
    14     5     6   ar
    15     6     8    1
    16     8     9    1
    17     9    10   ar
    18    10    11   ar
    19    11    12   ar
    20    12    13   ar
    21    13    14   ar
    22     6     7   ar
    23    21    22    1
    24    22    23    2
    25    23    24    1
    26    24    16    1
    27    23    19    1
    28     7     2   ar
    29    14     9   ar
@<TRIPOS>MOLECULE
*****
 26 29 0 0 0
SMALL
GASTEIGER

@<TRIPOS>ATOM
      1 C          -4.3397  -16.6440   24.3164 C.3     1  UNL1        0.0914
      2 C          -3.9763  -17.4536   23.1071 C.ar    1  UNL1       -0.0079
      3 C          -2.6590  -17.2324   22.4247 C.ar    1  UNL1       -0.0032
      4 C          -2.2956  -18.0420   21.2153 C.ar    1  UNL1        0.0028
      5 C          -3.2495  -19.0727   20.6884 C.ar    1  UNL1        0.0375
      6 C          -4.5669  -19.2939   21.3709 C.ar    1  UNL1        0.1450
      7 C          -4.9303  -18.4843   22.5802 C.ar    1  UNL1        0.0341
      8 O          -5.5208  -20.3246   20.8440 O.3     1  UNL1       -0.4535
      9 C          -6.9882  -20.0220   20.7738 C.ar    1  UNL1        0.1453
     10 C          -7.8004  -19.9510   22.0329 C.ar    1  UNL1        0.0375
     11 C          -9.2680  -19.6483   21.9627 C.ar    1  UNL1        0.0031
     12 C          -9.9232  -19.4168   20.6334 C.ar    1  UNL1        0.0002
     13 C          -9.1110  -19.4878   19.3743 C.ar    1  UNL1        0.0031
     14 C          -7.6436  -19.7904   19.4445 C.ar    1  UNL1        0.0375
     15 S          -5.2996  -15.4981   24.1912 S.3     1  UNL1       -0.0709
     16 C         -11.1630  -16.2536   21.6116 C.2     1  UNL1        0.1223
     17 C         -11.4793  -16.8628   22.9452 C.2     1  UNL1        0.0343
     18 C         -10.4165  -16.9525   23.9999 C.2     1  UNL1        0.0232
     19 C          -9.0373  -16.4329   23.7210 C.2     1  UNL1        0.0975
     20 N          -7.7942  -16.3851   24.5590 N.2     1  UNL1       -0.2200
     21 C          -6.7095  -15.7463   23.7433 C.2     1  UNL1        0.1901
     22 N          -7.2823  -15.3993   22.4011 N.2     1  UNL1       -0.2236
     23 C          -8.7210  -15.8237   22.3873 C.2     1  UNL1        0.0863
     24 C          -9.7838  -15.7340   21.3326 C.3     1  UNL1        0.1112
     25 C         -11.8740  -15.6972   19.1755 C.3     1  UNL1        0.2520
     26 O         -12.2258  -16.1639   20.5569 O.2     1  UNL1       -0.4753
@<TRIPOS>BOND
     1    25    26    1
     2    26    16    1
     3    16    17    2
     4    17    18    1
     5    18    19    2
     6    19    20    1
     7    20    21    2
     8    21    15    1
     9    15     1    1
    10     1     2    1
    11     2     3   ar
    12     3     4   ar
    13     4     5   ar
    14     5     6   ar
    15     6     8    1
    16     8     9    1
    17     9    10   ar
    18    10    11   ar
    19    11    12   ar
    20    12    13   ar
    21    13    14   ar
    22     6     7   ar
    23    21    22    1
    24    22    23    2
    25    23    24    1
    26    24    16    1
    27    23    19    1
    28     7     2   ar
    29    14     9   ar
@<TRIPOS>MOLECULE
*****
 26 29 0 0 0
SMALL
GASTEIGER

@<TRIPOS>ATOM
      1 C          -9.2648  -15.5110   24.6001 C.3     1  UNL1        0.0914
      2 C          -7.8206  -15.5448   25.0040 C.ar    1  UNL1       -0.0079
      3 C          -7.4485  -15.5664   26.4570 C.ar    1  UNL1       -0.0032
      4 C          -6.0044  -15.6002   26.8609 C.ar    1  UNL1        0.0028
      5 C          -4.9322  -15.6126   25.8118 C.ar    1  UNL1        0.0375
      6 C          -5.3043  -15.5911   24.3589 C.ar    1  UNL1        0.1450
      7 C          -6.7486  -15.5572   23.9550 C.ar    1  UNL1        0.0341
      8 O          -4.2323  -15.6034   23.3099 O.3     1  UNL1       -0.4535
      9 C          -3.7112  -16.9085   22.7854 C.ar    1  UNL1        0.1453
     10 C          -4.5349  -18.1546   22.9229 C.ar    1  UNL1        0.0375
     11 C          -4.0138  -19.4597   22.3983 C.ar    1  UNL1        0.0031
     12 C          -2.6691  -19.5188   21.7363 C.ar    1  UNL1        0.0002
     13 C          -1.8455  -18.2727   21.5988 C.ar    1  UNL1        0.0031
     14 C          -2.3665  -16.9676   22.1233 C.ar    1  UNL1        0.0375
     15 S          -9.9897  -16.7893   24.2995 S.3     1  UNL1       -0.0709
     16 C          -9.1166  -20.1404   18.8578 C.2     1  UNL1        0.1223
     17 C          -7.7225  -20.3013   19.3873 C.2     1  UNL1        0.0343
     18 C          -7.3438  -19.6859   20.7018 C.2     1  UNL1        0.0232
     19 C          -8.3592  -18.9097   21.4868 C.2     1  UNL1        0.0975
     20 N          -8.2781  -18.1952   22.8032 N.2     1  UNL1       -0.2200
     21 C          -9.6221  -17.5928   23.0873 C.2     1  UNL1        0.1901
     22 N         -10.5339  -17.9349   21.9465 N.2     1  UNL1       -0.2236
     23 C          -9.7534  -18.7488   20.9573 C.2     1  UNL1        0.0863
     24 C         -10.1321  -19.3642   19.6428 C.3     1  UNL1        0.1112
     25 C          -8.8205  -22.0133   17.0818 C.3     1  UNL1        0.2520
     26 O          -9.4954  -20.7558   17.5433 O.2     1  UNL1       -0.4753
@<TRIPOS>BOND
     1    25    26    1
     2    26    16    1
     3    16    17    2
     4    17    18    1
     5    18    19    2
     6    19    20    1
     7    20    21    2
     8    21    15    1
     9    15     1    1
    10     1     2    1
    11     2     3   ar
    12     3     4   ar
    13     4     5   ar
    14     5     6   ar
    15     6     8    1
    16     8     9    1
    17     9    10   ar
    18    10    11   ar
    19    11    12   ar
    20    12    13   ar
    21    13    14   ar
    22     6     7   ar
    23    21    22    1
    24    22    23    2
    25    23    24    1
    26    24    16    1
    27    23    19    1
    28     7     2   ar
    29    14     9   ar
@<TRIPOS>MOLECULE
*****
 26 29 0 0 0
SMALL
GASTEIGER

@<TRIPOS>ATOM
      1 C          -9.6561  -15.7190   24.5172 C.3     1  UNL1        0.0914
      2 C          -8.2303  -15.5896   24.9648 C.ar    1  UNL1       -0.0079
      3 C          -7.8922  -15.6677   26.4241 C.ar    1  UNL1       -0.0032
      4 C          -6.4664  -15.5383   26.8716 C.ar    1  UNL1        0.0028
      5 C          -5.3786  -15.3308   25.8598 C.ar    1  UNL1        0.0375
      6 C          -5.7167  -15.2527   24.4005 C.ar    1  UNL1        0.1450
      7 C          -7.1426  -15.3821   23.9530 C.ar    1  UNL1        0.0341
      8 O          -4.6290  -15.0452   23.3887 O.3     1  UNL1       -0.4535
      9 C          -3.8087  -16.2101   22.9198 C.ar    1  UNL1        0.1453
     10 C          -2.5918  -15.9785   22.0739 C.ar    1  UNL1        0.0375
     11 C          -1.7715  -17.1436   21.6050 C.ar    1  UNL1        0.0031
     12 C          -2.1682  -18.5402   21.9819 C.ar    1  UNL1        0.0002
     13 C          -3.3851  -18.7718   22.8277 C.ar    1  UNL1        0.0031
     14 C          -4.2054  -17.6068   23.2966 C.ar    1  UNL1        0.0375
     15 S         -10.1865  -17.0519   24.0788 S.3     1  UNL1       -0.0709
     16 C          -6.4812  -20.5692   20.1413 C.2     1  UNL1        0.1223
     17 C          -7.5994  -20.3382   19.1685 C.2     1  UNL1        0.0343
     18 C          -8.7964  -19.5330   19.5792 C.2     1  UNL1        0.0232
     19 C          -8.8753  -18.9586   20.9626 C.2     1  UNL1        0.0975
     20 N          -9.9214  -18.1298   21.6471 N.2     1  UNL1       -0.2200
     21 C          -9.4498  -17.8484   23.0430 C.2     1  UNL1        0.1901
     22 N          -8.1122  -18.5034   23.2211 N.2     1  UNL1       -0.2236
     23 C          -7.7572  -19.1896   21.9353 C.2     1  UNL1        0.0863
     24 C          -6.5601  -19.9948   21.5247 C.3     1  UNL1        0.1112
     25 C          -3.9083  -20.7905   19.8567 C.3     1  UNL1        0.2520
     26 O          -5.2842  -21.3744   19.7307 O.2     1  UNL1       -0.4753
@<TRIPOS>BOND
     1    25    26    1
     2    26    16    1
     3    16    17    2
     4    17    18    1
     5    18    19    2
     6    19    20    1
     7    20    21    2
     8    21    15    1
     9    15     1    1
    10     1     2    1
    11     2     3   ar
    12     3     4   ar
    13     4     5   ar
    14     5     6   ar
    15     6     8    1
    16     8     9    1
    17     9    10   ar
    18    10    11   ar
    19    11    12   ar
    20    12    13   ar
    21    13    14   ar
    22     6     7   ar
    23    21    22    1
    24    22    23    2
    25    23    24    1
    26    24    16    1
    27    23    19    1
    28     7     2   ar
    29    14     9   ar
@<TRIPOS>MOLECULE
*****
 26 29 0 0 0
SMALL
GASTEIGER

@<TRIPOS>ATOM
      1 C          -7.2738  -14.7685   24.8314 C.3     1  UNL1        0.0914
      2 C          -6.0588  -15.6476   24.8602 C.ar    1  UNL1       -0.0079
      3 C          -5.4035  -15.9787   26.1682 C.ar    1  UNL1       -0.0032
      4 C          -4.1885  -16.8578   26.1971 C.ar    1  UNL1        0.0028
      5 C          -3.6287  -17.4059   24.9178 C.ar    1  UNL1        0.0375
      6 C          -4.2841  -17.0748   23.6098 C.ar    1  UNL1        0.1450
      7 C          -5.4991  -16.1956   23.5810 C.ar    1  UNL1        0.0341
      8 O          -3.7244  -17.6228   22.3306 O.3     1  UNL1       -0.4535
      9 C          -4.3892  -18.7880   21.6596 C.ar    1  UNL1        0.1453
     10 C          -5.7662  -19.2096   22.0793 C.ar    1  UNL1        0.0375
     11 C          -6.4309  -20.3748   21.4081 C.ar    1  UNL1        0.0031
     12 C          -5.7187  -21.1184   20.3174 C.ar    1  UNL1        0.0002
     13 C          -4.3417  -20.6968   19.8977 C.ar    1  UNL1        0.0031
     14 C          -3.6770  -19.5317   20.5687 C.ar    1  UNL1        0.0375
     15 S          -8.6389  -15.3703   24.9878 S.3     1  UNL1       -0.0709
     16 C         -10.2583  -19.5225   20.3251 C.2     1  UNL1        0.1223
     17 C         -11.0571  -20.1678   21.4185 C.2     1  UNL1        0.0343
     18 C         -11.0471  -19.5831   22.7998 C.2     1  UNL1        0.0232
     19 C         -10.2384  -18.3531   23.0877 C.2     1  UNL1        0.0975
     20 N         -10.0357  -17.5560   24.3421 N.2     1  UNL1       -0.2200
     21 C          -9.1116  -16.4181   24.0240 C.2     1  UNL1        0.1901
     22 N          -8.7432  -16.5118   22.5730 N.2     1  UNL1       -0.2236
     23 C          -9.4396  -17.7078   21.9944 C.2     1  UNL1        0.0863
     24 C          -9.4496  -18.2925   20.6130 C.3     1  UNL1        0.1112
     25 C          -8.9933  -20.6068   18.3316 C.3     1  UNL1        0.2520
     26 O         -10.2683  -20.1072   18.9438 O.2     1  UNL1       -0.4753
@<TRIPOS>BOND
     1    25    26    1
     2    26    16    1
     3    16    17    2
     4    17    18    1
     5    18    19    2
     6    19    20    1
     7    20    21    2
     8    21    15    1
     9    15     1    1
    10     1     2    1
    11     2     3   ar
    12     3     4   ar
    13     4     5   ar
    14     5     6   ar
    15     6     8    1
    16     8     9    1
    17     9    10   ar
    18    10    11   ar
    19    11    12   ar
    20    12    13   ar
    21    13    14   ar
    22     6     7   ar
    23    21    22    1
    24    22    23    2
    25    23    24    1
    26    24    16    1
    27    23    19    1
    28     7     2   ar
    29    14     9   ar
