@<TRIPOS>MOLECULE
*****
 26 29 0 0 0
SMALL
GASTEIGER

@<TRIPOS>ATOM
      1 N          -6.4736  -17.1400   23.4501 N.ar    1  UNL1       -0.2954
      2 C          -4.9788  -17.2109   23.5518 C.ar    1  UNL1        0.2014
      3 N          -4.5674  -16.5251   24.8208 N.ar    1  UNL1       -0.2136
      4 C          -5.8080  -16.0302   25.5034 C.ar    1  UNL1        0.0999
      5 C          -6.0172  -15.2826   26.7869 C.ar    1  UNL1        0.0207
      6 C          -7.4044  -14.9151   27.2233 C.ar    1  UNL1        0.0016
      7 C          -8.5825  -15.2952   26.3762 C.ar    1  UNL1        0.0016
      8 C          -8.3734  -16.0427   25.0927 C.ar    1  UNL1        0.0188
      9 C          -6.9862  -16.4102   24.6563 C.ar    1  UNL1        0.0801
     10 N          -4.0571  -17.8547   22.5588 N.pl3   1  UNL1       -0.2781
     11 C          -3.9169  -19.3276   22.3120 C.3     1  UNL1        0.0950
     12 C          -2.8870  -19.5219   21.2389 C.3     1  UNL1        0.0392
     13 C          -2.3906  -18.1690   20.8225 C.3     1  UNL1        0.0792
     14 C          -3.1138  -17.1387   21.6382 C.3     1  UNL1        0.1095
     15 N          -1.3532  -17.8947   19.7744 N.3     1  UNL1       -0.2699
     16 C           0.0780  -17.6861   20.1722 C.3     1  UNL1        0.0897
     17 C          -1.7470  -17.8288   18.3285 C.3     1  UNL1        0.0897
     18 C          -7.3093  -17.7004   22.3377 C.3     1  UNL1        0.1354
     19 C         -11.7904  -17.8223   22.7311 C.ar    1  UNL1        0.1387
     20 C         -11.1330  -16.6964   21.9894 C.ar    1  UNL1        0.0366
     21 C          -9.6393  -16.6558   21.8582 C.ar    1  UNL1        0.0007
     22 C          -8.8029  -17.7410   22.4688 C.ar    1  UNL1        0.0007
     23 C          -9.4604  -18.8669   23.2106 C.ar    1  UNL1        0.0007
     24 C         -10.9541  -18.9075   23.3417 C.ar    1  UNL1        0.0366
     25 C         -13.9125  -18.1596   24.1917 C.3     1  UNL1        0.2525
     26 O         -13.2841  -17.8629   22.8623 O.3     1  UNL1       -0.4714
@<TRIPOS>BOND
     1    25    26    1
     2    26    19    1
     3    19    20   ar
     4    20    21   ar
     5    21    22   ar
     6    22    18    1
     7    18     1    1
     8     1     2   ar
     9     2    10    1
    10    10    11    1
    11    11    12    1
    12    12    13    1
    13    13    15    1
    14    15    16    1
    15    15    17    1
    16    13    14    1
    17     2     3   ar
    18     3     4   ar
    19     4     5   ar
    20     5     6   ar
    21     6     7   ar
    22     7     8   ar
    23     8     9   ar
    24    22    23   ar
    25    23    24   ar
    26    24    19   ar
    27     9     1   ar
    28    14    10    1
    29     9     4   ar
@<TRIPOS>MOLECULE
*****
 26 29 0 0 0
SMALL
GASTEIGER

@<TRIPOS>ATOM
      1 N          -4.0719  -17.9536   22.2803 N.ar    1  UNL1       -0.2954
      2 C          -4.2460  -16.5615   22.8110 C.ar    1  UNL1        0.2014
      3 N          -3.0847  -15.7372   22.3399 N.ar    1  UNL1       -0.2136
      4 C          -2.1928  -16.6199   21.5181 C.ar    1  UNL1        0.0999
      5 C          -0.9040  -16.3532   20.7985 C.ar    1  UNL1        0.0207
      6 C          -0.2252  -17.4564   20.0422 C.ar    1  UNL1        0.0016
      7 C          -0.8353  -18.8263   20.0053 C.ar    1  UNL1        0.0016
      8 C          -2.1242  -19.0929   20.7248 C.ar    1  UNL1        0.0188
      9 C          -2.8029  -17.9897   21.4812 C.ar    1  UNL1        0.0801
     10 N          -5.3821  -16.0785   23.6631 N.pl3   1  UNL1       -0.2781
     11 C          -6.6160  -15.3797   23.1741 C.3     1  UNL1        0.0950
     12 C          -7.4802  -15.0787   24.3627 C.3     1  UNL1        0.0392
     13 C          -6.7803  -15.5916   25.5863 C.3     1  UNL1        0.0792
     14 C          -5.4837  -16.2094   25.1539 C.3     1  UNL1        0.1095
     15 N          -7.2880  -15.5023   26.9949 N.3     1  UNL1       -0.2699
     16 C          -6.7545  -14.4481   27.9190 C.3     1  UNL1        0.0897
     17 C          -8.3293  -16.4672   27.4794 C.3     1  UNL1        0.0897
     18 C          -5.0031  -19.1071   22.5085 C.3     1  UNL1        0.1354
     19 C          -8.9983  -19.2170   20.4407 C.ar    1  UNL1        0.1387
     20 C          -7.7482  -19.5331   19.6743 C.ar    1  UNL1        0.0366
     21 C          -6.4165  -19.4965   20.3636 C.ar    1  UNL1        0.0007
     22 C          -6.3348  -19.1437   21.8193 C.ar    1  UNL1        0.0007
     23 C          -7.5849  -18.8276   22.5856 C.ar    1  UNL1        0.0007
     24 C          -8.9167  -18.8642   21.8963 C.ar    1  UNL1        0.0366
     25 C         -11.2230  -18.0486   19.7804 C.3     1  UNL1        0.2525
     26 O         -10.3301  -19.2536   19.7514 O.3     1  UNL1       -0.4714
@<TRIPOS>BOND
     1    25    26    1
     2    26    19    1
     3    19    20   ar
     4    20    21   ar
     5    21    22   ar
     6    22    18    1
     7    18     1    1
     8     1     2   ar
     9     2    10    1
    10    10    11    1
    11    11    12    1
    12    12    13    1
    13    13    15    1
    14    15    16    1
    15    15    17    1
    16    13    14    1
    17     2     3   ar
    18     3     4   ar
    19     4     5   ar
    20     5     6   ar
    21     6     7   ar
    22     7     8   ar
    23     8     9   ar
    24    22    23   ar
    25    23    24   ar
    26    24    19   ar
    27     9     1   ar
    28    14    10    1
    29     9     4   ar
@<TRIPOS>MOLECULE
*****
 26 29 0 0 0
SMALL
GASTEIGER

@<TRIPOS>ATOM
      1 N          -6.9676  -19.2714   21.1970 N.ar    1  UNL1       -0.2954
      2 C          -7.9452  -18.1526   21.4034 C.ar    1  UNL1        0.2014
      3 N          -9.0593  -18.3222   20.4134 N.ar    1  UNL1       -0.2136
      4 C          -8.7703  -19.5457   19.5953 C.ar    1  UNL1        0.0999
      5 C          -9.5172  -20.2015   18.4719 C.ar    1  UNL1        0.0207
      6 C          -8.9714  -21.4439   17.8328 C.ar    1  UNL1        0.0016
      7 C          -7.6787  -22.0306   18.3172 C.ar    1  UNL1        0.0016
      8 C          -6.9317  -21.3748   19.4406 C.ar    1  UNL1        0.0188
      9 C          -7.4775  -20.1324   20.0796 C.ar    1  UNL1        0.0801
     10 N          -7.8291  -17.0567   22.4209 N.pl3   1  UNL1       -0.2781
     11 C          -8.0528  -15.5946   22.1715 C.3     1  UNL1        0.0950
     12 C          -7.8308  -14.8647   23.4630 C.3     1  UNL1        0.0392
     13 C          -7.4699  -15.8757   24.5107 C.3     1  UNL1        0.0792
     14 C          -7.4688  -17.2304   23.8666 C.3     1  UNL1        0.1095
     15 N          -7.1638  -15.5833   25.9497 N.3     1  UNL1       -0.2699
     16 C          -8.2696  -15.5657   26.9631 C.3     1  UNL1        0.0897
     17 C          -5.7519  -15.3087   26.3753 C.3     1  UNL1        0.0897
     18 C          -5.7022  -19.4907   21.9721 C.3     1  UNL1        0.1354
     19 C          -1.7174  -18.6416   20.0615 C.ar    1  UNL1        0.1387
     20 C          -2.9389  -18.8073   19.2068 C.ar    1  UNL1        0.0366
     21 C          -4.2672  -19.0903   19.8437 C.ar    1  UNL1        0.0007
     22 C          -4.3740  -19.2077   21.3353 C.ar    1  UNL1        0.0007
     23 C          -3.1525  -19.0421   22.1900 C.ar    1  UNL1        0.0007
     24 C          -1.8243  -18.7590   21.5531 C.ar    1  UNL1        0.0366
     25 C           0.5879  -17.4441   20.1023 C.3     1  UNL1        0.2525
     26 O          -0.3892  -18.3586   19.4246 O.3     1  UNL1       -0.4714
@<TRIPOS>BOND
     1    25    26    1
     2    26    19    1
     3    19    20   ar
     4    20    21   ar
     5    21    22   ar
     6    22    18    1
     7    18     1    1
     8     1     2   ar
     9     2    10    1
    10    10    11    1
    11    11    12    1
    12    12    13    1
    13    13    15    1
    14    15    16    1
    15    15    17    1
    16    13    14    1
    17     2     3   ar
    18     3     4   ar
    19     4     5   ar
    20     5     6   ar
    21     6     7   ar
    22     7     8   ar
    23     8     9   ar
    24    22    23   ar
    25    23    24   ar
    26    24    19   ar
    27     9     1   ar
    28    14    10    1
    29     9     4   ar
@<TRIPOS>MOLECULE
*****
 26 29 0 0 0
SMALL
GASTEIGER

@<TRIPOS>ATOM
      1 N         -13.5360   -5.7198   19.4950 N.ar    1  UNL1       -0.2954
      2 C         -14.4757   -6.7248   18.8974 C.ar    1  UNL1        0.2014
      3 N         -13.6677   -7.6796   18.0694 N.ar    1  UNL1       -0.2136
      4 C         -12.2288   -7.2647   18.1553 C.ar    1  UNL1        0.0999
      5 C         -10.9821   -7.8333   17.5450 C.ar    1  UNL1        0.0207
      6 C          -9.6541   -7.1907   17.8158 C.ar    1  UNL1        0.0016
      7 C          -9.5727   -5.9795   18.6969 C.ar    1  UNL1        0.0016
      8 C         -10.8194   -5.4109   19.3072 C.ar    1  UNL1        0.0188
      9 C         -12.1474   -6.0535   19.0364 C.ar    1  UNL1        0.0801
     10 N         -15.9622   -6.7675   19.0934 N.pl3   1  UNL1       -0.2781
     11 C         -16.9046   -5.6098   18.9460 C.3     1  UNL1        0.0950
     12 C         -18.2921   -6.1022   19.2327 C.3     1  UNL1        0.0392
     13 C         -18.2073   -7.5642   19.5574 C.3     1  UNL1        0.0792
     14 C         -16.7674   -7.9753   19.4713 C.3     1  UNL1        0.1095
     15 N         -19.3601   -8.4581   19.9068 N.3     1  UNL1       -0.2699
     16 C         -19.7833   -9.5413   18.9593 C.3     1  UNL1        0.0897
     17 C         -20.0897   -8.2688   21.2036 C.3     1  UNL1        0.0897
     18 C         -13.9180   -4.5810   20.3935 C.3     1  UNL1        0.1354
     19 C         -14.3339   -0.4284   18.7105 C.ar    1  UNL1        0.1387
     20 C         -15.5149   -1.1030   19.3432 C.ar    1  UNL1        0.0366
     21 C         -15.3762   -2.4872   19.9043 C.ar    1  UNL1        0.0007
     22 C         -14.0566   -3.1969   19.8325 C.ar    1  UNL1        0.0007
     23 C         -12.8757   -2.5223   19.1998 C.ar    1  UNL1        0.0007
     24 C         -13.0144   -1.1381   18.6388 C.ar    1  UNL1        0.0366
     25 C         -15.1455    2.0275   18.9549 C.3     1  UNL1        0.2525
     26 O         -14.4726    0.9558   18.1495 O.3     1  UNL1       -0.4714
@<TRIPOS>BOND
     1    25    26    1
     2    26    19    1
     3    19    20   ar
     4    20    21   ar
     5    21    22   ar
     6    22    18    1
     7    18     1    1
     8     1     2   ar
     9     2    10    1
    10    10    11    1
    11    11    12    1
    12    12    13    1
    13    13    15    1
    14    15    16    1
    15    15    17    1
    16    13    14    1
    17     2     3   ar
    18     3     4   ar
    19     4     5   ar
    20     5     6   ar
    21     6     7   ar
    22     7     8   ar
    23     8     9   ar
    24    22    23   ar
    25    23    24   ar
    26    24    19   ar
    27     9     1   ar
    28    14    10    1
    29     9     4   ar
@<TRIPOS>MOLECULE
*****
 26 29 0 0 0
SMALL
GASTEIGER

@<TRIPOS>ATOM
      1 N         -13.9859   -2.5443   19.5808 N.ar    1  UNL1       -0.2954
      2 C         -12.8070   -2.4944   18.6546 C.ar    1  UNL1        0.2014
      3 N         -12.8241   -1.1684   17.9536 N.ar    1  UNL1       -0.2136
      4 C         -14.0135   -0.3988   18.4465 C.ar    1  UNL1        0.0999
      5 C         -14.5355    0.9664   18.1095 C.ar    1  UNL1        0.0207
      6 C         -15.7756    1.4813   18.7782 C.ar    1  UNL1        0.0016
      7 C         -16.4936    0.6310   19.7838 C.ar    1  UNL1        0.0016
      8 C         -15.9716   -0.7342   20.1208 C.ar    1  UNL1        0.0188
      9 C         -14.7316   -1.2491   19.4522 C.ar    1  UNL1        0.0801
     10 N         -11.7897   -3.5800   18.4631 N.pl3   1  UNL1       -0.2781
     11 C         -10.3031   -3.4281   18.5934 C.3     1  UNL1        0.0950
     12 C          -9.6749   -4.7622   18.3185 C.3     1  UNL1        0.0392
     13 C         -10.7733   -5.7387   18.0184 C.3     1  UNL1        0.0792
     14 C         -12.0803   -5.0080   18.1078 C.3     1  UNL1        0.1095
     15 N         -10.5959   -7.1908   17.6871 N.3     1  UNL1       -0.2699
     16 C         -11.4361   -7.8243   16.6180 C.3     1  UNL1        0.0897
     17 C          -9.5784   -8.0095   18.4248 C.3     1  UNL1        0.0897
     18 C         -14.3544   -3.6884   20.4781 C.3     1  UNL1        0.1354
     19 C         -17.2643   -6.8140   19.0592 C.ar    1  UNL1        0.1387
     20 C         -15.8154   -7.1617   19.2324 C.ar    1  UNL1        0.0366
     21 C         -14.8455   -6.1199   19.7054 C.ar    1  UNL1        0.0007
     22 C         -15.3243   -4.7302   20.0051 C.ar    1  UNL1        0.0007
     23 C         -16.7732   -4.3826   19.8318 C.ar    1  UNL1        0.0007
     24 C         -17.7431   -5.4245   19.3588 C.ar    1  UNL1        0.0366
     25 C         -18.5595   -9.0301   19.4612 C.3     1  UNL1        0.2525
     26 O         -18.2342   -7.8559   18.5862 O.3     1  UNL1       -0.4714
@<TRIPOS>BOND
     1    25    26    1
     2    26    19    1
     3    19    20   ar
     4    20    21   ar
     5    21    22   ar
     6    22    18    1
     7    18     1    1
     8     1     2   ar
     9     2    10    1
    10    10    11    1
    11    11    12    1
    12    12    13    1
    13    13    15    1
    14    15    16    1
    15    15    17    1
    16    13    14    1
    17     2     3   ar
    18     3     4   ar
    19     4     5   ar
    20     5     6   ar
    21     6     7   ar
    22     7     8   ar
    23     8     9   ar
    24    22    23   ar
    25    23    24   ar
    26    24    19   ar
    27     9     1   ar
    28    14    10    1
    29     9     4   ar
@<TRIPOS>MOLECULE
*****
 26 29 0 0 0
SMALL
GASTEIGER

@<TRIPOS>ATOM
      1 N          -6.9128  -18.3619   21.6612 N.ar    1  UNL1       -0.2954
      2 C          -7.8641  -19.4701   22.0031 C.ar    1  UNL1        0.2014
      3 N          -7.2604  -20.7605   21.5337 N.ar    1  UNL1       -0.2136
      4 C          -5.9359  -20.4498   20.9018 C.ar    1  UNL1        0.0999
      5 C          -4.8978  -21.3253   20.2648 C.ar    1  UNL1        0.0207
      6 C          -3.6448  -20.7183   19.7066 C.ar    1  UNL1        0.0016
      7 C          -3.4300  -19.2358   19.7854 C.ar    1  UNL1        0.0016
      8 C          -4.4682  -18.3604   20.4224 C.ar    1  UNL1        0.0188
      9 C          -5.7211  -18.9674   20.9806 C.ar    1  UNL1        0.0801
     10 N          -9.1869  -19.3151   22.6931 N.pl3   1  UNL1       -0.2781
     11 C          -9.5407  -19.8456   24.0508 C.3     1  UNL1        0.0950
     12 C         -10.9606  -19.4608   24.3434 C.3     1  UNL1        0.0392
     13 C         -11.4845  -18.6924   23.1665 C.3     1  UNL1        0.0792
     14 C         -10.3883  -18.6023   22.1466 C.3     1  UNL1        0.1095
     15 N         -12.8626  -18.1153   23.0330 N.3     1  UNL1       -0.2699
     16 C         -13.7960  -18.1230   24.2072 C.3     1  UNL1        0.0897
     17 C         -13.3073  -17.5306   21.7252 C.3     1  UNL1        0.0897
     18 C          -7.1173  -16.9041   21.9493 C.3     1  UNL1        0.1354
     19 C          -7.1792  -15.4382   26.2034 C.ar    1  UNL1        0.1387
     20 C          -8.4624  -15.8007   25.5163 C.ar    1  UNL1        0.0366
     21 C          -8.4417  -16.2893   24.0983 C.ar    1  UNL1        0.0007
     22 C          -7.1379  -16.4155   23.3673 C.ar    1  UNL1        0.0007
     23 C          -5.8548  -16.0530   24.0545 C.ar    1  UNL1        0.0007
     24 C          -5.8754  -15.5644   25.4725 C.ar    1  UNL1        0.0366
     25 C          -8.4813  -14.4579   28.2267 C.3     1  UNL1        0.2525
     26 O          -7.1999  -14.9496   27.6214 O.3     1  UNL1       -0.4714
@<TRIPOS>BOND
     1    25    26    1
     2    26    19    1
     3    19    20   ar
     4    20    21   ar
     5    21    22   ar
     6    22    18    1
     7    18     1    1
     8     1     2   ar
     9     2    10    1
    10    10    11    1
    11    11    12    1
    12    12    13    1
    13    13    15    1
    14    15    16    1
    15    15    17    1
    16    13    14    1
    17     2     3   ar
    18     3     4   ar
    19     4     5   ar
    20     5     6   ar
    21     6     7   ar
    22     7     8   ar
    23     8     9   ar
    24    22    23   ar
    25    23    24   ar
    26    24    19   ar
    27     9     1   ar
    28    14    10    1
    29     9     4   ar
@<TRIPOS>MOLECULE
*****
 26 29 0 0 0
SMALL
GASTEIGER

@<TRIPOS>ATOM
      1 N          -2.2055    3.6629   22.4182 N.ar    1  UNL1       -0.2954
      2 C          -2.1706    3.1128   21.0232 C.ar    1  UNL1        0.2014
      3 N          -3.5813    3.0385   20.5188 N.ar    1  UNL1       -0.2136
      4 C          -4.4881    3.5427   21.6021 C.ar    1  UNL1        0.0999
      5 C          -5.9782    3.7003   21.6713 C.ar    1  UNL1        0.0207
      6 C          -6.6179    4.2438   22.9144 C.ar    1  UNL1        0.0016
      7 C          -5.7676    4.6297   24.0883 C.ar    1  UNL1        0.0016
      8 C          -4.2776    4.4721   24.0191 C.ar    1  UNL1        0.0188
      9 C          -3.6378    3.9286   22.7761 C.ar    1  UNL1        0.0801
     10 N          -0.9409    2.7080   20.2656 N.pl3   1  UNL1       -0.2781
     11 C          -0.2629    3.5080   19.1931 C.3     1  UNL1        0.0950
     12 C           0.9238    2.7266   18.7121 C.3     1  UNL1        0.0392
     13 C           0.9791    1.4437   19.4873 C.3     1  UNL1        0.0792
     14 C          -0.1733    1.4322   20.4474 C.3     1  UNL1        0.1095
     15 N           2.0065    0.3621   19.3301 N.3     1  UNL1       -0.2699
     16 C           3.1015    0.5096   18.3156 C.3     1  UNL1        0.0897
     17 C           1.9387   -0.8669   20.1873 C.3     1  UNL1        0.0897
     18 C          -1.0169    3.9049   23.3006 C.3     1  UNL1        0.1354
     19 C          -0.2918    1.2659   26.8727 C.ar    1  UNL1        0.1387
     20 C          -1.2315    2.4303   26.9789 C.ar    1  UNL1        0.0366
     21 C          -1.4732    3.3099   25.7882 C.ar    1  UNL1        0.0007
     22 C          -0.7752    3.0252   24.4912 C.ar    1  UNL1        0.0007
     23 C           0.1645    1.8609   24.3852 C.ar    1  UNL1        0.0007
     24 C           0.4062    0.9812   25.5759 C.ar    1  UNL1        0.0366
     25 C          -1.1941   -0.3473   28.6986 C.3     1  UNL1        0.2525
     26 O          -0.0501    0.3863   28.0635 O.3     1  UNL1       -0.4714
@<TRIPOS>BOND
     1    25    26    1
     2    26    19    1
     3    19    20   ar
     4    20    21   ar
     5    21    22   ar
     6    22    18    1
     7    18     1    1
     8     1     2   ar
     9     2    10    1
    10    10    11    1
    11    11    12    1
    12    12    13    1
    13    13    15    1
    14    15    16    1
    15    15    17    1
    16    13    14    1
    17     2     3   ar
    18     3     4   ar
    19     4     5   ar
    20     5     6   ar
    21     6     7   ar
    22     7     8   ar
    23     8     9   ar
    24    22    23   ar
    25    23    24   ar
    26    24    19   ar
    27     9     1   ar
    28    14    10    1
    29     9     4   ar
@<TRIPOS>MOLECULE
*****
 26 29 0 0 0
SMALL
GASTEIGER

@<TRIPOS>ATOM
      1 N           0.4730    1.3309   21.5082 N.ar    1  UNL1       -0.2954
      2 C          -0.1710    2.6830   21.4238 C.ar    1  UNL1        0.2014
      3 N           0.2499    3.4727   22.6276 N.ar    1  UNL1       -0.2136
      4 C           1.1540    2.6087   23.4560 C.ar    1  UNL1        0.0999
      5 C           1.8696    2.8563   24.7508 C.ar    1  UNL1        0.0207
      6 C           2.7230    1.7802   25.3538 C.ar    1  UNL1        0.0016
      7 C           2.8609    0.4565   24.6619 C.ar    1  UNL1        0.0016
      8 C           2.1453    0.2089   23.3670 C.ar    1  UNL1        0.0188
      9 C           1.2919    1.2850   22.7641 C.ar    1  UNL1        0.0801
     10 N          -1.0769    3.1613   20.3281 N.pl3   1  UNL1       -0.2781
     11 C          -0.6434    3.6784   18.9885 C.3     1  UNL1        0.0950
     12 C          -1.8738    4.0433   18.2121 C.3     1  UNL1        0.0392
     13 C          -3.0679    3.7516   19.0718 C.3     1  UNL1        0.0792
     14 C          -2.5753    3.2065   20.3796 C.3     1  UNL1        0.1095
     15 N          -4.5026    3.9671   18.6908 N.3     1  UNL1       -0.2699
     16 C          -5.5988    3.5040   19.6039 C.3     1  UNL1        0.0897
     17 C          -4.8410    4.6457   17.3966 C.3     1  UNL1        0.0897
     18 C           0.3242    0.2197   20.5116 C.3     1  UNL1        0.1354
     19 C           3.8938   -1.1866   18.1599 C.ar    1  UNL1        0.1387
     20 C           3.1166    0.0108   17.6992 C.ar    1  UNL1        0.0366
     21 C           1.9267    0.4795   18.4831 C.ar    1  UNL1        0.0007
     22 C           1.5140   -0.2491   19.7277 C.ar    1  UNL1        0.0007
     23 C           2.2913   -1.4464   20.1883 C.ar    1  UNL1        0.0007
     24 C           3.4811   -1.9152   19.4044 C.ar    1  UNL1        0.0366
     25 C           6.2324   -2.3157   18.0793 C.3     1  UNL1        0.2525
     26 O           5.0836   -1.6554   17.3760 O.3     1  UNL1       -0.4714
@<TRIPOS>BOND
     1    25    26    1
     2    26    19    1
     3    19    20   ar
     4    20    21   ar
     5    21    22   ar
     6    22    18    1
     7    18     1    1
     8     1     2   ar
     9     2    10    1
    10    10    11    1
    11    11    12    1
    12    12    13    1
    13    13    15    1
    14    15    16    1
    15    15    17    1
    16    13    14    1
    17     2     3   ar
    18     3     4   ar
    19     4     5   ar
    20     5     6   ar
    21     6     7   ar
    22     7     8   ar
    23     8     9   ar
    24    22    23   ar
    25    23    24   ar
    26    24    19   ar
    27     9     1   ar
    28    14    10    1
    29     9     4   ar
@<TRIPOS>MOLECULE
*****
 26 29 0 0 0
SMALL
GASTEIGER

@<TRIPOS>ATOM
      1 N           7.3726   -4.3335   22.8577 N.ar    1  UNL1       -0.2954
      2 C           6.5027   -3.2979   23.5065 C.ar    1  UNL1        0.2014
      3 N           6.2174   -3.7451   24.9095 N.ar    1  UNL1       -0.2136
      4 C           6.9110   -5.0571   25.1280 C.ar    1  UNL1        0.0999
      5 C           6.9847   -5.9676   26.3177 C.ar    1  UNL1        0.0207
      6 C           7.7723   -7.2417   26.2394 C.ar    1  UNL1        0.0016
      7 C           8.4863   -7.6053   24.9713 C.ar    1  UNL1        0.0016
      8 C           8.4126   -6.6948   23.7815 C.ar    1  UNL1        0.0188
      9 C           7.6249   -5.4207   23.8599 C.ar    1  UNL1        0.0801
     10 N           6.0053   -2.0366   22.8648 N.pl3   1  UNL1       -0.2781
     11 C           6.7836   -0.7648   22.7004 C.3     1  UNL1        0.0950
     12 C           5.9017    0.2322   22.0088 C.3     1  UNL1        0.0392
     13 C           4.5784   -0.4234   21.7458 C.3     1  UNL1        0.0792
     14 C           4.6425   -1.8255   22.2748 C.3     1  UNL1        0.1095
     15 N           3.3982    0.2117   21.0721 N.3     1  UNL1       -0.2699
     16 C           3.4433    1.6615   20.6898 C.3     1  UNL1        0.0897
     17 C           2.1730   -0.6030   20.7806 C.3     1  UNL1        0.0897
     18 C           7.8979   -4.2896   21.4534 C.3     1  UNL1        0.1354
     19 C           5.4496   -2.3846   18.1936 C.ar    1  UNL1        0.1387
     20 C           4.9391   -3.6065   18.8983 C.ar    1  UNL1        0.0366
     21 C           5.7553   -4.2414   19.9849 C.ar    1  UNL1        0.0007
     22 C           7.0819   -3.6546   20.3669 C.ar    1  UNL1        0.0007
     23 C           7.5922   -2.4327   19.6621 C.ar    1  UNL1        0.0007
     24 C           6.7761   -1.7978   18.5755 C.ar    1  UNL1        0.0366
     25 C           3.7996   -0.5389   17.4053 C.3     1  UNL1        0.2525
     26 O           4.6334   -1.7497   17.1070 O.3     1  UNL1       -0.4714
@<TRIPOS>BOND
     1    25    26    1
     2    26    19    1
     3    19    20   ar
     4    20    21   ar
     5    21    22   ar
     6    22    18    1
     7    18     1    1
     8     1     2   ar
     9     2    10    1
    10    10    11    1
    11    11    12    1
    12    12    13    1
    13    13    15    1
    14    15    16    1
    15    15    17    1
    16    13    14    1
    17     2     3   ar
    18     3     4   ar
    19     4     5   ar
    20     5     6   ar
    21     6     7   ar
    22     7     8   ar
    23     8     9   ar
    24    22    23   ar
    25    23    24   ar
    26    24    19   ar
    27     9     1   ar
    28    14    10    1
    29     9     4   ar
