@<TRIPOS>MOLECULE
*****
 26 28 0 0 0
SMALL
GASTEIGER

@<TRIPOS>ATOM
      1 C          -7.4288  -19.2500   20.5173 C.2     1  UNL1        0.2493
      2 O          -7.9713  -20.2244   19.5142 O.2     1  UNL1       -0.2699
      3 N          -8.3610  -18.3340   21.2534 N.am    1  UNL1       -0.2694
      4 N           0.2671  -18.1176   19.4615 N.pl3   1  UNL1       -0.3375
      5 C          -1.1268  -18.4159   19.9285 C.ar    1  UNL1        0.1567
      6 N          -1.5130  -18.9149   21.2893 N.ar    1  UNL1       -0.2245
      7 C          -3.0041  -19.0750   21.3185 C.ar    1  UNL1        0.0892
      8 C          -3.9435  -19.5333   22.3943 C.ar    1  UNL1        0.0198
      9 C          -5.4184  -19.5917   22.1272 C.ar    1  UNL1        0.0061
     10 C          -5.9538  -19.1917   20.7843 C.ar    1  UNL1        0.0542
     11 C          -5.0144  -18.7333   19.7085 C.ar    1  UNL1        0.0126
     12 C          -3.5396  -18.6750   19.9756 C.ar    1  UNL1        0.0498
     13 S          -2.3793  -18.2676   19.1166 S.2     1  UNL1       -0.0520
     14 H           1.0289  -18.2470   20.0716 H       1  UNL1        0.1442
     15 H           0.4202  -17.7923   18.5450 H       1  UNL1        0.1442
     16 C          -7.8184  -17.3597   22.2565 C.3     1  UNL1        0.1257
     17 C          -8.3473  -15.9566   22.3012 C.3     1  UNL1        0.1586
     18 O          -8.0105  -14.9928   21.2022 O.3     1  UNL1       -0.3802
     19 H          -7.0584  -14.8079   21.2148 H       1  UNL1        0.2105
     20 C          -9.8360  -18.3924   20.9863 C.3     1  UNL1        0.1205
     21 C         -10.8045  -18.4287   22.1311 C.ar    1  UNL1       -0.0023
     22 C         -12.1187  -17.7135   22.0246 C.ar    1  UNL1       -0.0026
     23 C         -13.0873  -17.7498   23.1693 C.ar    1  UNL1       -0.0003
     24 C         -12.7417  -18.5013   24.4207 C.ar    1  UNL1       -0.0000
     25 C         -11.4275  -19.2165   24.5272 C.ar    1  UNL1       -0.0003
     26 C         -10.4589  -19.1802   23.3824 C.ar    1  UNL1       -0.0026
@<TRIPOS>BOND
     1     4     5    1
     2     5     6   ar
     3     6     7   ar
     4     7     8   ar
     5     8     9   ar
     6     9    10   ar
     7    10     1    1
     8     1     2    2
     9     1     3   am
    10     3    16    1
    11    16    17    1
    12    17    18    1
    13     3    20    1
    14    20    21    1
    15    21    22   ar
    16    22    23   ar
    17    23    24   ar
    18    24    25   ar
    19    25    26   ar
    20    10    11   ar
    21    11    12   ar
    22    12    13   ar
    23    13     5   ar
    24    12     7   ar
    25    26    21   ar
    26     4    14    1
    27     4    15    1
    28    18    19    1
@<TRIPOS>MOLECULE
*****
 26 28 0 0 0
SMALL
GASTEIGER

@<TRIPOS>ATOM
      1 C          -7.2346  -19.1012   22.4653 C.2     1  UNL1        0.2493
      2 O          -7.7570  -20.4663   22.8025 O.2     1  UNL1       -0.2699
      3 N          -7.9681  -17.8802   22.9354 N.am    1  UNL1       -0.2694
      4 N           0.2672  -17.7573   20.5839 N.pl3   1  UNL1       -0.3375
      5 C          -1.1983  -18.0675   20.6622 C.ar    1  UNL1        0.1567
      6 N          -2.0810  -18.4514   19.5118 N.ar    1  UNL1       -0.2245
      7 C          -3.4666  -18.6693   20.0433 C.ar    1  UNL1        0.0892
      8 C          -4.7489  -19.0625   19.3717 C.ar    1  UNL1        0.0198
      9 C          -6.0049  -19.2065   20.1791 C.ar    1  UNL1        0.0061
     10 C          -5.9785  -18.9573   21.6580 C.ar    1  UNL1        0.0542
     11 C          -4.6962  -18.5641   22.3296 C.ar    1  UNL1        0.0126
     12 C          -3.4403  -18.4201   21.5223 C.ar    1  UNL1        0.0498
     13 S          -2.0384  -18.0482   21.9047 S.2     1  UNL1       -0.0520
     14 H           0.7332  -17.7972   19.7175 H       1  UNL1        0.1442
     15 H           0.7631  -17.5139   21.3988 H       1  UNL1        0.1442
     16 C          -7.4456  -16.5152   22.5982 C.3     1  UNL1        0.1257
     17 C          -6.8079  -15.6722   23.6626 C.3     1  UNL1        0.1586
     18 O          -5.6448  -14.7882   23.3226 O.3     1  UNL1       -0.3802
     19 H          -4.8845  -15.3361   23.0723 H       1  UNL1        0.2105
     20 C          -9.2241  -18.0242   23.7427 C.3     1  UNL1        0.1205
     21 C         -10.5620  -17.9405   23.0697 C.ar    1  UNL1       -0.0023
     22 C         -11.8183  -18.0264   23.8848 C.ar    1  UNL1       -0.0026
     23 C         -13.1562  -17.9426   23.2118 C.ar    1  UNL1       -0.0003
     24 C         -13.2378  -17.7730   21.7236 C.ar    1  UNL1       -0.0000
     25 C         -11.9815  -17.6870   20.9085 C.ar    1  UNL1       -0.0003
     26 C         -10.6436  -17.7708   21.5816 C.ar    1  UNL1       -0.0026
@<TRIPOS>BOND
     1     4     5    1
     2     5     6   ar
     3     6     7   ar
     4     7     8   ar
     5     8     9   ar
     6     9    10   ar
     7    10     1    1
     8     1     2    2
     9     1     3   am
    10     3    16    1
    11    16    17    1
    12    17    18    1
    13     3    20    1
    14    20    21    1
    15    21    22   ar
    16    22    23   ar
    17    23    24   ar
    18    24    25   ar
    19    25    26   ar
    20    10    11   ar
    21    11    12   ar
    22    12    13   ar
    23    13     5   ar
    24    12     7   ar
    25    26    21   ar
    26     4    14    1
    27     4    15    1
    28    18    19    1
@<TRIPOS>MOLECULE
*****
 26 28 0 0 0
SMALL
GASTEIGER

@<TRIPOS>ATOM
      1 C          -7.9647  -19.9498   21.6518 C.2     1  UNL1        0.2493
      2 O          -8.3437  -20.1030   23.0950 O.2     1  UNL1       -0.2699
      3 N          -9.0321  -19.8414   20.6035 N.am    1  UNL1       -0.2694
      4 N          -0.5091  -17.5717   21.0333 N.pl3   1  UNL1       -0.3375
      5 C          -1.8492  -18.2438   20.9830 C.ar    1  UNL1        0.1567
      6 N          -2.1744  -19.5079   20.2440 N.ar    1  UNL1       -0.2245
      7 C          -3.6256  -19.8152   20.4671 C.ar    1  UNL1        0.0892
      8 C          -4.5002  -20.9343   19.9850 C.ar    1  UNL1        0.0198
      9 C          -5.9466  -20.9792   20.3799 C.ar    1  UNL1        0.0061
     10 C          -6.5183  -19.9049   21.2569 C.ar    1  UNL1        0.0542
     11 C          -5.6436  -18.7857   21.7389 C.ar    1  UNL1        0.0126
     12 C          -4.1973  -18.7409   21.3440 C.ar    1  UNL1        0.0498
     13 S          -3.0994  -17.7697   21.6629 S.2     1  UNL1       -0.0520
     14 H           0.2556  -17.9618   20.5514 H       1  UNL1        0.1442
     15 H          -0.3943  -16.7406   21.5483 H       1  UNL1        0.1442
     16 C          -8.6531  -19.6882   19.1603 C.3     1  UNL1        0.1257
     17 C          -9.2416  -20.6047   18.1289 C.3     1  UNL1        0.1586
     18 O          -8.5976  -21.9300   17.8483 O.3     1  UNL1       -0.3802
     19 H          -7.7213  -21.7874   17.4576 H       1  UNL1        0.2105
     20 C         -10.4785  -19.8863   20.9984 C.3     1  UNL1        0.1205
     21 C         -11.1707  -18.6361   21.4542 C.ar    1  UNL1       -0.0023
     22 C         -11.2192  -17.4357   20.5560 C.ar    1  UNL1       -0.0026
     23 C         -11.9114  -16.1855   21.0118 C.ar    1  UNL1       -0.0003
     24 C         -12.5551  -16.1356   22.3658 C.ar    1  UNL1       -0.0000
     25 C         -12.5065  -17.3360   23.2640 C.ar    1  UNL1       -0.0003
     26 C         -11.8143  -18.5863   22.8081 C.ar    1  UNL1       -0.0026
@<TRIPOS>BOND
     1     4     5    1
     2     5     6   ar
     3     6     7   ar
     4     7     8   ar
     5     8     9   ar
     6     9    10   ar
     7    10     1    1
     8     1     2    2
     9     1     3   am
    10     3    16    1
    11    16    17    1
    12    17    18    1
    13     3    20    1
    14    20    21    1
    15    21    22   ar
    16    22    23   ar
    17    23    24   ar
    18    24    25   ar
    19    25    26   ar
    20    10    11   ar
    21    11    12   ar
    22    12    13   ar
    23    13     5   ar
    24    12     7   ar
    25    26    21   ar
    26     4    14    1
    27     4    15    1
    28    18    19    1
@<TRIPOS>MOLECULE
*****
 26 28 0 0 0
SMALL
GASTEIGER

@<TRIPOS>ATOM
      1 C          -5.9242  -16.7936   23.7828 C.2     1  UNL1        0.2493
      2 O          -5.6950  -16.0645   25.0735 O.2     1  UNL1       -0.2699
      3 N          -7.3155  -16.9430   23.2426 N.am    1  UNL1       -0.2694
      4 N           0.7550  -17.3139   19.6913 N.pl3   1  UNL1       -0.3375
      5 C          -0.5240  -17.5016   20.4522 C.ar    1  UNL1        0.1567
      6 N          -1.1875  -18.8132   20.7513 N.ar    1  UNL1       -0.2245
      7 C          -2.4377  -18.5330   21.5315 C.ar    1  UNL1        0.0892
      8 C          -3.4907  -19.4380   22.0989 C.ar    1  UNL1        0.0198
      9 C          -4.6529  -18.8582   22.8493 C.ar    1  UNL1        0.0061
     10 C          -4.7620  -17.3734   23.0323 C.ar    1  UNL1        0.0542
     11 C          -3.7089  -16.4684   22.4650 C.ar    1  UNL1        0.0126
     12 C          -2.5467  -17.0482   21.7145 C.ar    1  UNL1        0.0498
     13 S          -1.3640  -16.4108   21.0475 S.2     1  UNL1       -0.0520
     14 H           1.2367  -18.0962   19.3376 H       1  UNL1        0.1442
     15 H           1.1127  -16.4083   19.5457 H       1  UNL1        0.1442
     16 C          -7.5447  -17.6720   21.9519 C.3     1  UNL1        0.1257
     17 C          -8.0043  -19.0999   21.9684 C.3     1  UNL1        0.1586
     18 O          -9.3625  -19.4567   21.4411 O.3     1  UNL1       -0.3802
     19 H         -10.0434  -19.0604   22.0070 H       1  UNL1        0.2105
     20 C          -8.4778  -16.3632   23.9931 C.3     1  UNL1        0.1205
     21 C          -9.8455  -16.9581   23.8336 C.ar    1  UNL1       -0.0023
     22 C         -10.2344  -18.1684   24.6298 C.ar    1  UNL1       -0.0026
     23 C         -11.6021  -18.7632   24.4703 C.ar    1  UNL1       -0.0003
     24 C         -12.5810  -18.1478   23.5146 C.ar    1  UNL1       -0.0000
     25 C         -12.1920  -16.9375   22.7185 C.ar    1  UNL1       -0.0003
     26 C         -10.8242  -16.3426   22.8780 C.ar    1  UNL1       -0.0026
@<TRIPOS>BOND
     1     4     5    1
     2     5     6   ar
     3     6     7   ar
     4     7     8   ar
     5     8     9   ar
     6     9    10   ar
     7    10     1    1
     8     1     2    2
     9     1     3   am
    10     3    16    1
    11    16    17    1
    12    17    18    1
    13     3    20    1
    14    20    21    1
    15    21    22   ar
    16    22    23   ar
    17    23    24   ar
    18    24    25   ar
    19    25    26   ar
    20    10    11   ar
    21    11    12   ar
    22    12    13   ar
    23    13     5   ar
    24    12     7   ar
    25    26    21   ar
    26     4    14    1
    27     4    15    1
    28    18    19    1
@<TRIPOS>MOLECULE
*****
 26 28 0 0 0
SMALL
GASTEIGER

@<TRIPOS>ATOM
      1 C         -13.1371   -7.1330   17.9624 C.2     1  UNL1        0.2493
      2 O         -12.0001   -7.7773   17.2260 O.2     1  UNL1       -0.2699
      3 N         -12.8654   -6.0405   18.9537 N.am    1  UNL1       -0.2694
      4 N         -19.7282  -11.3907   18.1899 N.pl3   1  UNL1       -0.3375
      5 C         -18.6198  -10.4035   17.9734 C.ar    1  UNL1        0.1567
      6 N         -18.6943   -9.1651   17.1303 N.ar    1  UNL1       -0.2245
      7 C         -17.3628   -8.4775   17.1977 C.ar    1  UNL1        0.0892
      8 C         -16.8517   -7.2159   16.5678 C.ar    1  UNL1        0.0198
      9 C         -15.4431   -6.7677   16.8227 C.ar    1  UNL1        0.0061
     10 C         -14.5457   -7.5812   17.7075 C.ar    1  UNL1        0.0542
     11 C         -15.0569   -8.8429   18.3375 C.ar    1  UNL1        0.0126
     12 C         -16.4654   -9.2910   18.0826 C.ar    1  UNL1        0.0498
     13 S         -17.2423  -10.4813   18.5619 S.2     1  UNL1       -0.0520
     14 H         -20.6020  -11.2522   17.7580 H       1  UNL1        0.1442
     15 H         -19.5819  -12.1770   18.7639 H       1  UNL1        0.1442
     16 C         -14.0023   -5.3962   19.6901 C.3     1  UNL1        0.1257
     17 C         -13.8040   -4.0711   20.3646 C.3     1  UNL1        0.1586
     18 O         -14.4163   -3.8152   21.7098 O.3     1  UNL1       -0.3802
     19 H         -15.3830   -3.8136   21.6300 H       1  UNL1        0.2105
     20 C         -11.4567   -5.5923   19.2086 C.3     1  UNL1        0.1205
     21 C         -10.7601   -4.7079   18.2174 C.ar    1  UNL1       -0.0023
     22 C          -9.5431   -5.2045   17.4946 C.ar    1  UNL1       -0.0026
     23 C          -8.8465   -4.3201   16.5034 C.ar    1  UNL1       -0.0003
     24 C          -9.3669   -2.9391   16.2349 C.ar    1  UNL1       -0.0000
     25 C         -10.5839   -2.4425   16.9576 C.ar    1  UNL1       -0.0003
     26 C         -11.2805   -3.3270   17.9488 C.ar    1  UNL1       -0.0026
@<TRIPOS>BOND
     1     4     5    1
     2     5     6   ar
     3     6     7   ar
     4     7     8   ar
     5     8     9   ar
     6     9    10   ar
     7    10     1    1
     8     1     2    2
     9     1     3   am
    10     3    16    1
    11    16    17    1
    12    17    18    1
    13     3    20    1
    14    20    21    1
    15    21    22   ar
    16    22    23   ar
    17    23    24   ar
    18    24    25   ar
    19    25    26   ar
    20    10    11   ar
    21    11    12   ar
    22    12    13   ar
    23    13     5   ar
    24    12     7   ar
    25    26    21   ar
    26     4    14    1
    27     4    15    1
    28    18    19    1
@<TRIPOS>MOLECULE
*****
 26 28 0 0 0
SMALL
GASTEIGER

@<TRIPOS>ATOM
      1 C         -13.9113   -5.7572   19.6865 C.2     1  UNL1        0.2493
      2 O         -13.7160   -5.0819   21.0116 O.2     1  UNL1       -0.2699
      3 N         -12.7877   -5.7998   18.6937 N.am    1  UNL1       -0.2694
      4 N         -19.3265  -11.1871   18.0091 N.pl3   1  UNL1       -0.3375
      5 C         -18.5108   -9.9640   18.3066 C.ar    1  UNL1        0.1567
      6 N         -19.0221   -8.5549   18.3610 N.ar    1  UNL1       -0.2245
      7 C         -17.8678   -7.6553   18.6901 C.ar    1  UNL1        0.0892
      8 C         -17.7737   -6.1695   18.8733 C.ar    1  UNL1        0.0198
      9 C         -16.4549   -5.5369   19.2054 C.ar    1  UNL1        0.0061
     10 C         -15.2301   -6.3899   19.3544 C.ar    1  UNL1        0.0542
     11 C         -15.3242   -7.8757   19.1711 C.ar    1  UNL1        0.0126
     12 C         -16.6430   -8.5084   18.8390 C.ar    1  UNL1        0.0498
     13 S         -17.0404   -9.9352   18.6020 S.2     1  UNL1       -0.0520
     14 H         -20.2904  -11.1036   17.8268 H       1  UNL1        0.1442
     15 H         -18.8981  -12.0734   17.9961 H       1  UNL1        0.1442
     16 C         -12.9830   -6.4751   17.3686 C.3     1  UNL1        0.1257
     17 C         -12.1199   -7.6410   16.9866 C.3     1  UNL1        0.1586
     18 O         -11.0952   -8.1630   17.9497 O.3     1  UNL1       -0.3802
     19 H         -10.4091   -7.4912   18.0874 H       1  UNL1        0.2105
     20 C         -11.4689   -5.1671   19.0258 C.3     1  UNL1        0.1205
     21 C         -10.7714   -4.3102   18.0113 C.ar    1  UNL1       -0.0023
     22 C         -11.2702   -2.9237   17.7306 C.ar    1  UNL1       -0.0026
     23 C         -10.5728   -2.0668   16.7161 C.ar    1  UNL1       -0.0003
     24 C          -9.3765   -2.5964   15.9822 C.ar    1  UNL1       -0.0000
     25 C          -8.8777   -3.9829   16.2629 C.ar    1  UNL1       -0.0003
     26 C          -9.5752   -4.8398   17.2775 C.ar    1  UNL1       -0.0026
@<TRIPOS>BOND
     1     4     5    1
     2     5     6   ar
     3     6     7   ar
     4     7     8   ar
     5     8     9   ar
     6     9    10   ar
     7    10     1    1
     8     1     2    2
     9     1     3   am
    10     3    16    1
    11    16    17    1
    12    17    18    1
    13     3    20    1
    14    20    21    1
    15    21    22   ar
    16    22    23   ar
    17    23    24   ar
    18    24    25   ar
    19    25    26   ar
    20    10    11   ar
    21    11    12   ar
    22    12    13   ar
    23    13     5   ar
    24    12     7   ar
    25    26    21   ar
    26     4    14    1
    27     4    15    1
    28    18    19    1
@<TRIPOS>MOLECULE
*****
 26 28 0 0 0
SMALL
GASTEIGER

@<TRIPOS>ATOM
      1 C         -13.2406   -6.0325   19.4220 C.2     1  UNL1        0.2493
      2 O         -13.6083   -4.9486   20.3915 O.2     1  UNL1       -0.2699
      3 N         -11.8694   -6.0622   18.8147 N.am    1  UNL1       -0.2694
      4 N         -19.9618  -10.0724   19.0633 N.pl3   1  UNL1       -0.3375
      5 C         -18.5773   -9.5052   18.9559 C.ar    1  UNL1        0.1567
      6 N         -17.4473  -10.0830   18.1563 N.ar    1  UNL1       -0.2245
      7 C         -16.2514   -9.1955   18.3355 C.ar    1  UNL1        0.0892
      8 C         -14.8570   -9.2675   17.7873 C.ar    1  UNL1        0.0198
      9 C         -13.8535   -8.2132   18.1495 C.ar    1  UNL1        0.0061
     10 C         -14.2443   -7.0869   19.0599 C.ar    1  UNL1        0.0542
     11 C         -15.6386   -7.0149   19.6080 C.ar    1  UNL1        0.0126
     12 C         -16.6422   -8.0692   19.2458 C.ar    1  UNL1        0.0498
     13 S         -18.0797   -8.2606   19.6292 S.2     1  UNL1       -0.0520
     14 H         -20.1940  -10.8987   18.5811 H       1  UNL1        0.1442
     15 H         -20.6383   -9.6183   19.6159 H       1  UNL1        0.1442
     16 C         -11.5017   -7.1461   17.8453 C.3     1  UNL1        0.1257
     17 C         -10.1451   -7.7828   17.9112 C.3     1  UNL1        0.1586
     18 O          -9.6382   -8.3351   19.2104 O.3     1  UNL1       -0.3802
     19 H          -9.5080   -7.6099   19.8412 H       1  UNL1        0.2105
     20 C         -10.8657   -5.0078   19.1769 C.3     1  UNL1        0.1205
     21 C         -10.7225   -3.7835   18.3222 C.ar    1  UNL1       -0.0023
     22 C         -11.3959   -2.5049   18.7246 C.ar    1  UNL1       -0.0026
     23 C         -11.2526   -1.2807   17.8699 C.ar    1  UNL1       -0.0003
     24 C         -10.4360   -1.3349   16.6127 C.ar    1  UNL1       -0.0000
     25 C          -9.7627   -2.6135   16.2104 C.ar    1  UNL1       -0.0003
     26 C          -9.9060   -3.8378   17.0652 C.ar    1  UNL1       -0.0026
@<TRIPOS>BOND
     1     4     5    1
     2     5     6   ar
     3     6     7   ar
     4     7     8   ar
     5     8     9   ar
     6     9    10   ar
     7    10     1    1
     8     1     2    2
     9     1     3   am
    10     3    16    1
    11    16    17    1
    12    17    18    1
    13     3    20    1
    14    20    21    1
    15    21    22   ar
    16    22    23   ar
    17    23    24   ar
    18    24    25   ar
    19    25    26   ar
    20    10    11   ar
    21    11    12   ar
    22    12    13   ar
    23    13     5   ar
    24    12     7   ar
    25    26    21   ar
    26     4    14    1
    27     4    15    1
    28    18    19    1
@<TRIPOS>MOLECULE
*****
 26 28 0 0 0
SMALL
GASTEIGER

@<TRIPOS>ATOM
      1 C           5.0415    0.2654   35.6990 C.2     1  UNL1        0.2493
      2 O           5.6918    0.0764   37.0374 O.2     1  UNL1       -0.2699
      3 N           4.1282    1.4324   35.4670 N.am    1  UNL1       -0.2694
      4 N           8.6360   -3.5191   29.8355 N.pl3   1  UNL1       -0.3375
      5 C           7.7348   -2.9821   30.9076 C.ar    1  UNL1        0.1567
      6 N           6.3680   -3.4964   31.2499 N.ar    1  UNL1       -0.2245
      7 C           5.8306   -2.6687   32.3796 C.ar    1  UNL1        0.0892
      8 C           4.5328   -2.7166   33.1301 C.ar    1  UNL1        0.0198
      9 C           4.2698   -1.7386   34.2365 C.ar    1  UNL1        0.0061
     10 C           5.3046   -0.7127   34.5924 C.ar    1  UNL1        0.0542
     11 C           6.6024   -0.6647   33.8419 C.ar    1  UNL1        0.0126
     12 C           6.8654   -1.6428   32.7355 C.ar    1  UNL1        0.0498
     13 S           8.0423   -1.8365   31.8258 S.2     1  UNL1       -0.0520
     14 H           8.3436   -4.2785   29.2813 H       1  UNL1        0.1442
     15 H           9.5199   -3.1122   29.6860 H       1  UNL1        0.1442
     16 C           3.4779    1.6215   34.1286 C.3     1  UNL1        0.1257
     17 C           2.1166    2.2449   34.0375 C.3     1  UNL1        0.1586
     18 O           1.1393    1.7648   33.0057 O.3     1  UNL1       -0.3802
     19 H           1.4742    1.9761   32.1202 H       1  UNL1        0.2105
     20 C           3.8651    2.4105   36.5735 C.3     1  UNL1        0.1205
     21 C           2.7621    2.1519   37.5565 C.ar    1  UNL1       -0.0023
     22 C           2.6706    0.8245   38.2492 C.ar    1  UNL1       -0.0026
     23 C           1.5676    0.5660   39.2323 C.ar    1  UNL1       -0.0003
     24 C           0.5559    1.6348   39.5227 C.ar    1  UNL1       -0.0000
     25 C           0.6474    2.9621   38.8300 C.ar    1  UNL1       -0.0003
     26 C           1.7505    3.2207   37.8469 C.ar    1  UNL1       -0.0026
@<TRIPOS>BOND
     1     4     5    1
     2     5     6   ar
     3     6     7   ar
     4     7     8   ar
     5     8     9   ar
     6     9    10   ar
     7    10     1    1
     8     1     2    2
     9     1     3   am
    10     3    16    1
    11    16    17    1
    12    17    18    1
    13     3    20    1
    14    20    21    1
    15    21    22   ar
    16    22    23   ar
    17    23    24   ar
    18    24    25   ar
    19    25    26   ar
    20    10    11   ar
    21    11    12   ar
    22    12    13   ar
    23    13     5   ar
    24    12     7   ar
    25    26    21   ar
    26     4    14    1
    27     4    15    1
    28    18    19    1
@<TRIPOS>MOLECULE
*****
 26 28 0 0 0
SMALL
GASTEIGER

@<TRIPOS>ATOM
      1 C         -13.1114   -4.2521   19.6138 C.2     1  UNL1        0.2493
      2 O         -13.6288   -3.6193   20.8716 O.2     1  UNL1       -0.2699
      3 N         -12.1801   -3.4895   18.7189 N.am    1  UNL1       -0.2694
      4 N         -17.4920  -10.7097   18.7581 N.pl3   1  UNL1       -0.3375
      5 C         -16.4486   -9.6328   18.7963 C.ar    1  UNL1        0.1567
      6 N         -15.0431   -9.7483   18.2854 N.ar    1  UNL1       -0.2245
      7 C         -14.3533   -8.4381   18.5255 C.ar    1  UNL1        0.0892
      8 C         -12.9601   -7.9682   18.2290 C.ar    1  UNL1        0.0198
      9 C         -12.5461   -6.5728   18.5918 C.ar    1  UNL1        0.0061
     10 C         -13.5254   -5.6475   19.2511 C.ar    1  UNL1        0.0542
     11 C         -14.9187   -6.1174   19.5476 C.ar    1  UNL1        0.0126
     12 C         -15.3326   -7.5128   19.1848 C.ar    1  UNL1        0.0498
     13 S         -16.6276   -8.2511   19.3522 S.2     1  UNL1       -0.0520
     14 H         -17.2778  -11.5891   18.3708 H       1  UNL1        0.1442
     15 H         -18.3911  -10.5372   19.1203 H       1  UNL1        0.1442
     16 C         -11.6627   -4.1222   17.4611 C.3     1  UNL1        0.1257
     17 C         -10.1882   -4.1484   17.1864 C.3     1  UNL1        0.1586
     18 O          -9.4854   -2.8990   16.7447 O.3     1  UNL1       -0.3802
     19 H          -9.8092   -2.6385   15.8682 H       1  UNL1        0.2105
     20 C         -11.7661   -2.0941   19.0816 C.3     1  UNL1        0.1205
     21 C         -12.4228   -0.9204   18.4175 C.ar    1  UNL1       -0.0023
     22 C         -13.8778   -0.6424   18.6536 C.ar    1  UNL1       -0.0026
     23 C         -14.5345    0.5314   17.9895 C.ar    1  UNL1       -0.0003
     24 C         -13.7362    1.4272   17.0893 C.ar    1  UNL1       -0.0000
     25 C         -12.2812    1.1492   16.8532 C.ar    1  UNL1       -0.0003
     26 C         -11.6245   -0.0246   17.5174 C.ar    1  UNL1       -0.0026
@<TRIPOS>BOND
     1     4     5    1
     2     5     6   ar
     3     6     7   ar
     4     7     8   ar
     5     8     9   ar
     6     9    10   ar
     7    10     1    1
     8     1     2    2
     9     1     3   am
    10     3    16    1
    11    16    17    1
    12    17    18    1
    13     3    20    1
    14    20    21    1
    15    21    22   ar
    16    22    23   ar
    17    23    24   ar
    18    24    25   ar
    19    25    26   ar
    20    10    11   ar
    21    11    12   ar
    22    12    13   ar
    23    13     5   ar
    24    12     7   ar
    25    26    21   ar
    26     4    14    1
    27     4    15    1
    28    18    19    1
