@<TRIPOS>MOLECULE
*****
 33 37 0 0 0
SMALL
GASTEIGER

@<TRIPOS>ATOM
      1 C           7.1311   -3.8895   21.5697 C.3     1  UNL1        0.0782
      2 C           6.4822   -3.8520   22.9216 C.3     1  UNL1        0.0372
      3 C           7.0528   -4.6589   24.0501 C.3     1  UNL1        0.0741
      4 N           8.2723   -5.5033   23.8266 N.3     1  UNL1       -0.2671
      5 C           8.9212   -5.5408   22.4747 C.3     1  UNL1        0.0741
      6 C           8.3506   -4.7339   21.3463 C.3     1  UNL1        0.0372
      7 C           7.0604   -1.6916   20.1862 C.3     1  UNL1        0.1148
      8 N           6.5605   -3.0826   20.4412 N.am    1  UNL1       -0.2790
      9 C           5.4901   -3.6668   19.5679 C.2     1  UNL1        0.2301
     10 O           4.9902   -5.0580   19.8230 O.2     1  UNL1       -0.2745
     11 C           4.9195   -2.8600   18.4394 C.3     1  UNL1        0.1116
     12 C           3.8517   -1.8419   18.7103 C.ar    1  UNL1       -0.0130
     13 C           3.0116   -1.9474   19.9484 C.ar    1  UNL1       -0.0022
     14 C           1.9439   -0.9293   20.2193 C.ar    1  UNL1        0.0190
     15 C           1.7162    0.1943   19.2520 C.ar    1  UNL1        0.0862
     16 C           2.5563    0.2998   18.0139 C.ar    1  UNL1        0.0190
     17 C           3.6241   -0.7183   17.7430 C.ar    1  UNL1       -0.0022
     18 N           0.6485    1.2124   19.5229 N.ar    1  UNL1       -0.1886
     19 C           0.3866    2.4509   18.7182 C.ar    1  UNL1        0.2258
     20 N          -0.7686    3.1747   19.3440 N.ar    1  UNL1       -0.1045
     21 N          -1.2208    2.3835   20.5354 N.ar    1  UNL1       -0.0222
     22 N          -0.3450    1.1707   20.6460 N.ar    1  UNL1       -0.0385
     23 C           8.8429   -6.3102   24.9550 C.3     1  UNL1        0.1255
     24 C           8.6301   -5.8712   26.3735 C.ar    1  UNL1        0.1044
     25 N           7.5296   -6.3309   27.2831 N.ar    1  UNL1       -0.2412
     26 C           7.6998   -5.6392   28.6032 C.ar    1  UNL1        0.0898
     27 C           6.9127   -5.7026   29.8784 C.ar    1  UNL1        0.0492
     28 C           7.3314   -4.8789   31.0600 C.ar    1  UNL1        0.1417
     29 F           6.5442   -4.9423   32.3353 F       1  UNL1       -0.2041
     30 C           8.5372   -3.9917   30.9662 C.ar    1  UNL1        0.0302
     31 C           9.3244   -3.9282   29.6910 C.ar    1  UNL1        0.0103
     32 C           8.9057   -4.7520   28.5095 C.ar    1  UNL1        0.0484
     33 S           9.4806   -4.8954   27.1314 S.2     1  UNL1       -0.0694
@<TRIPOS>BOND
     1     7     8    1
     2     8     9   am
     3     9    10    2
     4     9    11    1
     5    11    12    1
     6    12    13   ar
     7    13    14   ar
     8    14    15   ar
     9    15    18    1
    10    18    19   ar
    11    19    20   ar
    12    20    21   ar
    13    21    22   ar
    14    15    16   ar
    15    16    17   ar
    16     8     1    1
    17     1     2    1
    18     2     3    1
    19     3     4    1
    20     4    23    1
    21    23    24    1
    22    24    25   ar
    23    25    26   ar
    24    26    27   ar
    25    27    28   ar
    26    28    29    1
    27    28    30   ar
    28    30    31   ar
    29    31    32   ar
    30    32    33   ar
    31     4     5    1
    32     5     6    1
    33    17    12   ar
    34     6     1    1
    35    22    18   ar
    36    33    24   ar
    37    32    26   ar
@<TRIPOS>MOLECULE
*****
 33 37 0 0 0
SMALL
GASTEIGER

@<TRIPOS>ATOM
      1 C           7.7498   -4.3085   24.4980 C.3     1  UNL1        0.0782
      2 C           6.3704   -3.7753   24.2470 C.3     1  UNL1        0.0372
      3 C           5.8447   -3.6853   22.8450 C.3     1  UNL1        0.0741
      4 N           6.6984   -4.1286   21.6940 N.3     1  UNL1       -0.2671
      5 C           8.0778   -4.6618   21.9451 C.3     1  UNL1        0.0741
      6 C           8.6035   -4.7518   23.3471 C.3     1  UNL1        0.0372
      7 C           9.3696   -3.4771   26.3514 C.3     1  UNL1        0.1148
      8 N           8.2755   -4.3985   25.9001 N.am    1  UNL1       -0.2790
      9 C           7.7069   -5.4100   26.8507 C.2     1  UNL1        0.2301
     10 O           6.6127   -6.3315   26.3993 O.2     1  UNL1       -0.2745
     11 C           8.2326   -5.5000   28.2527 C.3     1  UNL1        0.1116
     12 C           7.5602   -4.7383   29.3562 C.ar    1  UNL1       -0.0130
     13 C           6.9085   -3.4185   29.0675 C.ar    1  UNL1       -0.0022
     14 C           6.2362   -2.6567   30.1709 C.ar    1  UNL1        0.0190
     15 C           6.2155   -3.2147   31.5631 C.ar    1  UNL1        0.0862
     16 C           6.8671   -4.5345   31.8518 C.ar    1  UNL1        0.0190
     17 C           7.5395   -5.2963   30.7483 C.ar    1  UNL1       -0.0022
     18 N           5.5431   -2.4529   32.6665 N.ar    1  UNL1       -0.1886
     19 C           6.1422   -1.3227   33.4498 C.ar    1  UNL1        0.2258
     20 N           5.1229   -0.8589   34.4478 N.ar    1  UNL1       -0.1045
     21 N           3.8939   -1.7025   34.2814 N.ar    1  UNL1       -0.0222
     22 N           4.1536   -2.6877   33.1805 N.ar    1  UNL1       -0.0385
     23 C           6.1728   -4.0386   20.2921 C.3     1  UNL1        0.1255
     24 C           5.1728   -2.9800   19.9325 C.ar    1  UNL1        0.1044
     25 N           3.8034   -2.8232   20.5243 N.ar    1  UNL1       -0.2412
     26 C           3.1509   -1.6386   19.8756 C.ar    1  UNL1        0.0898
     27 C           1.8018   -1.0095   20.0606 C.ar    1  UNL1        0.0492
     28 C           1.4188    0.1949   19.2528 C.ar    1  UNL1        0.1417
     29 F           0.0697    0.8241   19.4378 F       1  UNL1       -0.2041
     30 C           2.3849    0.7703   18.2600 C.ar    1  UNL1        0.0302
     31 C           3.7339    0.1412   18.0750 C.ar    1  UNL1        0.0103
     32 C           4.1169   -1.0632   18.8828 C.ar    1  UNL1        0.0484
     33 S           5.3665   -1.8922   18.9180 S.2     1  UNL1       -0.0694
@<TRIPOS>BOND
     1     7     8    1
     2     8     9   am
     3     9    10    2
     4     9    11    1
     5    11    12    1
     6    12    13   ar
     7    13    14   ar
     8    14    15   ar
     9    15    18    1
    10    18    19   ar
    11    19    20   ar
    12    20    21   ar
    13    21    22   ar
    14    15    16   ar
    15    16    17   ar
    16     8     1    1
    17     1     2    1
    18     2     3    1
    19     3     4    1
    20     4    23    1
    21    23    24    1
    22    24    25   ar
    23    25    26   ar
    24    26    27   ar
    25    27    28   ar
    26    28    29    1
    27    28    30   ar
    28    30    31   ar
    29    31    32   ar
    30    32    33   ar
    31     4     5    1
    32     5     6    1
    33    17    12   ar
    34     6     1    1
    35    22    18   ar
    36    33    24   ar
    37    32    26   ar
@<TRIPOS>MOLECULE
*****
 33 37 0 0 0
SMALL
GASTEIGER

@<TRIPOS>ATOM
      1 C           5.7699   -3.6081   21.5897 C.3     1  UNL1        0.0782
      2 C           5.3418   -3.6134   23.0273 C.3     1  UNL1        0.0372
      3 C           6.3405   -3.9113   24.1062 C.3     1  UNL1        0.0741
      4 N           7.7673   -4.2038   23.7475 N.3     1  UNL1       -0.2671
      5 C           8.1954   -4.1985   22.3098 C.3     1  UNL1        0.0741
      6 C           7.1967   -3.9007   21.2310 C.3     1  UNL1        0.0372
      7 C           3.9061   -4.4078   19.9658 C.3     1  UNL1        0.1148
      8 N           4.7712   -3.3103   20.5108 N.am    1  UNL1       -0.2790
      9 C           4.6377   -1.9149   19.9769 C.2     1  UNL1        0.2301
     10 O           5.5029   -0.8173   20.5219 O.2     1  UNL1       -0.2745
     11 C           3.6391   -1.6170   18.8981 C.3     1  UNL1        0.1116
     12 C           2.5792   -0.5796   19.1227 C.ar    1  UNL1       -0.0130
     13 C           2.5256    0.6391   18.2500 C.ar    1  UNL1       -0.0022
     14 C           1.4658    1.6765   18.4747 C.ar    1  UNL1        0.0190
     15 C           0.4595    1.4952   19.5721 C.ar    1  UNL1        0.0862
     16 C           0.5131    0.2765   20.4449 C.ar    1  UNL1        0.0190
     17 C           1.5729   -0.7609   20.2202 C.ar    1  UNL1       -0.0022
     18 N          -0.6004    2.5326   19.7968 N.ar    1  UNL1       -0.1886
     19 C          -0.7931    3.7846   18.9935 C.ar    1  UNL1        0.2258
     20 N          -1.9654    4.5259   19.5645 N.ar    1  UNL1       -0.1045
     21 N          -2.4973    3.7321   20.7208 N.ar    1  UNL1       -0.0222
     22 N          -1.6536    2.5002   20.8643 N.ar    1  UNL1       -0.0385
     23 C           8.7659   -4.5016   24.8263 C.3     1  UNL1        0.1255
     24 C           8.3231   -4.5804   26.2573 C.ar    1  UNL1        0.1044
     25 N           7.7757   -3.4480   27.0744 N.ar    1  UNL1       -0.2412
     26 C           7.4642   -3.9731   28.4445 C.ar    1  UNL1        0.0898
     27 C           6.9032   -3.3128   29.6690 C.ar    1  UNL1        0.0492
     28 C           6.6972   -4.1096   30.9230 C.ar    1  UNL1        0.1417
     29 F           6.1362   -3.4493   32.1475 F       1  UNL1       -0.2041
     30 C           7.0522   -5.5667   30.9526 C.ar    1  UNL1        0.0302
     31 C           7.6131   -6.2270   29.7282 C.ar    1  UNL1        0.0103
     32 C           7.8191   -5.4302   28.4742 C.ar    1  UNL1        0.0484
     33 S           8.3500   -5.8055   27.1224 S.2     1  UNL1       -0.0694
@<TRIPOS>BOND
     1     7     8    1
     2     8     9   am
     3     9    10    2
     4     9    11    1
     5    11    12    1
     6    12    13   ar
     7    13    14   ar
     8    14    15   ar
     9    15    18    1
    10    18    19   ar
    11    19    20   ar
    12    20    21   ar
    13    21    22   ar
    14    15    16   ar
    15    16    17   ar
    16     8     1    1
    17     1     2    1
    18     2     3    1
    19     3     4    1
    20     4    23    1
    21    23    24    1
    22    24    25   ar
    23    25    26   ar
    24    26    27   ar
    25    27    28   ar
    26    28    29    1
    27    28    30   ar
    28    30    31   ar
    29    31    32   ar
    30    32    33   ar
    31     4     5    1
    32     5     6    1
    33    17    12   ar
    34     6     1    1
    35    22    18   ar
    36    33    24   ar
    37    32    26   ar
@<TRIPOS>MOLECULE
*****
 33 37 0 0 0
SMALL
GASTEIGER

@<TRIPOS>ATOM
      1 C           0.2045    2.2460   26.1524 C.3     1  UNL1        0.0782
      2 C          -0.5373    1.2857   27.0341 C.3     1  UNL1        0.0372
      3 C          -0.3378    1.3246   28.5203 C.3     1  UNL1        0.0741
      4 N           0.6036    2.3238   29.1248 N.3     1  UNL1       -0.2671
      5 C           1.3455    3.2841   28.2430 C.3     1  UNL1        0.0741
      6 C           1.1459    3.2452   26.7568 C.3     1  UNL1        0.0372
      7 C          -0.9982    3.1160   24.0201 C.3     1  UNL1        0.1148
      8 N           0.0050    2.2071   24.6662 N.am    1  UNL1       -0.2790
      9 C           0.8087    1.2593   23.8261 C.2     1  UNL1        0.2301
     10 O           1.8120    0.3505   24.4723 O.2     1  UNL1       -0.2745
     11 C           0.6093    1.2204   22.3400 C.3     1  UNL1        0.1116
     12 C           1.7022    0.7077   21.4497 C.ar    1  UNL1       -0.0130
     13 C           1.5893   -0.6545   20.8320 C.ar    1  UNL1       -0.0022
     14 C           2.6823   -1.1672   19.9417 C.ar    1  UNL1        0.0190
     15 C           3.8881   -0.3177   19.6692 C.ar    1  UNL1        0.0862
     16 C           4.0010    1.0445   20.2869 C.ar    1  UNL1        0.0190
     17 C           2.9080    1.5572   21.1772 C.ar    1  UNL1       -0.0022
     18 N           4.9810   -0.8304   18.7789 N.ar    1  UNL1       -0.1886
     19 C           5.2288   -2.2668   18.4247 C.ar    1  UNL1        0.2258
     20 N           6.4190   -2.3209   17.5134 N.ar    1  UNL1       -0.1045
     21 N           6.9069   -0.9179   17.3044 N.ar    1  UNL1       -0.0222
     22 N           6.0182    0.0032   18.0865 N.ar    1  UNL1       -0.0385
     23 C           0.8031    2.3627   30.6109 C.3     1  UNL1        0.1255
     24 C           1.7790    1.4275   31.2613 C.ar    1  UNL1        0.1044
     25 N           2.2539    0.1195   30.7015 N.ar    1  UNL1       -0.2412
     26 C           3.2197   -0.4803   31.6800 C.ar    1  UNL1        0.0898
     27 C           4.0038   -1.7589   31.6609 C.ar    1  UNL1        0.0492
     28 C           4.9099   -2.1001   32.8066 C.ar    1  UNL1        0.1417
     29 F           5.6941   -3.3787   32.7876 F       1  UNL1       -0.2041
     30 C           5.0319   -1.1627   33.9713 C.ar    1  UNL1        0.0302
     31 C           4.2478    0.1158   33.9903 C.ar    1  UNL1        0.0103
     32 C           3.3417    0.4571   32.8447 C.ar    1  UNL1        0.0484
     33 S           2.4513    1.6361   32.5859 S.2     1  UNL1       -0.0694
@<TRIPOS>BOND
     1     7     8    1
     2     8     9   am
     3     9    10    2
     4     9    11    1
     5    11    12    1
     6    12    13   ar
     7    13    14   ar
     8    14    15   ar
     9    15    18    1
    10    18    19   ar
    11    19    20   ar
    12    20    21   ar
    13    21    22   ar
    14    15    16   ar
    15    16    17   ar
    16     8     1    1
    17     1     2    1
    18     2     3    1
    19     3     4    1
    20     4    23    1
    21    23    24    1
    22    24    25   ar
    23    25    26   ar
    24    26    27   ar
    25    27    28   ar
    26    28    29    1
    27    28    30   ar
    28    30    31   ar
    29    31    32   ar
    30    32    33   ar
    31     4     5    1
    32     5     6    1
    33    17    12   ar
    34     6     1    1
    35    22    18   ar
    36    33    24   ar
    37    32    26   ar
@<TRIPOS>MOLECULE
*****
 33 37 0 0 0
SMALL
GASTEIGER

@<TRIPOS>ATOM
      1 C           5.5296   -3.5084   21.0882 C.3     1  UNL1        0.0782
      2 C           5.1176   -3.5934   22.5279 C.3     1  UNL1        0.0372
      3 C           6.0948   -4.0715   23.5607 C.3     1  UNL1        0.0741
      4 N           7.4840   -4.4646   23.1537 N.3     1  UNL1       -0.2671
      5 C           7.8960   -4.3796   21.7138 C.3     1  UNL1        0.0741
      6 C           6.9188   -3.9015   20.6811 C.3     1  UNL1        0.0372
      7 C           3.6059   -4.0003   19.4125 C.3     1  UNL1        0.1148
      8 N           4.5524   -3.0303   20.0553 N.am    1  UNL1       -0.2790
      9 C           4.5218   -1.5822   19.6654 C.2     1  UNL1        0.2301
     10 O           5.4683   -0.6122   20.3083 O.2     1  UNL1       -0.2745
     11 C           3.5447   -1.1041   18.6327 C.3     1  UNL1        0.1116
     12 C           2.4460   -0.1592   19.0202 C.ar    1  UNL1       -0.0130
     13 C           1.4312   -0.5692   20.0459 C.ar    1  UNL1       -0.0022
     14 C           0.3326    0.3757   20.4335 C.ar    1  UNL1        0.0190
     15 C           0.2488    1.7306   19.7954 C.ar    1  UNL1        0.0862
     16 C           1.2636    2.1406   18.7697 C.ar    1  UNL1        0.0190
     17 C           2.3622    1.1957   18.3821 C.ar    1  UNL1       -0.0022
     18 N          -0.8498    2.6755   20.1829 N.ar    1  UNL1       -0.1886
     19 C          -1.4500    3.7361   19.3083 C.ar    1  UNL1        0.2258
     20 N          -2.5123    4.4418   20.0980 N.ar    1  UNL1       -0.1045
     21 N          -2.5686    3.8173   21.4607 N.ar    1  UNL1       -0.0222
     22 N          -1.5412    2.7257   21.5131 N.ar    1  UNL1       -0.0385
     23 C           8.4611   -4.9427   24.1864 C.3     1  UNL1        0.1255
     24 C           8.1677   -4.7465   25.6442 C.ar    1  UNL1        0.1044
     25 N           7.6976   -5.8036   26.5990 N.ar    1  UNL1       -0.2412
     26 C           7.5322   -5.1692   27.9482 C.ar    1  UNL1        0.0898
     27 C           7.0941   -5.7239   29.2712 C.ar    1  UNL1        0.0492
     28 C           7.0239   -4.8294   30.4732 C.ar    1  UNL1        0.1417
     29 F           6.5858   -5.3841   31.7963 F       1  UNL1       -0.2041
     30 C           7.3917   -3.3802   30.3523 C.ar    1  UNL1        0.0302
     31 C           7.8297   -2.8255   29.0293 C.ar    1  UNL1        0.0103
     32 C           7.9000   -3.7200   27.8272 C.ar    1  UNL1        0.0484
     33 S           8.2927   -3.4588   26.4033 S.2     1  UNL1       -0.0694
@<TRIPOS>BOND
     1     7     8    1
     2     8     9   am
     3     9    10    2
     4     9    11    1
     5    11    12    1
     6    12    13   ar
     7    13    14   ar
     8    14    15   ar
     9    15    18    1
    10    18    19   ar
    11    19    20   ar
    12    20    21   ar
    13    21    22   ar
    14    15    16   ar
    15    16    17   ar
    16     8     1    1
    17     1     2    1
    18     2     3    1
    19     3     4    1
    20     4    23    1
    21    23    24    1
    22    24    25   ar
    23    25    26   ar
    24    26    27   ar
    25    27    28   ar
    26    28    29    1
    27    28    30   ar
    28    30    31   ar
    29    31    32   ar
    30    32    33   ar
    31     4     5    1
    32     5     6    1
    33    17    12   ar
    34     6     1    1
    35    22    18   ar
    36    33    24   ar
    37    32    26   ar
@<TRIPOS>MOLECULE
*****
 33 37 0 0 0
SMALL
GASTEIGER

@<TRIPOS>ATOM
      1 C           8.0909   -5.9271   26.0850 C.3     1  UNL1        0.0782
      2 C           9.0535   -6.3779   27.1434 C.3     1  UNL1        0.0372
      3 C           8.6618   -6.3136   28.5900 C.3     1  UNL1        0.0741
      4 N           7.3076   -5.7985   28.9781 N.3     1  UNL1       -0.2671
      5 C           6.3449   -5.3478   27.9197 C.3     1  UNL1        0.0741
      6 C           6.7366   -5.4121   26.4732 C.3     1  UNL1        0.0372
      7 C           8.4080   -7.2940   23.8985 C.3     1  UNL1        0.1148
      8 N           8.4825   -5.9914   24.6384 N.am    1  UNL1       -0.2790
      9 C           8.9486   -4.7531   23.9319 C.2     1  UNL1        0.2301
     10 O           9.0231   -3.4504   24.6720 O.2     1  UNL1       -0.2745
     11 C           9.3402   -4.8173   22.4854 C.3     1  UNL1        0.1116
     12 C           8.5293   -4.0879   21.4557 C.ar    1  UNL1       -0.0130
     13 C           9.2152   -3.3696   20.3317 C.ar    1  UNL1       -0.0022
     14 C           8.4043   -2.6402   19.3020 C.ar    1  UNL1        0.0190
     15 C           6.9073   -2.6291   19.3963 C.ar    1  UNL1        0.0862
     16 C           6.2213   -3.3474   20.5203 C.ar    1  UNL1        0.0190
     17 C           7.0323   -4.0768   21.5500 C.ar    1  UNL1       -0.0022
     18 N           6.0963   -1.8997   18.3666 N.ar    1  UNL1       -0.1886
     19 C           4.6167   -2.0285   18.1562 C.ar    1  UNL1        0.2258
     20 N           4.2285   -1.1219   17.0261 N.ar    1  UNL1       -0.1045
     21 N           5.4681   -0.4326   16.5380 N.ar    1  UNL1       -0.0222
     22 N           6.6225   -0.9134   17.3665 N.ar    1  UNL1       -0.0385
     23 C           6.9159   -5.7342   30.4246 C.3     1  UNL1        0.1255
     24 C           7.1842   -4.4909   31.2197 C.ar    1  UNL1        0.1044
     25 N           6.1555   -3.5053   31.6891 N.ar    1  UNL1       -0.2412
     26 C           6.8639   -2.4202   32.4446 C.ar    1  UNL1        0.0898
     27 C           6.3630   -1.1860   33.1344 C.ar    1  UNL1        0.0492
     28 C           7.3286   -0.2668   33.8217 C.ar    1  UNL1        0.1417
     29 F           6.8277    0.9675   34.5115 F       1  UNL1       -0.2041
     30 C           8.7952   -0.5817   33.8192 C.ar    1  UNL1        0.0302
     31 C           9.2961   -1.8159   33.1294 C.ar    1  UNL1        0.0103
     32 C           8.3304   -2.7351   32.4421 C.ar    1  UNL1        0.0484
     33 S           8.5284   -4.0149   31.6851 S.2     1  UNL1       -0.0694
@<TRIPOS>BOND
     1     7     8    1
     2     8     9   am
     3     9    10    2
     4     9    11    1
     5    11    12    1
     6    12    13   ar
     7    13    14   ar
     8    14    15   ar
     9    15    18    1
    10    18    19   ar
    11    19    20   ar
    12    20    21   ar
    13    21    22   ar
    14    15    16   ar
    15    16    17   ar
    16     8     1    1
    17     1     2    1
    18     2     3    1
    19     3     4    1
    20     4    23    1
    21    23    24    1
    22    24    25   ar
    23    25    26   ar
    24    26    27   ar
    25    27    28   ar
    26    28    29    1
    27    28    30   ar
    28    30    31   ar
    29    31    32   ar
    30    32    33   ar
    31     4     5    1
    32     5     6    1
    33    17    12   ar
    34     6     1    1
    35    22    18   ar
    36    33    24   ar
    37    32    26   ar
@<TRIPOS>MOLECULE
*****
 33 37 0 0 0
SMALL
GASTEIGER

@<TRIPOS>ATOM
      1 C           7.6484   -5.0094   28.3600 C.3     1  UNL1        0.0782
      2 C           8.6286   -4.1082   27.6693 C.3     1  UNL1        0.0372
      3 C           8.7521   -4.1397   26.1747 C.3     1  UNL1        0.0741
      4 N           7.8955   -5.0724   25.3708 N.3     1  UNL1       -0.2671
      5 C           6.9153   -5.9737   26.0616 C.3     1  UNL1        0.0741
      6 C           6.7918   -5.9422   27.5561 C.3     1  UNL1        0.0372
      7 C           8.1403   -6.0679   30.6812 C.3     1  UNL1        0.1148
      8 N           7.5249   -4.9780   29.8546 N.am    1  UNL1       -0.2790
      9 C           6.7859   -3.8565   30.5226 C.2     1  UNL1        0.2301
     10 O           6.1705   -2.7665   29.6960 O.2     1  UNL1       -0.2745
     11 C           6.6623   -3.8250   32.0171 C.3     1  UNL1        0.1116
     12 C           6.0974   -2.6135   32.6976 C.ar    1  UNL1       -0.0130
     13 C           6.9439   -1.3872   32.8703 C.ar    1  UNL1       -0.0022
     14 C           6.3790   -0.1757   33.5508 C.ar    1  UNL1        0.0190
     15 C           4.9677   -0.1904   34.0586 C.ar    1  UNL1        0.0862
     16 C           4.1213   -1.4166   33.8859 C.ar    1  UNL1        0.0190
     17 C           4.6861   -2.6281   33.2054 C.ar    1  UNL1       -0.0022
     18 N           4.4028    1.0212   34.7391 N.ar    1  UNL1       -0.1886
     19 C           3.1721    1.7719   34.3246 C.ar    1  UNL1        0.2258
     20 N           2.9781    2.9094   35.2829 N.ar    1  UNL1       -0.1045
     21 N           4.0890    2.8618   36.2897 N.ar    1  UNL1       -0.0222
     22 N           4.9695    1.6948   35.9537 N.ar    1  UNL1       -0.0385
     23 C           8.0190   -5.1039   23.8763 C.3     1  UNL1        0.1255
     24 C           7.0239   -4.3714   23.0259 C.ar    1  UNL1        0.1044
     25 N           6.9526   -4.4019   21.5279 N.ar    1  UNL1       -0.2412
     26 C           5.8100   -3.5292   21.1003 C.ar    1  UNL1        0.0898
     27 C           5.2657   -3.1797   19.7470 C.ar    1  UNL1        0.0492
     28 C           4.0865   -2.2605   19.6274 C.ar    1  UNL1        0.1417
     29 F           3.5421   -1.9110   18.2740 F       1  UNL1       -0.2041
     30 C           3.4515   -1.6907   20.8611 C.ar    1  UNL1        0.0302
     31 C           3.9958   -2.0401   22.2145 C.ar    1  UNL1        0.0103
     32 C           5.1751   -2.9594   22.3341 C.ar    1  UNL1        0.0484
     33 S           5.9253   -3.4799   23.5241 S.2     1  UNL1       -0.0694
@<TRIPOS>BOND
     1     7     8    1
     2     8     9   am
     3     9    10    2
     4     9    11    1
     5    11    12    1
     6    12    13   ar
     7    13    14   ar
     8    14    15   ar
     9    15    18    1
    10    18    19   ar
    11    19    20   ar
    12    20    21   ar
    13    21    22   ar
    14    15    16   ar
    15    16    17   ar
    16     8     1    1
    17     1     2    1
    18     2     3    1
    19     3     4    1
    20     4    23    1
    21    23    24    1
    22    24    25   ar
    23    25    26   ar
    24    26    27   ar
    25    27    28   ar
    26    28    29    1
    27    28    30   ar
    28    30    31   ar
    29    31    32   ar
    30    32    33   ar
    31     4     5    1
    32     5     6    1
    33    17    12   ar
    34     6     1    1
    35    22    18   ar
    36    33    24   ar
    37    32    26   ar
@<TRIPOS>MOLECULE
*****
 33 37 0 0 0
SMALL
GASTEIGER

@<TRIPOS>ATOM
      1 C         -14.4565   -1.1643   18.5475 C.3     1  UNL1        0.0782
      2 C         -14.7429   -1.8987   17.2713 C.3     1  UNL1        0.0372
      3 C         -14.2793   -3.3151   17.1008 C.3     1  UNL1        0.0741
      4 N         -13.5293   -3.9970   18.2065 N.3     1  UNL1       -0.2671
      5 C         -13.2429   -3.2625   19.4827 C.3     1  UNL1        0.0741
      6 C         -13.7065   -1.8462   19.6531 C.3     1  UNL1        0.0372
      7 C         -14.0720    1.3841   18.2189 C.3     1  UNL1        0.1148
      8 N         -14.9201    0.2521   18.7180 N.am    1  UNL1       -0.2790
      9 C         -16.2319    0.5363   19.3877 C.2     1  UNL1        0.2301
     10 O         -17.0801   -0.5958   19.8868 O.2     1  UNL1       -0.2745
     11 C         -16.6955    1.9526   19.5582 C.3     1  UNL1        0.1116
     12 C         -16.5589    2.6315   20.8888 C.ar    1  UNL1       -0.0130
     13 C         -17.2931    2.0968   22.0825 C.ar    1  UNL1       -0.0022
     14 C         -17.1565    2.7756   23.4131 C.ar    1  UNL1        0.0190
     15 C         -16.2856    3.9891   23.5500 C.ar    1  UNL1        0.0862
     16 C         -15.5514    4.5238   22.3564 C.ar    1  UNL1        0.0190
     17 C         -15.6880    3.8450   21.0257 C.ar    1  UNL1       -0.0022
     18 N         -16.1490    4.6680   24.8806 N.ar    1  UNL1       -0.1886
     19 C         -14.9165    4.6929   25.7353 C.ar    1  UNL1        0.2258
     20 N         -15.2266    5.4814   26.9731 N.ar    1  UNL1       -0.1045
     21 N         -16.6508    5.9438   26.8834 N.ar    1  UNL1       -0.0222
     22 N         -17.2208    5.4411   25.5902 N.ar    1  UNL1       -0.0385
     23 C         -13.0657   -5.4133   18.0360 C.3     1  UNL1        0.1255
     24 C         -13.9993   -6.5490   18.3337 C.ar    1  UNL1        0.1044
     25 N         -13.8667   -7.9550   17.8281 N.ar    1  UNL1       -0.2412
     26 C         -15.0148   -8.7532   18.3712 C.ar    1  UNL1        0.0898
     27 C         -15.4022  -10.1931   18.2084 C.ar    1  UNL1        0.0492
     28 C         -16.6317  -10.7202   18.8868 C.ar    1  UNL1        0.1417
     29 F         -17.0191  -12.1602   18.7241 F       1  UNL1       -0.2041
     30 C         -17.4738   -9.8075   19.7281 C.ar    1  UNL1        0.0302
     31 C         -17.0865   -8.3676   19.8909 C.ar    1  UNL1        0.0103
     32 C         -15.8570   -7.8404   19.2124 C.ar    1  UNL1        0.0484
     33 S         -15.2293   -6.4782   19.1892 S.2     1  UNL1       -0.0694
@<TRIPOS>BOND
     1     7     8    1
     2     8     9   am
     3     9    10    2
     4     9    11    1
     5    11    12    1
     6    12    13   ar
     7    13    14   ar
     8    14    15   ar
     9    15    18    1
    10    18    19   ar
    11    19    20   ar
    12    20    21   ar
    13    21    22   ar
    14    15    16   ar
    15    16    17   ar
    16     8     1    1
    17     1     2    1
    18     2     3    1
    19     3     4    1
    20     4    23    1
    21    23    24    1
    22    24    25   ar
    23    25    26   ar
    24    26    27   ar
    25    27    28   ar
    26    28    29    1
    27    28    30   ar
    28    30    31   ar
    29    31    32   ar
    30    32    33   ar
    31     4     5    1
    32     5     6    1
    33    17    12   ar
    34     6     1    1
    35    22    18   ar
    36    33    24   ar
    37    32    26   ar
@<TRIPOS>MOLECULE
*****
 33 37 0 0 0
SMALL
GASTEIGER

@<TRIPOS>ATOM
      1 C           2.8079    1.9211   18.7110 C.3     1  UNL1        0.0782
      2 C           2.5471    3.3348   18.2827 C.3     1  UNL1        0.0372
      3 C           1.1723    3.9189   18.4212 C.3     1  UNL1        0.0741
      4 N           0.0586    3.0892   18.9879 N.3     1  UNL1       -0.2671
      5 C           0.3195    1.6754   19.4161 C.3     1  UNL1        0.0741
      6 C           1.6942    1.0914   19.2777 C.3     1  UNL1        0.0372
      7 C           5.3374    1.9555   19.3033 C.3     1  UNL1        0.1148
      8 N           4.1826    1.3370   18.5725 N.am    1  UNL1       -0.2790
      9 C           4.4025    0.1345   17.7032 C.2     1  UNL1        0.2301
     10 O           3.2477   -0.4839   16.9724 O.2     1  UNL1       -0.2745
     11 C           5.7772   -0.4496   17.5648 C.3     1  UNL1        0.1116
     12 C           6.2459   -1.5006   18.5268 C.ar    1  UNL1       -0.0130
     13 C           7.6061   -1.3940   19.1499 C.ar    1  UNL1       -0.0022
     14 C           8.0748   -2.4451   20.1120 C.ar    1  UNL1        0.0190
     15 C           7.1833   -3.6028   20.4509 C.ar    1  UNL1        0.0862
     16 C           5.8231   -3.7094   19.8277 C.ar    1  UNL1        0.0190
     17 C           5.3544   -2.6583   18.8657 C.ar    1  UNL1       -0.0022
     18 N           7.6520   -4.6539   21.4129 N.ar    1  UNL1       -0.1886
     19 C           7.4488   -4.6426   22.8990 C.ar    1  UNL1        0.2258
     20 N           8.0774   -5.8826   23.4623 N.ar    1  UNL1       -0.1045
     21 N           8.6692   -6.6603   22.3243 N.ar    1  UNL1       -0.0222
     22 N           8.4063   -5.9009   21.0577 N.ar    1  UNL1       -0.0385
     23 C          -1.3161    3.6732   19.1264 C.3     1  UNL1        0.1255
     24 C          -2.0137    3.6426   20.4539 C.ar    1  UNL1        0.1044
     25 N          -1.3624    3.7991   21.7960 N.ar    1  UNL1       -0.2412
     26 C          -2.4313    3.7035   22.8440 C.ar    1  UNL1        0.0898
     27 C          -2.3795    3.7848   24.3409 C.ar    1  UNL1        0.0492
     28 C          -3.6396    3.6506   25.1433 C.ar    1  UNL1        0.1417
     29 F          -3.5878    3.7319   26.6403 F       1  UNL1       -0.2041
     30 C          -4.9516    3.4350   24.4489 C.ar    1  UNL1        0.0302
     31 C          -5.0034    3.3536   22.9521 C.ar    1  UNL1        0.0103
     32 C          -3.7433    3.4879   22.1496 C.ar    1  UNL1        0.0484
     33 S          -3.4852    3.4503   20.6725 S.2     1  UNL1       -0.0694
@<TRIPOS>BOND
     1     7     8    1
     2     8     9   am
     3     9    10    2
     4     9    11    1
     5    11    12    1
     6    12    13   ar
     7    13    14   ar
     8    14    15   ar
     9    15    18    1
    10    18    19   ar
    11    19    20   ar
    12    20    21   ar
    13    21    22   ar
    14    15    16   ar
    15    16    17   ar
    16     8     1    1
    17     1     2    1
    18     2     3    1
    19     3     4    1
    20     4    23    1
    21    23    24    1
    22    24    25   ar
    23    25    26   ar
    24    26    27   ar
    25    27    28   ar
    26    28    29    1
    27    28    30   ar
    28    30    31   ar
    29    31    32   ar
    30    32    33   ar
    31     4     5    1
    32     5     6    1
    33    17    12   ar
    34     6     1    1
    35    22    18   ar
    36    33    24   ar
    37    32    26   ar
