@<TRIPOS>MOLECULE
*****
 39 42 0 0 0
SMALL
GASTEIGER

@<TRIPOS>ATOM
      1 C           2.8862    0.7340   27.0995 C.3     1  UNL1        0.0903
      2 C           1.5884    0.8070   27.8481 C.3     1  UNL1        0.0920
      3 N           0.3132    1.0936   27.1121 N.3     1  UNL1       -0.2689
      4 C           0.3358    1.3072   25.6276 C.3     1  UNL1        0.0723
      5 C           1.6336    1.2342   24.8790 C.3     1  UNL1        0.0204
      6 C           2.9088    0.9476   25.6150 C.3     1  UNL1        0.0368
      7 N           5.8953   -1.2558   28.7538 N.am    1  UNL1       -0.2485
      8 C           4.6201   -0.9691   28.0179 C.2     1  UNL1        0.3059
      9 O           3.8034   -2.0990   27.4642 O.2     1  UNL1       -0.2524
     10 N           4.1615    0.4474   27.8355 N.am    1  UNL1       -0.2889
     11 H           6.4313   -0.5142   29.1171 H       1  UNL1        0.1583
     12 H           4.6975    1.1890   28.1989 H       1  UNL1        0.1510
     13 C           7.0908   -4.7464   29.9586 C.ar    1  UNL1        0.0803
     14 S           6.6740   -3.3340   30.2436 S.2     1  UNL1       -0.0488
     15 C           6.3539   -2.6722   28.9361 C.ar    1  UNL1        0.1664
     16 N           6.5728   -3.6757   27.8430 N.ar    1  UNL1       -0.2282
     17 C           7.0283   -4.9577   28.4748 C.ar    1  UNL1        0.0701
     18 C           7.3625   -6.2278   27.7502 C.3     1  UNL1        0.0528
     19 C           8.8678   -6.3782   30.9227 C.3     1  UNL1        0.0779
     20 C           7.4985   -5.7682   30.9782 C.2     1  UNL1        0.1807
     21 O           6.5371   -6.1800   32.0533 O.2     1  UNL1       -0.2908
     22 C          -0.9846    1.1666   27.8607 C.3     1  UNL1        0.1107
     23 C          -1.3964    0.0386   28.7596 C.3     1  UNL1        0.2105
     24 F          -2.3312    0.2948   29.9043 F       1  UNL1       -0.2328
     25 C           4.2067    0.8746   24.8664 C.3     1  UNL1        0.0738
     26 N           4.5446   -0.3501   24.0690 N.3     1  UNL1       -0.2726
     27 C           5.6121   -1.2876   24.5503 C.3     1  UNL1        0.0721
     28 C           5.9501   -2.5123   23.7528 C.3     1  UNL1        0.0174
     29 C           5.2205   -2.7994   22.4740 C.3     1  UNL1        0.0031
     30 C           4.1531   -1.8620   21.9927 C.3     1  UNL1        0.0204
     31 C           3.8151   -0.6373   22.7902 C.3     1  UNL1        0.0724
     32 C           3.4235   -2.1491   20.7139 C.3     1  UNL1        0.0277
     33 C           2.6949   -1.0478   20.0025 C.ar    1  UNL1       -0.0220
     34 C           1.2851   -0.7099   20.3881 C.ar    1  UNL1       -0.0020
     35 C           0.5565    0.3914   19.6767 C.ar    1  UNL1        0.0293
     36 C           1.2376    1.1550   18.5798 C.ar    1  UNL1        0.1401
     37 F           0.5089    2.2564   17.8685 F       1  UNL1       -0.2042
     38 C           2.6473    0.8172   18.1943 C.ar    1  UNL1        0.0293
     39 C           3.3759   -0.2842   18.9057 C.ar    1  UNL1       -0.0020
@<TRIPOS>BOND
     1    19    20    1
     2    20    21    2
     3    20    13    1
     4    13    14   ar
     5    14    15   ar
     6    15     7    1
     7     7     8   am
     8     8     9    2
     9     8    10   am
    10     1    10    1
    11     1     2    1
    12     2     3    1
    13     3    22    1
    14    22    23    1
    15    23    24    1
    16     3     4    1
    17     4     5    1
    18     5     6    1
    19     6    25    1
    20    25    26    1
    21    26    27    1
    22    27    28    1
    23    28    29    1
    24    29    30    1
    25    30    32    1
    26    32    33    1
    27    33    34   ar
    28    34    35   ar
    29    35    36   ar
    30    36    37    1
    31    36    38   ar
    32    38    39   ar
    33    30    31    1
    34    15    16   ar
    35    16    17   ar
    36    17    18    1
    37    17    13   ar
    38     6     1    1
    39    31    26    1
    40    39    33   ar
    41     7    11    1
    42    10    12    1
@<TRIPOS>MOLECULE
*****
 39 42 0 0 0
SMALL
GASTEIGER

@<TRIPOS>ATOM
      1 C          -4.9643    5.0429   24.1793 C.3     1  UNL1        0.0903
      2 C          -5.6517    6.1317   24.9486 C.3     1  UNL1        0.0920
      3 N          -7.1402    6.2913   24.8551 N.3     1  UNL1       -0.2689
      4 C          -7.9414    5.3621   23.9922 C.3     1  UNL1        0.0723
      5 C          -7.2540    4.2732   23.2229 C.3     1  UNL1        0.0204
      6 C          -5.7655    4.1136   23.3165 C.3     1  UNL1        0.0368
      7 N          -1.3812    4.0164   25.5424 N.am    1  UNL1       -0.2485
      8 C          -2.8697    4.1761   25.4488 C.2     1  UNL1        0.3059
      9 O          -3.7523    3.6286   26.5311 O.2     1  UNL1       -0.2524
     10 N          -3.4758    4.8832   24.2729 N.am    1  UNL1       -0.2889
     11 H          -0.8020    4.3757   24.8320 H       1  UNL1        0.1583
     12 H          -2.8965    5.2425   23.5625 H       1  UNL1        0.1510
     13 C          -0.0049    1.5597   28.2137 C.ar    1  UNL1        0.0803
     14 S          -0.6816    1.8235   26.9012 S.2     1  UNL1       -0.0488
     15 C          -0.7752    3.3093   26.7183 C.ar    1  UNL1        0.1664
     16 N          -0.1564    3.9639   27.9177 N.ar    1  UNL1       -0.2282
     17 C           0.3197    2.8826   28.8419 C.ar    1  UNL1        0.0701
     18 C           1.0007    3.0881   30.1625 C.3     1  UNL1        0.0528
     19 C           1.6884   -0.3406   28.7344 C.3     1  UNL1        0.0779
     20 C           0.2945    0.2101   28.7957 C.2     1  UNL1        0.1807
     21 O          -0.7998   -0.5889   29.4390 O.2     1  UNL1       -0.2908
     22 C          -7.8276    7.3802   25.6244 C.3     1  UNL1        0.1107
     23 C          -7.7454    7.4072   27.1219 C.3     1  UNL1        0.2105
     24 F          -7.7863    6.1246   27.8985 F       1  UNL1       -0.2328
     25 C          -5.0781    3.0247   22.5471 C.3     1  UNL1        0.0738
     26 N          -4.3983    3.3389   21.2475 N.3     1  UNL1       -0.2726
     27 C          -5.2163    3.6463   20.0283 C.3     1  UNL1        0.0721
     28 C          -4.5364    3.9605   18.7286 C.3     1  UNL1        0.0174
     29 C          -3.0385    3.9674   18.6482 C.3     1  UNL1        0.0031
     30 C          -2.2206    3.6600   19.8674 C.3     1  UNL1        0.0204
     31 C          -2.9005    3.3458   21.1671 C.3     1  UNL1        0.0724
     32 C          -0.7227    3.6669   19.7870 C.3     1  UNL1        0.0277
     33 C           0.0320    2.3713   19.7451 C.ar    1  UNL1       -0.0220
     34 C           0.6505    1.9049   18.4605 C.ar    1  UNL1       -0.0020
     35 C           1.4053    0.6093   18.4185 C.ar    1  UNL1        0.0293
     36 C           1.5415   -0.2199   19.6611 C.ar    1  UNL1        0.1401
     37 F           2.2963   -1.5155   19.6192 F       1  UNL1       -0.2042
     38 C           0.9231    0.2465   20.9456 C.ar    1  UNL1        0.0293
     39 C           0.1683    1.5421   20.9876 C.ar    1  UNL1       -0.0020
@<TRIPOS>BOND
     1    19    20    1
     2    20    21    2
     3    20    13    1
     4    13    14   ar
     5    14    15   ar
     6    15     7    1
     7     7     8   am
     8     8     9    2
     9     8    10   am
    10     1    10    1
    11     1     2    1
    12     2     3    1
    13     3    22    1
    14    22    23    1
    15    23    24    1
    16     3     4    1
    17     4     5    1
    18     5     6    1
    19     6    25    1
    20    25    26    1
    21    26    27    1
    22    27    28    1
    23    28    29    1
    24    29    30    1
    25    30    32    1
    26    32    33    1
    27    33    34   ar
    28    34    35   ar
    29    35    36   ar
    30    36    37    1
    31    36    38   ar
    32    38    39   ar
    33    30    31    1
    34    15    16   ar
    35    16    17   ar
    36    17    18    1
    37    17    13   ar
    38     6     1    1
    39    31    26    1
    40    39    33   ar
    41     7    11    1
    42    10    12    1
@<TRIPOS>MOLECULE
*****
 39 42 0 0 0
SMALL
GASTEIGER

@<TRIPOS>ATOM
      1 C           2.6704    0.9898   27.4774 C.3     1  UNL1        0.0903
      2 C           1.3568    0.8316   28.1840 C.3     1  UNL1        0.0920
      3 N           0.0763    1.1317   27.4627 N.3     1  UNL1       -0.2689
      4 C           0.1095    1.5901   26.0348 C.3     1  UNL1        0.0723
      5 C           1.4231    1.7483   25.3283 C.3     1  UNL1        0.0204
      6 C           2.7036    1.4482   26.0496 C.3     1  UNL1        0.0368
      7 N           5.7354   -1.0211   28.9980 N.am    1  UNL1       -0.2485
      8 C           4.4549   -0.7209   28.2767 C.2     1  UNL1        0.3059
      9 O           3.6784   -1.8314   27.6334 O.2     1  UNL1       -0.2524
     10 N           3.9509    0.6897   28.1987 N.am    1  UNL1       -0.2889
     11 H           6.2450   -0.2922   29.4202 H       1  UNL1        0.1583
     12 H           4.4606    1.4186   28.6210 H       1  UNL1        0.1510
     13 C           7.1513   -4.5946   28.4585 C.ar    1  UNL1        0.0803
     14 S           6.7562   -3.2480   27.9286 S.2     1  UNL1       -0.0488
     15 C           6.2394   -2.4317   29.0760 C.ar    1  UNL1        0.1664
     16 N           6.3150   -3.2738   30.3150 N.ar    1  UNL1       -0.2282
     17 C           6.8786   -4.6105   29.9334 C.ar    1  UNL1        0.0701
     18 C           7.1261   -5.7610   30.8635 C.3     1  UNL1        0.0528
     19 C           6.8468   -6.4725   26.6892 C.3     1  UNL1        0.0779
     20 C           7.7193   -5.7264   27.6546 C.2     1  UNL1        0.1807
     21 O           9.1598   -6.1122   27.8162 O.2     1  UNL1       -0.2908
     22 C          -1.2374    0.9735   28.1693 C.3     1  UNL1        0.1107
     23 C          -1.4741   -0.2132   29.0557 C.3     1  UNL1        0.2105
     24 F          -2.0370   -1.4788   28.4802 F       1  UNL1       -0.2328
     25 C           4.0173    1.6064   25.3430 C.3     1  UNL1        0.0738
     26 N           4.7042    0.4073   24.7594 N.3     1  UNL1       -0.2726
     27 C           6.0989    0.0594   25.1882 C.3     1  UNL1        0.0721
     28 C           6.7858   -1.1396   24.6046 C.3     1  UNL1        0.0174
     29 C           6.0779   -1.9907   23.5923 C.3     1  UNL1        0.0031
     30 C           4.6832   -1.6427   23.1636 C.3     1  UNL1        0.0204
     31 C           3.9964   -0.4437   23.7472 C.3     1  UNL1        0.0724
     32 C           3.9754   -2.4938   22.1513 C.3     1  UNL1        0.0277
     33 C           3.9521   -2.0812   20.7094 C.ar    1  UNL1       -0.0220
     34 C           2.9625   -1.0571   20.2382 C.ar    1  UNL1       -0.0020
     35 C           2.9392   -0.6444   18.7963 C.ar    1  UNL1        0.0293
     36 C           3.9055   -1.2559   17.8255 C.ar    1  UNL1        0.1401
     37 F           3.8822   -0.8433   16.3835 F       1  UNL1       -0.2042
     38 C           4.8950   -2.2800   18.2966 C.ar    1  UNL1        0.0293
     39 C           4.9183   -2.6926   19.7386 C.ar    1  UNL1       -0.0020
@<TRIPOS>BOND
     1    19    20    1
     2    20    21    2
     3    20    13    1
     4    13    14   ar
     5    14    15   ar
     6    15     7    1
     7     7     8   am
     8     8     9    2
     9     8    10   am
    10     1    10    1
    11     1     2    1
    12     2     3    1
    13     3    22    1
    14    22    23    1
    15    23    24    1
    16     3     4    1
    17     4     5    1
    18     5     6    1
    19     6    25    1
    20    25    26    1
    21    26    27    1
    22    27    28    1
    23    28    29    1
    24    29    30    1
    25    30    32    1
    26    32    33    1
    27    33    34   ar
    28    34    35   ar
    29    35    36   ar
    30    36    37    1
    31    36    38   ar
    32    38    39   ar
    33    30    31    1
    34    15    16   ar
    35    16    17   ar
    36    17    18    1
    37    17    13   ar
    38     6     1    1
    39    31    26    1
    40    39    33   ar
    41     7    11    1
    42    10    12    1
@<TRIPOS>MOLECULE
*****
 39 42 0 0 0
SMALL
GASTEIGER

@<TRIPOS>ATOM
      1 C           3.7944   -0.4674   21.1500 C.3     1  UNL1        0.0903
      2 C           5.2503   -0.8100   21.0359 C.3     1  UNL1        0.0920
      3 N           5.6991   -1.8636   20.0672 N.3     1  UNL1       -0.2689
      4 C           4.6922   -2.5745   19.2124 C.3     1  UNL1        0.0723
      5 C           3.2363   -2.2319   19.3265 C.3     1  UNL1        0.0204
      6 C           2.7874   -1.1784   20.2952 C.3     1  UNL1        0.0368
      7 N           2.5707    1.2666   24.5034 N.am    1  UNL1       -0.2485
      8 C           3.0196    0.2131   23.5346 C.2     1  UNL1        0.3059
      9 O           3.1427   -1.2134   23.9817 O.2     1  UNL1       -0.2524
     10 N           3.3454    0.5861   22.1187 N.am    1  UNL1       -0.2889
     11 H           2.4899    2.2029   24.2100 H       1  UNL1        0.1583
     12 H           3.2647    1.5224   21.8253 H       1  UNL1        0.1510
     13 C           1.0413    0.5651   28.0012 C.ar    1  UNL1        0.0803
     14 S           0.9174    1.0715   26.5947 S.2     1  UNL1       -0.0488
     15 C           2.2448    0.8936   25.9193 C.ar    1  UNL1        0.1664
     16 N           3.1892    0.2772   26.9083 N.ar    1  UNL1       -0.2282
     17 C           2.4454    0.0742   28.1950 C.ar    1  UNL1        0.0701
     18 C           3.0071   -0.5161   29.4544 C.3     1  UNL1        0.0528
     19 C          -1.3088   -0.2205   28.7820 C.3     1  UNL1        0.0779
     20 C          -0.0476    0.5519   29.0327 C.2     1  UNL1        0.1807
     21 O           0.1245    1.3111   30.3148 O.2     1  UNL1       -0.2908
     22 C           7.1551   -2.2062   19.9531 C.3     1  UNL1        0.1107
     23 C           7.6807   -3.4643   20.5784 C.3     1  UNL1        0.2105
     24 F           6.8595   -4.1939   21.5998 F       1  UNL1       -0.2328
     25 C           1.3315   -0.8357   20.4093 C.3     1  UNL1        0.0738
     26 N           0.8552    0.5417   20.0544 N.3     1  UNL1       -0.2726
     27 C           1.0058    1.0489   18.6508 C.3     1  UNL1        0.0721
     28 C           0.5295    2.4263   18.2960 C.3     1  UNL1        0.0174
     29 C          -0.0975    3.2964   19.3448 C.3     1  UNL1        0.0031
     30 C          -0.2481    2.7892   20.7483 C.3     1  UNL1        0.0204
     31 C           0.2282    1.4118   21.1031 C.3     1  UNL1        0.0724
     32 C          -0.8751    3.6593   21.7971 C.3     1  UNL1        0.0277
     33 C          -2.3578    3.6152   22.0199 C.ar    1  UNL1       -0.0220
     34 C          -2.9123    3.7549   23.4067 C.ar    1  UNL1       -0.0020
     35 C          -4.3950    3.7108   23.6296 C.ar    1  UNL1        0.0293
     36 C          -5.3232    3.5271   22.4656 C.ar    1  UNL1        0.1401
     37 F          -6.8059    3.4830   22.6885 F       1  UNL1       -0.2042
     38 C          -4.7687    3.3874   21.0789 C.ar    1  UNL1        0.0293
     39 C          -3.2860    3.4314   20.8561 C.ar    1  UNL1       -0.0020
@<TRIPOS>BOND
     1    19    20    1
     2    20    21    2
     3    20    13    1
     4    13    14   ar
     5    14    15   ar
     6    15     7    1
     7     7     8   am
     8     8     9    2
     9     8    10   am
    10     1    10    1
    11     1     2    1
    12     2     3    1
    13     3    22    1
    14    22    23    1
    15    23    24    1
    16     3     4    1
    17     4     5    1
    18     5     6    1
    19     6    25    1
    20    25    26    1
    21    26    27    1
    22    27    28    1
    23    28    29    1
    24    29    30    1
    25    30    32    1
    26    32    33    1
    27    33    34   ar
    28    34    35   ar
    29    35    36   ar
    30    36    37    1
    31    36    38   ar
    32    38    39   ar
    33    30    31    1
    34    15    16   ar
    35    16    17   ar
    36    17    18    1
    37    17    13   ar
    38     6     1    1
    39    31    26    1
    40    39    33   ar
    41     7    11    1
    42    10    12    1
@<TRIPOS>MOLECULE
*****
 39 42 0 0 0
SMALL
GASTEIGER

@<TRIPOS>ATOM
      1 C           3.1960   -0.4702   28.3994 C.3     1  UNL1        0.0903
      2 C           1.7539   -0.2441   28.0542 C.3     1  UNL1        0.0920
      3 N           0.9582    0.7885   28.7961 N.3     1  UNL1       -0.2689
      4 C           1.6045    1.5949   29.8833 C.3     1  UNL1        0.0723
      5 C           3.0466    1.3688   30.2285 C.3     1  UNL1        0.0204
      6 C           3.8423    0.3363   29.4865 C.3     1  UNL1        0.0368
      7 N           4.9742   -2.4150   25.4320 N.am    1  UNL1       -0.2485
      8 C           4.1785   -1.3825   26.1739 C.2     1  UNL1        0.3059
      9 O           3.5692   -0.2296   25.4324 O.2     1  UNL1       -0.2524
     10 N           3.9918   -1.5028   27.6574 N.am    1  UNL1       -0.2889
     11 H           5.3741   -3.1717   25.9187 H       1  UNL1        0.1583
     12 H           4.3917   -2.2594   28.1441 H       1  UNL1        0.1510
     13 C           5.0637   -2.7459   21.5657 C.ar    1  UNL1        0.0803
     14 S           4.6487   -3.2535   22.9148 S.2     1  UNL1       -0.0488
     15 C           5.1609   -2.2948   23.9485 C.ar    1  UNL1        0.1664
     16 N           5.8924   -1.1946   23.2382 N.ar    1  UNL1       -0.2282
     17 C           5.8324   -1.4734   21.7656 C.ar    1  UNL1        0.0701
     18 C           6.4351   -0.6281   20.6829 C.3     1  UNL1        0.0528
     19 C           3.7203   -2.8104   19.3429 C.3     1  UNL1        0.0779
     20 C           4.7629   -3.3966   20.2481 C.2     1  UNL1        0.1807
     21 O           5.5046   -4.6333   19.8357 O.2     1  UNL1       -0.2908
     22 C          -0.4840    1.0147   28.4510 C.3     1  UNL1        0.1107
     23 C          -1.5479    0.1645   29.0797 C.3     1  UNL1        0.2105
     24 F          -1.7930   -1.2261   28.5738 F       1  UNL1       -0.2328
     25 C           5.2845    0.1101   29.8317 C.3     1  UNL1        0.0738
     26 N           5.7004   -1.1531   30.5254 N.3     1  UNL1       -0.2726
     27 C           5.0153   -1.5738   31.7918 C.3     1  UNL1        0.0721
     28 C           5.4313   -2.8371   32.4856 C.3     1  UNL1        0.0174
     29 C           6.5323   -3.6796   31.9128 C.3     1  UNL1        0.0031
     30 C           7.2173   -3.2589   30.6465 C.3     1  UNL1        0.0204
     31 C           6.8014   -1.9957   29.9528 C.3     1  UNL1        0.0724
     32 C           8.3184   -4.1015   30.0738 C.3     1  UNL1        0.0277
     33 C           8.0133   -5.1091   29.0053 C.ar    1  UNL1       -0.0220
     34 C           8.7670   -6.4052   28.9596 C.ar    1  UNL1       -0.0020
     35 C           8.4619   -7.4129   27.8911 C.ar    1  UNL1        0.0293
     36 C           7.4032   -7.1244   26.8684 C.ar    1  UNL1        0.1401
     37 F           7.0981   -8.1320   25.8000 F       1  UNL1       -0.2042
     38 C           6.6495   -5.8283   26.9142 C.ar    1  UNL1        0.0293
     39 C           6.9546   -4.8207   27.9827 C.ar    1  UNL1       -0.0020
@<TRIPOS>BOND
     1    19    20    1
     2    20    21    2
     3    20    13    1
     4    13    14   ar
     5    14    15   ar
     6    15     7    1
     7     7     8   am
     8     8     9    2
     9     8    10   am
    10     1    10    1
    11     1     2    1
    12     2     3    1
    13     3    22    1
    14    22    23    1
    15    23    24    1
    16     3     4    1
    17     4     5    1
    18     5     6    1
    19     6    25    1
    20    25    26    1
    21    26    27    1
    22    27    28    1
    23    28    29    1
    24    29    30    1
    25    30    32    1
    26    32    33    1
    27    33    34   ar
    28    34    35   ar
    29    35    36   ar
    30    36    37    1
    31    36    38   ar
    32    38    39   ar
    33    30    31    1
    34    15    16   ar
    35    16    17   ar
    36    17    18    1
    37    17    13   ar
    38     6     1    1
    39    31    26    1
    40    39    33   ar
    41     7    11    1
    42    10    12    1
@<TRIPOS>MOLECULE
*****
 39 42 0 0 0
SMALL
GASTEIGER

@<TRIPOS>ATOM
      1 C           6.3533   -3.4966   24.2985 C.3     1  UNL1        0.0903
      2 C           6.8327   -4.5333   25.2708 C.3     1  UNL1        0.0920
      3 N           8.1570   -5.2049   25.0587 N.3     1  UNL1       -0.2689
      4 C           9.0021   -4.8397   23.8745 C.3     1  UNL1        0.0723
      5 C           8.5227   -3.8029   22.9022 C.3     1  UNL1        0.0204
      6 C           7.1984   -3.1313   23.1142 C.3     1  UNL1        0.0368
      7 N           3.5165   -1.2133   25.8762 N.am    1  UNL1       -0.2485
      8 C           4.8409   -1.8849   25.6642 C.2     1  UNL1        0.3059
      9 O           5.9773   -1.6164   26.6058 O.2     1  UNL1       -0.2524
     10 N           5.0289   -2.8249   24.5105 N.am    1  UNL1       -0.2889
     11 H           2.7707   -1.3894   25.2582 H       1  UNL1        0.1583
     12 H           4.2831   -3.0011   23.8925 H       1  UNL1        0.1510
     13 C           2.6594    0.6431   29.1755 C.ar    1  UNL1        0.0803
     14 S           2.6036   -0.5787   28.3071 S.2     1  UNL1       -0.0488
     15 C           3.3285   -0.2732   27.0299 C.ar    1  UNL1        0.1664
     16 N           3.8323    1.1375   27.1089 N.ar    1  UNL1       -0.2282
     17 C           3.4188    1.7038   28.4349 C.ar    1  UNL1        0.0701
     18 C           3.7130    3.0878   28.9330 C.3     1  UNL1        0.0528
     19 C           2.9189    0.5919   31.7600 C.3     1  UNL1        0.0779
     20 C           2.0610    0.7802   30.5441 C.2     1  UNL1        0.1807
     21 O           0.6048    1.1055   30.6967 O.2     1  UNL1       -0.2908
     22 C           8.6364   -6.2417   26.0310 C.3     1  UNL1        0.1107
     23 C           8.2420   -7.6777   25.8512 C.3     1  UNL1        0.2105
     24 F           6.8214   -8.0999   26.0826 F       1  UNL1       -0.2328
     25 C           6.7190   -2.0945   22.1420 C.3     1  UNL1        0.0738
     26 N           5.7114   -2.4596   21.0924 N.3     1  UNL1       -0.2726
     27 C           5.3552   -3.8985   20.8630 C.3     1  UNL1        0.0721
     28 C           4.3477   -4.2636   19.8134 C.3     1  UNL1        0.0174
     29 C           3.6964   -3.1896   18.9932 C.3     1  UNL1        0.0031
     30 C           4.0526   -1.7508   19.2227 C.3     1  UNL1        0.0204
     31 C           5.0602   -1.3857   20.2722 C.3     1  UNL1        0.0724
     32 C           3.4013   -0.6769   18.4025 C.3     1  UNL1        0.0277
     33 C           2.2667    0.1198   18.9750 C.ar    1  UNL1       -0.0220
     34 C           2.0324    1.5285   18.5157 C.ar    1  UNL1       -0.0020
     35 C           0.8978    2.3252   19.0882 C.ar    1  UNL1        0.0293
     36 C          -0.0027    1.7132   20.1201 C.ar    1  UNL1        0.1401
     37 F          -1.1374    2.5099   20.6926 F       1  UNL1       -0.2042
     38 C           0.2316    0.3046   20.5794 C.ar    1  UNL1        0.0293
     39 C           1.3662   -0.4920   20.0069 C.ar    1  UNL1       -0.0020
@<TRIPOS>BOND
     1    19    20    1
     2    20    21    2
     3    20    13    1
     4    13    14   ar
     5    14    15   ar
     6    15     7    1
     7     7     8   am
     8     8     9    2
     9     8    10   am
    10     1    10    1
    11     1     2    1
    12     2     3    1
    13     3    22    1
    14    22    23    1
    15    23    24    1
    16     3     4    1
    17     4     5    1
    18     5     6    1
    19     6    25    1
    20    25    26    1
    21    26    27    1
    22    27    28    1
    23    28    29    1
    24    29    30    1
    25    30    32    1
    26    32    33    1
    27    33    34   ar
    28    34    35   ar
    29    35    36   ar
    30    36    37    1
    31    36    38   ar
    32    38    39   ar
    33    30    31    1
    34    15    16   ar
    35    16    17   ar
    36    17    18    1
    37    17    13   ar
    38     6     1    1
    39    31    26    1
    40    39    33   ar
    41     7    11    1
    42    10    12    1
@<TRIPOS>MOLECULE
*****
 39 42 0 0 0
SMALL
GASTEIGER

@<TRIPOS>ATOM
      1 C           7.6693   -3.0282   23.4053 C.3     1  UNL1        0.0903
      2 C           7.8328   -3.6325   24.7683 C.3     1  UNL1        0.0920
      3 N           8.2965   -5.0521   24.9086 N.3     1  UNL1       -0.2689
      4 C           8.5967   -5.8674   23.6858 C.3     1  UNL1        0.0723
      5 C           8.4331   -5.2631   22.3228 C.3     1  UNL1        0.0204
      6 C           7.9694   -3.8435   22.1825 C.3     1  UNL1        0.0368
      7 N           5.2754    0.1263   23.1433 N.am    1  UNL1       -0.2485
      8 C           5.7392   -1.2933   23.2836 C.2     1  UNL1        0.3059
      9 O           4.7365   -2.3976   23.4426 O.2     1  UNL1       -0.2524
     10 N           7.2055   -1.6086   23.2649 N.am    1  UNL1       -0.2889
     11 H           5.9335    0.8511   23.0389 H       1  UNL1        0.1583
     12 H           7.8636   -0.8838   23.1606 H       1  UNL1        0.1510
     13 C           1.5482    0.9511   22.4412 C.ar    1  UNL1        0.0803
     14 S           2.9401    0.6662   21.9601 S.2     1  UNL1       -0.0488
     15 C           3.8091    0.4416   23.1620 C.ar    1  UNL1        0.1664
     16 N           2.9542    0.5877   24.3858 N.ar    1  UNL1       -0.2282
     17 C           1.5569    0.9026   23.9403 C.ar    1  UNL1        0.0701
     18 C           0.3757    1.1292   24.8367 C.3     1  UNL1        0.0528
     19 C          -0.2284    2.6152   21.5332 C.3     1  UNL1        0.0779
     20 C           0.3568    1.2347   21.5750 C.2     1  UNL1        0.1807
     21 O          -0.2493    0.1379   20.7508 O.2     1  UNL1       -0.2908
     22 C           8.4601   -5.6565   26.2718 C.3     1  UNL1        0.1107
     23 C           7.4211   -6.5983   26.8042 C.3     1  UNL1        0.2105
     24 F           6.0192   -6.1167   27.0334 F       1  UNL1       -0.2328
     25 C           7.8058   -3.2392   20.8193 C.3     1  UNL1        0.0738
     26 N           6.4448   -3.1557   20.1944 N.3     1  UNL1       -0.2726
     27 C           5.3704   -4.1184   20.6056 C.3     1  UNL1        0.0721
     28 C           4.0093   -4.0350   19.9806 C.3     1  UNL1        0.0174
     29 C           3.7227   -2.9889   18.9444 C.3     1  UNL1        0.0031
     30 C           4.7970   -2.0264   18.5332 C.3     1  UNL1        0.0204
     31 C           6.1581   -2.1098   19.1582 C.3     1  UNL1        0.0724
     32 C           4.5104   -0.9803   17.4970 C.3     1  UNL1        0.0277
     33 C           3.8792    0.3199   17.8984 C.ar    1  UNL1       -0.0220
     34 C           2.3880    0.4219   18.0257 C.ar    1  UNL1       -0.0020
     35 C           1.7568    1.7220   18.4271 C.ar    1  UNL1        0.0293
     36 C           2.6167    2.9202   18.7013 C.ar    1  UNL1        0.1401
     37 F           1.9855    4.2203   19.1027 F       1  UNL1       -0.2042
     38 C           4.1078    2.8181   18.5740 C.ar    1  UNL1        0.0293
     39 C           4.7390    1.5179   18.1726 C.ar    1  UNL1       -0.0020
@<TRIPOS>BOND
     1    19    20    1
     2    20    21    2
     3    20    13    1
     4    13    14   ar
     5    14    15   ar
     6    15     7    1
     7     7     8   am
     8     8     9    2
     9     8    10   am
    10     1    10    1
    11     1     2    1
    12     2     3    1
    13     3    22    1
    14    22    23    1
    15    23    24    1
    16     3     4    1
    17     4     5    1
    18     5     6    1
    19     6    25    1
    20    25    26    1
    21    26    27    1
    22    27    28    1
    23    28    29    1
    24    29    30    1
    25    30    32    1
    26    32    33    1
    27    33    34   ar
    28    34    35   ar
    29    35    36   ar
    30    36    37    1
    31    36    38   ar
    32    38    39   ar
    33    30    31    1
    34    15    16   ar
    35    16    17   ar
    36    17    18    1
    37    17    13   ar
    38     6     1    1
    39    31    26    1
    40    39    33   ar
    41     7    11    1
    42    10    12    1
@<TRIPOS>MOLECULE
*****
 39 42 0 0 0
SMALL
GASTEIGER

@<TRIPOS>ATOM
      1 C           3.8518   -0.6863   27.6733 C.3     1  UNL1        0.0903
      2 C           2.4082   -0.6325   28.0771 C.3     1  UNL1        0.0920
      3 N           1.9265    0.4505   28.9963 N.3     1  UNL1       -0.2689
      4 C           2.8884    1.4797   29.5117 C.3     1  UNL1        0.0723
      5 C           4.3320    1.4259   29.1078 C.3     1  UNL1        0.0204
      6 C           4.8137    0.3428   28.1886 C.3     1  UNL1        0.0368
      7 N           4.6034   -2.7293   24.3549 N.am    1  UNL1       -0.2485
      8 C           4.1216   -1.6463   25.2742 C.2     1  UNL1        0.3059
      9 O           3.4279   -0.4402   24.7136 O.2     1  UNL1       -0.2524
     10 N           4.3335   -1.7694   26.7540 N.am    1  UNL1       -0.2889
     11 H           5.0586   -3.5209   24.7228 H       1  UNL1        0.1583
     12 H           4.7888   -2.5610   27.1220 H       1  UNL1        0.1510
     13 C           4.4925   -3.0232   20.4862 C.ar    1  UNL1        0.0803
     14 S           4.9580   -3.5149   21.8247 S.2     1  UNL1       -0.0488
     15 C           4.3914   -2.6063   22.8751 C.ar    1  UNL1        0.1664
     16 N           3.5757   -1.5530   22.1857 N.ar    1  UNL1       -0.2282
     17 C           3.6382   -1.8106   20.7094 C.ar    1  UNL1        0.0701
     18 C           2.9646   -0.9983   19.6433 C.3     1  UNL1        0.0528
     19 C           4.4072   -5.0461   18.8581 C.3     1  UNL1        0.0779
     20 C           4.8232   -3.6364   19.1578 C.2     1  UNL1        0.1807
     21 O           5.5698   -2.8400   18.1292 O.2     1  UNL1       -0.2908
     22 C           0.4829    0.5044   29.4002 C.3     1  UNL1        0.1107
     23 C          -0.5893    0.2131   28.3924 C.3     1  UNL1        0.2105
     24 F          -2.0012   -0.0153   28.8442 F       1  UNL1       -0.2328
     25 C           6.2573    0.2890   27.7847 C.3     1  UNL1        0.0738
     26 N           7.1228   -0.8467   28.2443 N.3     1  UNL1       -0.2726
     27 C           8.1559   -1.4232   27.3221 C.3     1  UNL1        0.0721
     28 C           9.0214   -2.5589   27.7816 C.3     1  UNL1        0.0174
     29 C           8.8537   -3.1181   29.1634 C.3     1  UNL1        0.0031
     30 C           7.8206   -2.5417   30.0855 C.3     1  UNL1        0.0204
     31 C           6.9551   -1.4060   29.6259 C.3     1  UNL1        0.0724
     32 C           7.6529   -3.1009   31.4673 C.3     1  UNL1        0.0277
     33 C           6.8113   -2.3737   32.4737 C.ar    1  UNL1       -0.0220
     34 C           7.3963   -1.2380   33.2599 C.ar    1  UNL1       -0.0020
     35 C           6.5547   -0.5107   34.2663 C.ar    1  UNL1        0.0293
     36 C           5.1282   -0.9191   34.4865 C.ar    1  UNL1        0.1401
     37 F           4.2867   -0.1918   35.4929 F       1  UNL1       -0.2042
     38 C           4.5433   -2.0547   33.7002 C.ar    1  UNL1        0.0293
     39 C           5.3849   -2.7820   32.6938 C.ar    1  UNL1       -0.0020
@<TRIPOS>BOND
     1    19    20    1
     2    20    21    2
     3    20    13    1
     4    13    14   ar
     5    14    15   ar
     6    15     7    1
     7     7     8   am
     8     8     9    2
     9     8    10   am
    10     1    10    1
    11     1     2    1
    12     2     3    1
    13     3    22    1
    14    22    23    1
    15    23    24    1
    16     3     4    1
    17     4     5    1
    18     5     6    1
    19     6    25    1
    20    25    26    1
    21    26    27    1
    22    27    28    1
    23    28    29    1
    24    29    30    1
    25    30    32    1
    26    32    33    1
    27    33    34   ar
    28    34    35   ar
    29    35    36   ar
    30    36    37    1
    31    36    38   ar
    32    38    39   ar
    33    30    31    1
    34    15    16   ar
    35    16    17   ar
    36    17    18    1
    37    17    13   ar
    38     6     1    1
    39    31    26    1
    40    39    33   ar
    41     7    11    1
    42    10    12    1
@<TRIPOS>MOLECULE
*****
 39 42 0 0 0
SMALL
GASTEIGER

@<TRIPOS>ATOM
      1 C           3.2641    0.8805   19.4610 C.3     1  UNL1        0.0903
      2 C           4.1592    1.1941   18.2990 C.3     1  UNL1        0.0920
      3 N           5.0180    0.1188   17.7023 N.3     1  UNL1       -0.2689
      4 C           4.9817   -1.2701   18.2676 C.3     1  UNL1        0.0723
      5 C           4.0866   -1.5837   19.4296 C.3     1  UNL1        0.0204
      6 C           3.2278   -0.5084   20.0264 C.3     1  UNL1        0.0368
      7 N           0.1735    3.2852   20.1061 N.am    1  UNL1       -0.2485
      8 C           1.0324    2.2099   19.5094 C.2     1  UNL1        0.3059
      9 O           0.5185    1.3887   18.3641 O.2     1  UNL1       -0.2524
     10 N           2.4052    1.9558   20.0578 N.am    1  UNL1       -0.2889
     11 H           0.5108    3.8242   20.8577 H       1  UNL1        0.1583
     12 H           2.7425    2.4948   20.8095 H       1  UNL1        0.1510
     13 C          -3.6133    3.6912   19.3574 C.ar    1  UNL1        0.0803
     14 S          -2.4940    3.3018   20.2769 S.2     1  UNL1       -0.0488
     15 C          -1.1993    3.5393   19.5576 C.ar    1  UNL1        0.1664
     16 N          -1.5185    4.0755   18.1936 N.ar    1  UNL1       -0.2282
     17 C          -3.0104    4.1694   18.0698 C.ar    1  UNL1        0.0701
     18 C          -3.7666    4.6561   16.8693 C.3     1  UNL1        0.0528
     19 C          -5.6147    4.2669   20.9108 C.3     1  UNL1        0.0779
     20 C          -5.0783    3.6157   19.6705 C.2     1  UNL1        0.1807
     21 O          -6.0069    2.8891   18.7434 O.2     1  UNL1       -0.2908
     22 C           5.9131    0.4324   16.5401 C.3     1  UNL1        0.1107
     23 C           7.0391    1.4100   16.7032 C.3     1  UNL1        0.2105
     24 F           6.7888    2.8784   16.5272 F       1  UNL1       -0.2328
     25 C           2.3326   -0.8220   21.1885 C.3     1  UNL1        0.0738
     26 N           2.8869   -0.8261   22.5823 N.3     1  UNL1       -0.2726
     27 C           3.8675   -1.8830   22.9964 C.3     1  UNL1        0.0721
     28 C           4.4217   -1.8872   24.3903 C.3     1  UNL1        0.0174
     29 C           3.9953   -0.8343   25.3700 C.3     1  UNL1        0.0031
     30 C           3.0147    0.2225   24.9559 C.3     1  UNL1        0.0204
     31 C           2.4605    0.2266   23.5621 C.3     1  UNL1        0.0724
     32 C           2.5884    1.2753   25.9357 C.3     1  UNL1        0.0277
     33 C           1.4309    1.0197   26.8549 C.ar    1  UNL1       -0.0220
     34 C           1.6006    0.1183   28.0418 C.ar    1  UNL1       -0.0020
     35 C           0.4431   -0.1373   28.9610 C.ar    1  UNL1        0.0293
     36 C          -0.8841    0.5085   28.6933 C.ar    1  UNL1        0.1401
     37 F          -2.0415    0.2529   29.6125 F       1  UNL1       -0.2042
     38 C          -1.0537    1.4098   27.5064 C.ar    1  UNL1        0.0293
     39 C           0.1038    1.6655   26.5872 C.ar    1  UNL1       -0.0020
@<TRIPOS>BOND
     1    19    20    1
     2    20    21    2
     3    20    13    1
     4    13    14   ar
     5    14    15   ar
     6    15     7    1
     7     7     8   am
     8     8     9    2
     9     8    10   am
    10     1    10    1
    11     1     2    1
    12     2     3    1
    13     3    22    1
    14    22    23    1
    15    23    24    1
    16     3     4    1
    17     4     5    1
    18     5     6    1
    19     6    25    1
    20    25    26    1
    21    26    27    1
    22    27    28    1
    23    28    29    1
    24    29    30    1
    25    30    32    1
    26    32    33    1
    27    33    34   ar
    28    34    35   ar
    29    35    36   ar
    30    36    37    1
    31    36    38   ar
    32    38    39   ar
    33    30    31    1
    34    15    16   ar
    35    16    17   ar
    36    17    18    1
    37    17    13   ar
    38     6     1    1
    39    31    26    1
    40    39    33   ar
    41     7    11    1
    42    10    12    1
