@<TRIPOS>MOLECULE
*****
 33 35 0 0 0
SMALL
GASTEIGER

@<TRIPOS>ATOM
      1 C          -9.8365  -17.4942   22.5083 C.ar    1  UNL1        0.1544
      2 S         -11.0774  -16.9805   23.1763 S.2     1  UNL1       -0.0714
      3 C         -12.2534  -17.7018   22.5873 C.ar    1  UNL1        0.0086
      4 C         -11.7392  -18.6613   21.5554 C.ar    1  UNL1        0.0040
      5 C         -10.2455  -18.5330   21.5066 C.ar    1  UNL1        0.0252
      6 C          -9.3228  -19.3077   20.6128 C.ar    1  UNL1        0.0015
      7 C          -9.7900  -19.7553   19.2596 C.ar    1  UNL1        0.0000
      8 C          -8.8674  -20.5298   18.3659 C.ar    1  UNL1       -0.0003
      9 C          -7.4774  -20.8568   18.8255 C.ar    1  UNL1       -0.0024
     10 C          -7.0102  -20.4092   20.1787 C.ar    1  UNL1        0.0004
     11 C          -7.9329  -19.6346   21.0724 C.ar    1  UNL1       -0.0023
     12 C          -5.6203  -20.7361   20.6383 C.3     1  UNL1        0.1343
     13 N          -4.6774  -19.6334   21.0192 N.ar    1  UNL1       -0.3036
     14 C          -4.4163  -19.1380   22.4107 C.ar    1  UNL1        0.0983
     15 C          -3.4075  -18.0309   22.3269 C.ar    1  UNL1        0.1193
     16 N          -3.0453  -17.8421   20.8835 N.ar    1  UNL1       -0.2223
     17 C          -3.8301  -18.8325   20.0753 C.ar    1  UNL1        0.1789
     18 S          -8.4330  -17.0475   22.7923 S.O2    1  UNL1        0.0838
     19 O          -8.4407  -17.8346   24.0691 O.2     1  UNL1       -0.1493
     20 O          -8.4252  -16.2604   21.5153 O.2     1  UNL1       -0.1493
     21 C          -6.7853  -15.3137   23.8066 C.2     1  UNL1        0.4205
     22 O          -7.9447  -14.4732   24.2533 O.2     1  UNL1       -0.2248
     23 N          -7.0295  -16.6008   23.0761 N.am    1  UNL1       -0.1502
     24 H          -6.2686  -17.1524   22.7830 H       1  UNL1        0.1800
     25 O          -5.3817  -14.8670   24.0905 O.3     1  UNL1       -0.4337
     26 C          -4.8004  -15.0463   25.4616 C.3     1  UNL1        0.2102
     27 C          -5.5095  -15.8994   26.4712 C.3     1  UNL1        0.0475
     28 C          -7.9444  -15.9805   27.3737 C.3     1  UNL1        0.0001
     29 C          -6.6028  -15.3123   27.3138 C.3     1  UNL1        0.0038
     30 C         -13.6911  -17.4991   22.9642 C.3     1  UNL1        0.0330
     31 C         -14.2704  -18.2357   24.1355 C.3     1  UNL1        0.0049
     32 C         -15.7179  -18.6291   24.1327 C.3     1  UNL1        0.0004
     33 C         -13.4021  -18.5788   25.3096 C.3     1  UNL1        0.0004
@<TRIPOS>BOND
     1    28    29    1
     2    29    27    1
     3    27    26    1
     4    26    25    1
     5    25    21    1
     6    21    22    2
     7    21    23   am
     8    23    18    1
     9    18    19    2
    10    18    20    2
    11    18     1    1
    12     1     2   ar
    13     2     3   ar
    14     3    30    1
    15    30    31    1
    16    31    32    1
    17    31    33    1
    18     3     4   ar
    19     4     5   ar
    20     5     6    1
    21     6     7   ar
    22     7     8   ar
    23     8     9   ar
    24     9    10   ar
    25    10    12    1
    26    12    13    1
    27    13    14   ar
    28    14    15   ar
    29    15    16   ar
    30    16    17   ar
    31    10    11   ar
    32     5     1   ar
    33    11     6   ar
    34    17    13   ar
    35    23    24    1
@<TRIPOS>MOLECULE
*****
 33 35 0 0 0
SMALL
GASTEIGER

@<TRIPOS>ATOM
      1 C          -9.4505  -18.3198   22.7263 C.ar    1  UNL1        0.1544
      2 S         -10.8557  -18.6617   22.3282 S.2     1  UNL1       -0.0714
      3 C         -11.7844  -17.7581   23.0841 C.ar    1  UNL1        0.0086
      4 C         -10.9531  -16.8579   23.9492 C.ar    1  UNL1        0.0040
      5 C          -9.5106  -17.2051   23.7281 C.ar    1  UNL1        0.0252
      6 C          -8.3348  -16.5521   24.3923 C.ar    1  UNL1        0.0015
      7 C          -8.3756  -16.2493   25.8608 C.ar    1  UNL1        0.0000
      8 C          -7.1998  -15.5963   26.5248 C.ar    1  UNL1       -0.0003
      9 C          -5.9831  -15.2461   25.7204 C.ar    1  UNL1       -0.0024
     10 C          -5.9423  -15.5489   24.2519 C.ar    1  UNL1        0.0004
     11 C          -7.1181  -16.2019   23.5878 C.ar    1  UNL1       -0.0023
     12 C          -4.7257  -15.1987   23.4474 C.3     1  UNL1        0.1343
     13 N          -3.7534  -16.2705   23.0528 N.ar    1  UNL1       -0.3036
     14 C          -3.7971  -17.7049   23.4896 C.ar    1  UNL1        0.0983
     15 C          -2.6373  -18.4171   22.8588 C.ar    1  UNL1        0.1193
     16 N          -1.8769  -17.4229   22.0321 N.ar    1  UNL1       -0.2223
     17 C          -2.5667  -16.0963   22.1519 C.ar    1  UNL1        0.1789
     18 S          -8.2040  -18.9774   22.2127 S.O2    1  UNL1        0.0838
     19 O          -8.4006  -20.1063   23.1805 O.2     1  UNL1       -0.1493
     20 O          -8.0073  -17.8484   21.2447 O.2     1  UNL1       -0.1493
     21 C          -6.9506  -20.2721   20.3411 C.2     1  UNL1        0.4205
     22 O          -8.1903  -20.2519   19.4968 O.2     1  UNL1       -0.2248
     23 N          -6.9575  -19.6348   21.6990 N.am    1  UNL1       -0.1502
     24 H          -6.1438  -19.6481   22.2531 H       1  UNL1        0.1800
     25 O          -5.7039  -20.9296   19.8274 O.3     1  UNL1       -0.4337
     26 C          -4.3605  -20.3457   20.1503 C.3     1  UNL1        0.2102
     27 C          -3.9424  -19.0420   19.5376 C.3     1  UNL1        0.0475
     28 C          -2.0803  -17.5221   18.5515 C.3     1  UNL1        0.0001
     29 C          -2.5420  -18.8668   19.0296 C.3     1  UNL1        0.0038
     30 C         -13.2815  -17.7553   22.9911 C.3     1  UNL1        0.0330
     31 C         -14.1049  -18.2728   24.1331 C.3     1  UNL1        0.0049
     32 C         -13.4619  -18.5363   25.4624 C.3     1  UNL1        0.0004
     33 C         -15.5714  -18.5268   23.9458 C.3     1  UNL1        0.0004
@<TRIPOS>BOND
     1    28    29    1
     2    29    27    1
     3    27    26    1
     4    26    25    1
     5    25    21    1
     6    21    22    2
     7    21    23   am
     8    23    18    1
     9    18    19    2
    10    18    20    2
    11    18     1    1
    12     1     2   ar
    13     2     3   ar
    14     3    30    1
    15    30    31    1
    16    31    32    1
    17    31    33    1
    18     3     4   ar
    19     4     5   ar
    20     5     6    1
    21     6     7   ar
    22     7     8   ar
    23     8     9   ar
    24     9    10   ar
    25    10    12    1
    26    12    13    1
    27    13    14   ar
    28    14    15   ar
    29    15    16   ar
    30    16    17   ar
    31    10    11   ar
    32     5     1   ar
    33    11     6   ar
    34    17    13   ar
    35    23    24    1
@<TRIPOS>MOLECULE
*****
 33 35 0 0 0
SMALL
GASTEIGER

@<TRIPOS>ATOM
      1 C          -8.2384  -17.8437   21.8258 C.ar    1  UNL1        0.1544
      2 S          -9.7160  -17.5998   21.9106 S.2     1  UNL1       -0.0714
      3 C         -10.3985  -18.5608   20.9828 C.ar    1  UNL1        0.0086
      4 C          -9.3426  -19.3986   20.3246 C.ar    1  UNL1        0.0040
      5 C          -8.0076  -18.9554   20.8456 C.ar    1  UNL1        0.0252
      6 C          -6.6757  -19.5242   20.4549 C.ar    1  UNL1        0.0015
      7 C          -6.3641  -20.9645   20.7344 C.ar    1  UNL1        0.0000
      8 C          -5.0323  -21.5332   20.3437 C.ar    1  UNL1       -0.0003
      9 C          -4.0119  -20.6615   19.6736 C.ar    1  UNL1       -0.0024
     10 C          -4.3235  -19.2211   19.3941 C.ar    1  UNL1        0.0004
     11 C          -5.6554  -18.6524   19.7848 C.ar    1  UNL1       -0.0023
     12 C          -3.3032  -18.3494   18.7240 C.3     1  UNL1        0.1343
     13 N          -2.1632  -17.7831   19.5175 N.ar    1  UNL1       -0.3036
     14 C          -0.7071  -18.0650   19.2936 C.ar    1  UNL1        0.0983
     15 C           0.0769  -17.2915   20.3121 C.ar    1  UNL1        0.1193
     16 N          -0.8948  -16.5315   21.1655 N.ar    1  UNL1       -0.2223
     17 C          -2.2793  -16.8353   20.6745 C.ar    1  UNL1        0.1789
     18 S          -7.1778  -17.1055   22.5874 S.O2    1  UNL1        0.0838
     19 O          -7.5143  -15.8498   21.8391 O.2     1  UNL1       -0.1493
     20 O          -6.8413  -18.3612   23.3358 O.2     1  UNL1       -0.1493
     21 C          -6.4964  -15.2344   24.2562 C.2     1  UNL1        0.4205
     22 O          -7.9361  -14.8395   24.4015 O.2     1  UNL1       -0.2248
     23 N          -6.1172  -16.3673   23.3491 N.am    1  UNL1       -0.1502
     24 H          -5.1723  -16.6265   23.2538 H       1  UNL1        0.1800
     25 O          -5.4356  -14.4962   25.0179 O.3     1  UNL1       -0.4337
     26 C          -5.2141  -14.7909   26.4719 C.3     1  UNL1        0.2102
     27 C          -5.9954  -15.8808   27.1438 C.3     1  UNL1        0.0475
     28 C          -8.4806  -16.5933   27.4005 C.3     1  UNL1        0.0001
     29 C          -7.3793  -15.6068   27.6534 C.3     1  UNL1        0.0038
     30 C         -11.8771  -18.6655   20.7534 C.3     1  UNL1        0.0330
     31 C         -12.8070  -17.6766   21.3917 C.3     1  UNL1        0.0049
     32 C         -13.0250  -16.3348   20.7576 C.3     1  UNL1        0.0004
     33 C         -13.5189  -18.0294   22.6640 C.3     1  UNL1        0.0004
@<TRIPOS>BOND
     1    28    29    1
     2    29    27    1
     3    27    26    1
     4    26    25    1
     5    25    21    1
     6    21    22    2
     7    21    23   am
     8    23    18    1
     9    18    19    2
    10    18    20    2
    11    18     1    1
    12     1     2   ar
    13     2     3   ar
    14     3    30    1
    15    30    31    1
    16    31    32    1
    17    31    33    1
    18     3     4   ar
    19     4     5   ar
    20     5     6    1
    21     6     7   ar
    22     7     8   ar
    23     8     9   ar
    24     9    10   ar
    25    10    12    1
    26    12    13    1
    27    13    14   ar
    28    14    15   ar
    29    15    16   ar
    30    16    17   ar
    31    10    11   ar
    32     5     1   ar
    33    11     6   ar
    34    17    13   ar
    35    23    24    1
@<TRIPOS>MOLECULE
*****
 33 35 0 0 0
SMALL
GASTEIGER

@<TRIPOS>ATOM
      1 C           1.8431    0.1178   20.8175 C.ar    1  UNL1        0.1544
      2 S           2.4816   -1.0593   20.1418 S.2     1  UNL1       -0.0714
      3 C           3.4281   -1.6958   21.1160 C.ar    1  UNL1        0.0086
      4 C           3.3746   -0.9121   22.3938 C.ar    1  UNL1        0.0040
      5 C           2.3950    0.2089   22.2093 C.ar    1  UNL1        0.0252
      6 C           2.0312    1.2398   23.2364 C.ar    1  UNL1        0.0015
      7 C           2.7482    2.5570   23.2636 C.ar    1  UNL1        0.0000
      8 C           2.3844    3.5879   24.2907 C.ar    1  UNL1       -0.0003
      9 C           1.3035    3.3015   25.2906 C.ar    1  UNL1       -0.0024
     10 C           0.5865    1.9843   25.2634 C.ar    1  UNL1        0.0004
     11 C           0.9503    0.9535   24.2363 C.ar    1  UNL1       -0.0023
     12 C          -0.4944    1.6980   26.2633 C.3     1  UNL1        0.1343
     13 N          -0.1744    0.9393   27.5170 N.ar    1  UNL1       -0.3036
     14 C           1.1992    0.6119   28.0232 C.ar    1  UNL1        0.0983
     15 C           1.0507   -0.1551   29.3038 C.ar    1  UNL1        0.1193
     16 N          -0.4147   -0.3017   29.5890 N.ar    1  UNL1       -0.2223
     17 C          -1.1718    0.3746   28.4848 C.ar    1  UNL1        0.1789
     18 S           0.8305    1.0417   20.2084 S.O2    1  UNL1        0.0838
     19 O          -0.2657    0.0913   20.5890 O.2     1  UNL1       -0.1493
     20 O           1.9268    1.9923   19.8278 O.2     1  UNL1       -0.1493
     21 C          -0.9664    2.8995   20.4725 C.2     1  UNL1        0.4205
     22 O          -0.7383    2.9094   21.9550 O.2     1  UNL1       -0.2248
     23 N          -0.1820    1.9657   19.5992 N.am    1  UNL1       -0.1502
     24 H          -0.3317    1.9592   18.6262 H       1  UNL1        0.1800
     25 O          -1.9790    3.8235   19.8632 O.3     1  UNL1       -0.4337
     26 C          -3.4403    3.4967   19.9498 C.3     1  UNL1        0.2102
     27 C          -4.2554    4.0041   21.1022 C.3     1  UNL1        0.0475
     28 C          -5.3315    3.6138   23.4345 C.3     1  UNL1        0.0001
     29 C          -4.6263    3.0792   22.2233 C.3     1  UNL1        0.0038
     30 C           4.2787   -2.9040   20.8577 C.3     1  UNL1        0.0330
     31 C           4.2766   -3.5469   19.5024 C.3     1  UNL1        0.0049
     32 C           5.1915   -3.0367   18.4288 C.3     1  UNL1        0.0004
     33 C           3.3596   -4.7002   19.2208 C.3     1  UNL1        0.0004
@<TRIPOS>BOND
     1    28    29    1
     2    29    27    1
     3    27    26    1
     4    26    25    1
     5    25    21    1
     6    21    22    2
     7    21    23   am
     8    23    18    1
     9    18    19    2
    10    18    20    2
    11    18     1    1
    12     1     2   ar
    13     2     3   ar
    14     3    30    1
    15    30    31    1
    16    31    32    1
    17    31    33    1
    18     3     4   ar
    19     4     5   ar
    20     5     6    1
    21     6     7   ar
    22     7     8   ar
    23     8     9   ar
    24     9    10   ar
    25    10    12    1
    26    12    13    1
    27    13    14   ar
    28    14    15   ar
    29    15    16   ar
    30    16    17   ar
    31    10    11   ar
    32     5     1   ar
    33    11     6   ar
    34    17    13   ar
    35    23    24    1
@<TRIPOS>MOLECULE
*****
 33 35 0 0 0
SMALL
GASTEIGER

@<TRIPOS>ATOM
      1 C           4.6452   -0.4567   32.9778 C.ar    1  UNL1        0.1544
      2 S           3.9683    0.3202   34.0678 S.2     1  UNL1       -0.0714
      3 C           4.7850    0.1735   35.3174 C.ar    1  UNL1        0.0086
      4 C           5.9667   -0.6941   34.9996 C.ar    1  UNL1        0.0040
      5 C           5.8803   -1.0836   33.5536 C.ar    1  UNL1        0.0252
      6 C           6.8574   -1.9481   32.8135 C.ar    1  UNL1        0.0015
      7 C           8.2658   -1.4771   32.6027 C.ar    1  UNL1        0.0000
      8 C           9.2429   -2.3417   31.8626 C.ar    1  UNL1       -0.0003
      9 C           8.8116   -3.6773   31.3333 C.ar    1  UNL1       -0.0024
     10 C           7.4032   -4.1483   31.5441 C.ar    1  UNL1        0.0004
     11 C           6.4261   -3.2837   32.2842 C.ar    1  UNL1       -0.0023
     12 C           6.9719   -5.4839   31.0149 C.3     1  UNL1        0.1343
     13 N           7.0945   -5.7856   29.5507 N.ar    1  UNL1       -0.3036
     14 C           6.2504   -5.2024   28.4565 C.ar    1  UNL1        0.0983
     15 C           6.7170   -5.7799   27.1531 C.ar    1  UNL1        0.1193
     16 N           7.8497   -6.7200   27.4418 N.ar    1  UNL1       -0.2223
     17 C           8.0830   -6.7236   28.9235 C.ar    1  UNL1        0.1789
     18 S           4.1704   -0.5843   31.5606 S.O2    1  UNL1        0.0838
     19 O           3.3504   -1.7806   31.9430 O.2     1  UNL1       -0.1493
     20 O           4.9905    0.6121   31.1781 O.2     1  UNL1       -0.1493
     21 C           2.3616   -0.1528   29.7462 C.2     1  UNL1        0.4205
     22 O           1.5023    0.5337   30.7661 O.2     1  UNL1       -0.2248
     23 N           3.6957   -0.7118   30.1435 N.am    1  UNL1       -0.1502
     24 H           4.2597   -1.1624   29.4741 H       1  UNL1        0.1800
     25 O           1.8869   -0.2804   28.3290 O.3     1  UNL1       -0.4337
     26 C           1.3238    0.9133   27.6163 C.3     1  UNL1        0.2102
     27 C          -0.1348    0.9608   27.2698 C.3     1  UNL1        0.0475
     28 C          -1.4966   -0.5458   28.8901 C.3     1  UNL1        0.0001
     29 C          -1.1671    0.8134   28.3480 C.3     1  UNL1        0.0038
     30 C           4.4746    0.7867   36.6507 C.3     1  UNL1        0.0330
     31 C           4.0108    2.2109   36.7315 C.3     1  UNL1        0.0049
     32 C           2.6145    2.5204   37.1837 C.3     1  UNL1        0.0004
     33 C           4.9433    3.3256   36.3600 C.3     1  UNL1        0.0004
@<TRIPOS>BOND
     1    28    29    1
     2    29    27    1
     3    27    26    1
     4    26    25    1
     5    25    21    1
     6    21    22    2
     7    21    23   am
     8    23    18    1
     9    18    19    2
    10    18    20    2
    11    18     1    1
    12     1     2   ar
    13     2     3   ar
    14     3    30    1
    15    30    31    1
    16    31    32    1
    17    31    33    1
    18     3     4   ar
    19     4     5   ar
    20     5     6    1
    21     6     7   ar
    22     7     8   ar
    23     8     9   ar
    24     9    10   ar
    25    10    12    1
    26    12    13    1
    27    13    14   ar
    28    14    15   ar
    29    15    16   ar
    30    16    17   ar
    31    10    11   ar
    32     5     1   ar
    33    11     6   ar
    34    17    13   ar
    35    23    24    1
@<TRIPOS>MOLECULE
*****
 33 35 0 0 0
SMALL
GASTEIGER

@<TRIPOS>ATOM
      1 C           2.0709    0.2236   20.2174 C.ar    1  UNL1        0.1544
      2 S           2.7837   -1.0934   20.1300 S.2     1  UNL1       -0.0714
      3 C           3.4352   -1.1792   18.7815 C.ar    1  UNL1        0.0086
      4 C           3.1251    0.0847   18.0356 C.ar    1  UNL1        0.0040
      5 C           2.2819    0.9517   18.9231 C.ar    1  UNL1        0.0252
      6 C           1.7442    2.3085   18.5768 C.ar    1  UNL1        0.0015
      7 C           2.6063    3.5236   18.7505 C.ar    1  UNL1        0.0000
      8 C           2.0686    4.8804   18.4043 C.ar    1  UNL1       -0.0003
      9 C           0.6687    5.0221   17.8844 C.ar    1  UNL1       -0.0024
     10 C          -0.1934    3.8070   17.7107 C.ar    1  UNL1        0.0004
     11 C           0.3443    2.4502   18.0569 C.ar    1  UNL1       -0.0023
     12 C          -1.5933    3.9487   17.1908 C.3     1  UNL1        0.1343
     13 N          -2.7564    3.8563   18.1335 N.ar    1  UNL1       -0.3036
     14 C          -4.2042    3.8026   17.7449 C.ar    1  UNL1        0.0983
     15 C          -5.0185    3.7145   19.0016 C.ar    1  UNL1        0.1193
     16 N          -4.0740    3.7138   20.1669 N.ar    1  UNL1       -0.2223
     17 C          -2.6759    3.8014   19.6304 C.ar    1  UNL1        0.1789
     18 S           1.2852    0.7245   21.3929 S.O2    1  UNL1        0.0838
     19 O           2.5420    1.2759   21.9981 O.2     1  UNL1       -0.1493
     20 O           0.0283    0.1730   20.7876 O.2     1  UNL1       -0.1493
     21 C           0.0117    2.6435   22.5951 C.2     1  UNL1        0.4205
     22 O           0.3098    3.5610   21.4464 O.2     1  UNL1       -0.2248
     23 N           0.4994    1.2253   22.5682 N.am    1  UNL1       -0.1502
     24 H           0.3037    0.6232   23.3221 H       1  UNL1        0.1800
     25 O          -0.7742    3.1444   23.7706 O.3     1  UNL1       -0.4337
     26 C          -0.2471    2.9525   25.1618 C.3     1  UNL1        0.2102
     27 C          -0.6593    1.7520   25.9610 C.3     1  UNL1        0.0475
     28 C          -0.9157    0.7386   28.3395 C.3     1  UNL1        0.0001
     29 C          -1.0364    1.9054   27.4047 C.3     1  UNL1        0.0038
     30 C           4.2531   -2.3274   18.2690 C.3     1  UNL1        0.0330
     31 C           4.4609   -3.5414   19.1252 C.3     1  UNL1        0.0049
     32 C           3.4403   -4.6407   19.1281 C.3     1  UNL1        0.0004
     33 C           5.6893   -3.6561   19.9785 C.3     1  UNL1        0.0004
@<TRIPOS>BOND
     1    28    29    1
     2    29    27    1
     3    27    26    1
     4    26    25    1
     5    25    21    1
     6    21    22    2
     7    21    23   am
     8    23    18    1
     9    18    19    2
    10    18    20    2
    11    18     1    1
    12     1     2   ar
    13     2     3   ar
    14     3    30    1
    15    30    31    1
    16    31    32    1
    17    31    33    1
    18     3     4   ar
    19     4     5   ar
    20     5     6    1
    21     6     7   ar
    22     7     8   ar
    23     8     9   ar
    24     9    10   ar
    25    10    12    1
    26    12    13    1
    27    13    14   ar
    28    14    15   ar
    29    15    16   ar
    30    16    17   ar
    31    10    11   ar
    32     5     1   ar
    33    11     6   ar
    34    17    13   ar
    35    23    24    1
@<TRIPOS>MOLECULE
*****
 33 35 0 0 0
SMALL
GASTEIGER

@<TRIPOS>ATOM
      1 C           1.8430    0.3999   20.1630 C.ar    1  UNL1        0.1544
      2 S           2.5567   -0.9174   20.0891 S.2     1  UNL1       -0.0714
      3 C           3.2815   -0.9790   18.7772 C.ar    1  UNL1        0.0086
      4 C           3.0158    0.3003   18.0404 C.ar    1  UNL1        0.0040
      5 C           2.1268    1.1525   18.8969 C.ar    1  UNL1        0.0252
      6 C           1.6119    2.5176   18.5483 C.ar    1  UNL1        0.0015
      7 C           2.4319    3.7324   18.8672 C.ar    1  UNL1        0.0000
      8 C           1.9170    5.0974   18.5186 C.ar    1  UNL1       -0.0003
      9 C           0.5821    5.2477   17.8512 C.ar    1  UNL1       -0.0024
     10 C          -0.2379    4.0328   17.5323 C.ar    1  UNL1        0.0004
     11 C           0.2770    2.6678   17.8809 C.ar    1  UNL1       -0.0023
     12 C          -1.5728    4.1831   16.8649 C.3     1  UNL1        0.1343
     13 N          -2.8327    3.9882   17.6553 N.ar    1  UNL1       -0.3036
     14 C          -2.9472    4.0080   19.1508 C.ar    1  UNL1        0.0983
     15 C          -4.3846    3.7714   19.5088 C.ar    1  UNL1        0.1193
     16 N          -5.1584    3.6054   18.2344 N.ar    1  UNL1       -0.2223
     17 C          -4.1993    3.7394   17.0890 C.ar    1  UNL1        0.1789
     18 S           0.9946    0.8802   21.3029 S.O2    1  UNL1        0.0838
     19 O          -0.2239    0.3173   20.6333 O.2     1  UNL1       -0.1493
     20 O           2.2131    1.4431   21.9726 O.2     1  UNL1       -0.1493
     21 C          -0.4294    2.7454   22.4178 C.2     1  UNL1        0.4205
     22 O          -0.1567    3.6501   21.2528 O.2     1  UNL1       -0.2248
     23 N           0.1463    1.3605   22.4428 N.am    1  UNL1       -0.1502
     24 H          -0.0327    0.7668   23.2075 H       1  UNL1        0.1800
     25 O          -1.2778    3.2258   23.5579 O.3     1  UNL1       -0.4337
     26 C          -2.3869    4.2041   23.3072 C.3     1  UNL1        0.2102
     27 C          -3.7340    3.9864   23.9299 C.3     1  UNL1        0.0475
     28 C          -6.1002    3.9535   22.8576 C.3     1  UNL1        0.0001
     29 C          -4.8048    3.2638   23.1674 C.3     1  UNL1        0.0038
     30 C           4.1241   -2.1195   18.2881 C.3     1  UNL1        0.0330
     31 C           4.4022   -3.2866   19.1885 C.3     1  UNL1        0.0049
     32 C           3.5078   -4.4903   19.1539 C.3     1  UNL1        0.0004
     33 C           5.5747   -3.2499   20.1234 C.3     1  UNL1        0.0004
@<TRIPOS>BOND
     1    28    29    1
     2    29    27    1
     3    27    26    1
     4    26    25    1
     5    25    21    1
     6    21    22    2
     7    21    23   am
     8    23    18    1
     9    18    19    2
    10    18    20    2
    11    18     1    1
    12     1     2   ar
    13     2     3   ar
    14     3    30    1
    15    30    31    1
    16    31    32    1
    17    31    33    1
    18     3     4   ar
    19     4     5   ar
    20     5     6    1
    21     6     7   ar
    22     7     8   ar
    23     8     9   ar
    24     9    10   ar
    25    10    12    1
    26    12    13    1
    27    13    14   ar
    28    14    15   ar
    29    15    16   ar
    30    16    17   ar
    31    10    11   ar
    32     5     1   ar
    33    11     6   ar
    34    17    13   ar
    35    23    24    1
@<TRIPOS>MOLECULE
*****
 33 35 0 0 0
SMALL
GASTEIGER

@<TRIPOS>ATOM
      1 C          -7.3787  -16.8911   23.1421 C.ar    1  UNL1        0.1544
      2 S          -7.3270  -15.8947   24.2622 S.2     1  UNL1       -0.0714
      3 C          -5.9472  -15.9287   24.8496 C.ar    1  UNL1        0.0086
      4 C          -5.1461  -16.9460   24.0925 C.ar    1  UNL1        0.0040
      5 C          -6.0308  -17.5408   23.0372 C.ar    1  UNL1        0.0252
      6 C          -5.6367  -18.5996   22.0503 C.ar    1  UNL1        0.0015
      7 C          -6.4426  -19.8599   21.9406 C.ar    1  UNL1        0.0000
      8 C          -6.0486  -20.9185   20.9538 C.ar    1  UNL1       -0.0003
      9 C          -4.8486  -20.7168   20.0766 C.ar    1  UNL1       -0.0024
     10 C          -4.0426  -19.4565   20.1864 C.ar    1  UNL1        0.0004
     11 C          -4.4367  -18.3979   21.1732 C.ar    1  UNL1       -0.0023
     12 C          -2.8426  -19.2549   19.3093 C.3     1  UNL1        0.1343
     13 N          -1.7647  -18.2969   19.7217 N.ar    1  UNL1       -0.3036
     14 C          -0.2876  -18.5493   19.6540 C.ar    1  UNL1        0.0983
     15 C           0.4155  -17.3266   20.1648 C.ar    1  UNL1        0.1193
     16 N          -0.6271  -16.3186   20.5482 N.ar    1  UNL1       -0.2223
     17 C          -1.9744  -16.9182   20.2744 C.ar    1  UNL1        0.1789
     18 S          -8.5692  -17.1859   22.2785 S.O2    1  UNL1        0.0838
     19 O          -8.1104  -16.1522   21.2931 O.2     1  UNL1       -0.1493
     20 O          -9.0280  -18.2196   23.2640 O.2     1  UNL1       -0.1493
     21 C         -11.0360  -16.7175   21.6112 C.2     1  UNL1        0.4205
     22 O         -11.1218  -15.6593   22.6709 O.2     1  UNL1       -0.2248
     23 N          -9.7597  -17.4807   21.4151 N.am    1  UNL1       -0.1502
     24 H          -9.7034  -18.1752   20.7195 H       1  UNL1        0.1800
     25 O         -12.2266  -17.0124   20.7476 O.3     1  UNL1       -0.4337
     26 C         -13.4113  -17.7302   21.3232 C.3     1  UNL1        0.2102
     27 C         -13.3056  -18.3984   22.6620 C.3     1  UNL1        0.0475
     28 C         -14.1394  -18.4488   25.1221 C.3     1  UNL1        0.0001
     29 C         -13.7479  -17.6741   23.8988 C.3     1  UNL1        0.0038
     30 C          -5.4550  -15.0922   25.9932 C.3     1  UNL1        0.0330
     31 C          -6.2744  -14.9754   27.2442 C.3     1  UNL1        0.0049
     32 C          -6.2919  -13.6868   28.0118 C.3     1  UNL1        0.0004
     33 C          -7.0764  -16.1473   27.7276 C.3     1  UNL1        0.0004
@<TRIPOS>BOND
     1    28    29    1
     2    29    27    1
     3    27    26    1
     4    26    25    1
     5    25    21    1
     6    21    22    2
     7    21    23   am
     8    23    18    1
     9    18    19    2
    10    18    20    2
    11    18     1    1
    12     1     2   ar
    13     2     3   ar
    14     3    30    1
    15    30    31    1
    16    31    32    1
    17    31    33    1
    18     3     4   ar
    19     4     5   ar
    20     5     6    1
    21     6     7   ar
    22     7     8   ar
    23     8     9   ar
    24     9    10   ar
    25    10    12    1
    26    12    13    1
    27    13    14   ar
    28    14    15   ar
    29    15    16   ar
    30    16    17   ar
    31    10    11   ar
    32     5     1   ar
    33    11     6   ar
    34    17    13   ar
    35    23    24    1
@<TRIPOS>MOLECULE
*****
 33 35 0 0 0
SMALL
GASTEIGER

@<TRIPOS>ATOM
      1 C           6.2452   -2.7328   23.8873 C.ar    1  UNL1        0.1544
      2 S           7.0029   -3.3139   25.0441 S.2     1  UNL1       -0.0714
      3 C           7.6417   -4.5912   24.5852 C.ar    1  UNL1        0.0086
      4 C           7.2787   -4.7995   23.1448 C.ar    1  UNL1        0.0040
      5 C           6.4157   -3.6509   22.7134 C.ar    1  UNL1        0.0252
      6 C           5.8265   -3.4549   21.3479 C.ar    1  UNL1        0.0015
      7 C           4.4804   -4.0309   21.0221 C.ar    1  UNL1        0.0000
      8 C           3.8913   -3.8349   19.6567 C.ar    1  UNL1       -0.0003
      9 C           4.6484   -3.0629   18.6170 C.ar    1  UNL1       -0.0024
     10 C           5.9945   -2.4870   18.9428 C.ar    1  UNL1        0.0004
     11 C           6.5836   -2.6830   20.3082 C.ar    1  UNL1       -0.0023
     12 C           6.7515   -1.7150   17.9031 C.3     1  UNL1        0.1343
     13 N           6.5536   -0.2336   17.7769 N.ar    1  UNL1       -0.3036
     14 C           7.6399    0.7948   17.6658 C.ar    1  UNL1        0.0983
     15 C           6.9923    2.1437   17.5599 C.ar    1  UNL1        0.1193
     16 N           5.5056    1.9489   17.6054 N.ar    1  UNL1       -0.2223
     17 C           5.2345    0.4798   17.7395 C.ar    1  UNL1        0.1789
     18 S           5.4556   -1.4575   23.9019 S.O2    1  UNL1        0.0838
     19 O           4.2216   -2.2256   24.2721 O.2     1  UNL1       -0.1493
     20 O           6.6897   -0.6893   23.5316 O.2     1  UNL1       -0.1493
     21 C           3.9803    0.2896   22.6686 C.2     1  UNL1        0.4205
     22 O           4.0839   -0.5139   21.4062 O.2     1  UNL1       -0.2248
     23 N           4.6662   -0.1822   23.9164 N.am    1  UNL1       -0.1502
     24 H           4.5982    0.3452   24.7449 H       1  UNL1        0.1800
     25 O           3.1908    1.5651   22.6832 O.3     1  UNL1       -0.4337
     26 C           2.1041    1.7860   21.6733 C.3     1  UNL1        0.2102
     27 C           0.9048    0.8854   21.6528 C.3     1  UNL1        0.0475
     28 C           1.2112    0.2425   19.1542 C.3     1  UNL1        0.0001
     29 C           0.7212   -0.0939   20.5314 C.3     1  UNL1        0.0038
     30 C           8.4937   -5.5005   25.4201 C.3     1  UNL1        0.0330
     31 C           8.4091   -6.9867   25.2354 C.3     1  UNL1        0.0049
     32 C           9.2994   -7.6707   24.2407 C.3     1  UNL1        0.0004
     33 C           7.4340   -7.7888   26.0453 C.3     1  UNL1        0.0004
@<TRIPOS>BOND
     1    28    29    1
     2    29    27    1
     3    27    26    1
     4    26    25    1
     5    25    21    1
     6    21    22    2
     7    21    23   am
     8    23    18    1
     9    18    19    2
    10    18    20    2
    11    18     1    1
    12     1     2   ar
    13     2     3   ar
    14     3    30    1
    15    30    31    1
    16    31    32    1
    17    31    33    1
    18     3     4   ar
    19     4     5   ar
    20     5     6    1
    21     6     7   ar
    22     7     8   ar
    23     8     9   ar
    24     9    10   ar
    25    10    12    1
    26    12    13    1
    27    13    14   ar
    28    14    15   ar
    29    15    16   ar
    30    16    17   ar
    31    10    11   ar
    32     5     1   ar
    33    11     6   ar
    34    17    13   ar
    35    23    24    1
