@<TRIPOS>MOLECULE
*****
 34 38 0 0 0
SMALL
GASTEIGER

@<TRIPOS>ATOM
      1 N          -2.3640  -17.5155   21.9233 N.3     1  UNL1       -0.2752
      2 C          -1.9095  -18.9222   21.6690 C.3     1  UNL1        0.0578
      3 C          -0.9093  -18.8914   20.5516 C.3     1  UNL1        0.0173
      4 C          -0.7456  -17.4656   20.1153 C.3     1  UNL1        0.0173
      5 C          -1.6446  -16.6152   20.9631 C.3     1  UNL1        0.0578
      6 C          -2.6243  -16.0219   21.9465 C.3     1  UNL1        0.0203
      7 C          -3.2654  -17.0412   22.8409 C.3     1  UNL1        0.0250
      8 C          -2.9080  -18.4914   22.7022 C.3     1  UNL1        0.0203
      9 C          -4.2639  -16.6104   23.8742 C.ar    1  UNL1       -0.0224
     10 C          -4.1160  -17.0656   25.2958 C.ar    1  UNL1       -0.0043
     11 C          -5.1144  -16.6347   26.3289 C.ar    1  UNL1        0.0035
     12 C          -6.2608  -15.7487   25.9405 C.ar    1  UNL1        0.0714
     13 C          -6.4087  -15.2935   24.5189 C.ar    1  UNL1        0.0035
     14 C          -5.4102  -15.7243   23.4857 C.ar    1  UNL1       -0.0043
     15 C          -7.2592  -15.3179   26.9737 C.3     1  UNL1        0.4186
     16 F          -8.4911  -15.0701   27.7930 F       1  UNL1       -0.1659
     17 F          -6.4461  -14.5309   27.9583 F       1  UNL1       -0.1659
     18 F          -8.3463  -16.0215   26.2166 F       1  UNL1       -0.1659
     19 C          -3.3624  -17.0847   22.9565 C.3     1  UNL1        0.0729
     20 C          -4.8189  -17.3871   22.7640 C.3     1  UNL1        0.0294
     21 C          -5.2574  -18.7822   22.4301 C.3     1  UNL1        0.0666
     22 S          -6.4606  -19.0026   21.5619 S.3     1  UNL1       -0.0756
     23 C          -9.9972  -17.8456   22.6661 C.ar    1  UNL1        0.2029
     24 N          -9.4655  -16.5921   22.0369 N.ar    1  UNL1       -0.1250
     25 N          -8.0759  -16.8729   21.5467 N.ar    1  UNL1       -0.1220
     26 C          -7.7489  -18.3000   21.8729 C.ar    1  UNL1        0.1933
     27 N          -8.9363  -18.9012   22.5647 N.ar    1  UNL1       -0.2860
     28 C          -9.3769  -20.2007   23.1707 C.3     1  UNL1        0.1341
     29 C         -12.8545  -17.1329   21.2600 C.3     1  UNL1        0.0556
     30 C         -12.6653  -17.6864   22.6412 C.ar    1  UNL1        0.1001
     31 N         -13.7563  -18.0095   23.6186 N.ar    1  UNL1       -0.2085
     32 C         -13.1172  -18.5368   24.8690 C.ar    1  UNL1        0.2849
     33 O         -11.6313  -18.5396   24.6644 O.2     1  UNL1       -0.4283
     34 C         -11.3519  -18.0140   23.2875 C.ar    1  UNL1        0.1964
@<TRIPOS>BOND
     1    29    30    1
     2    30    31   ar
     3    31    32   ar
     4    32    33   ar
     5    33    34   ar
     6    34    23    1
     7    23    24   ar
     8    24    25   ar
     9    25    26   ar
    10    26    22    1
    11    22    21    1
    12    21    20    1
    13    20    19    1
    14    19     1    1
    15     1     2    1
    16     2     3    1
    17     3     4    1
    18     5     4    1
    19     5     6    1
    20     6     7    1
    21     7     9    1
    22     9    10   ar
    23    10    11   ar
    24    11    12   ar
    25    12    15    1
    26    15    16    1
    27    15    17    1
    28    15    18    1
    29    12    13   ar
    30    13    14   ar
    31     7     8    1
    32    26    27   ar
    33    27    28    1
    34    34    30   ar
    35    27    23   ar
    36     5     1    1
    37    14     9   ar
    38     8     2    1
@<TRIPOS>MOLECULE
*****
 34 38 0 0 0
SMALL
GASTEIGER

@<TRIPOS>ATOM
      1 N          -7.2487  -15.9183   24.5628 N.3     1  UNL1       -0.2752
      2 C          -6.2245  -15.5272   23.5391 C.3     1  UNL1        0.0578
      3 C          -4.9791  -15.1116   24.2646 C.3     1  UNL1        0.0173
      4 C          -5.2337  -15.2458   25.7367 C.3     1  UNL1        0.0173
      5 C          -6.6364  -15.7444   25.9211 C.3     1  UNL1        0.0578
      6 C          -8.0575  -16.2404   25.8044 C.3     1  UNL1        0.0203
      7 C          -8.5331  -16.3644   24.3872 C.3     1  UNL1        0.0250
      8 C          -7.6166  -16.0078   23.2545 C.3     1  UNL1        0.0203
      9 C          -9.9253  -16.8451   24.1026 C.ar    1  UNL1       -0.0224
     10 C         -10.4388  -18.0898   24.7638 C.ar    1  UNL1       -0.0043
     11 C         -11.8309  -18.5704   24.4793 C.ar    1  UNL1        0.0035
     12 C         -12.7095  -17.8064   23.5336 C.ar    1  UNL1        0.0714
     13 C         -12.1960  -16.5617   22.8725 C.ar    1  UNL1        0.0035
     14 C         -10.8039  -16.0811   23.1570 C.ar    1  UNL1       -0.0043
     15 C         -14.1016  -18.2870   23.2492 C.3     1  UNL1        0.4186
     16 F         -15.5145  -18.7846   23.3295 F       1  UNL1       -0.1659
     17 F         -14.1897  -18.2786   21.7518 F       1  UNL1       -0.1659
     18 F         -14.3581  -18.4156   24.7215 F       1  UNL1       -0.1659
     19 C          -8.6408  -16.3990   24.2783 C.3     1  UNL1        0.0729
     20 C          -8.8789  -17.8345   23.9140 C.3     1  UNL1        0.0294
     21 C          -8.4993  -18.3355   22.5521 C.3     1  UNL1        0.0666
     22 S          -7.3448  -19.2802   22.3954 S.3     1  UNL1       -0.0756
     23 C          -4.0577  -18.4823   20.4919 C.ar    1  UNL1        0.2029
     24 N          -5.0502  -18.4860   19.3673 N.ar    1  UNL1       -0.1250
     25 N          -6.4024  -18.7853   19.9434 N.ar    1  UNL1       -0.1220
     26 C          -6.2455  -18.9666   21.4241 C.ar    1  UNL1        0.1933
     27 N          -4.7964  -18.7794   21.7631 N.ar    1  UNL1       -0.2860
     28 C          -3.8828  -18.7976   22.9527 C.3     1  UNL1        0.1341
     29 C          -2.4203  -16.0030   21.8416 C.3     1  UNL1        0.0556
     30 C          -1.8323  -17.0869   20.9876 C.ar    1  UNL1        0.1001
     31 N          -0.3884  -17.2215   20.6040 N.ar    1  UNL1       -0.2085
     32 C          -0.2487  -18.4443   19.7465 C.ar    1  UNL1        0.2849
     33 O          -1.6062  -19.0654   19.6001 O.2     1  UNL1       -0.4283
     34 C          -2.5849  -18.2265   20.3672 C.ar    1  UNL1        0.1964
@<TRIPOS>BOND
     1    29    30    1
     2    30    31   ar
     3    31    32   ar
     4    32    33   ar
     5    33    34   ar
     6    34    23    1
     7    23    24   ar
     8    24    25   ar
     9    25    26   ar
    10    26    22    1
    11    22    21    1
    12    21    20    1
    13    20    19    1
    14    19     1    1
    15     1     2    1
    16     2     3    1
    17     3     4    1
    18     5     4    1
    19     5     6    1
    20     6     7    1
    21     7     9    1
    22     9    10   ar
    23    10    11   ar
    24    11    12   ar
    25    12    15    1
    26    15    16    1
    27    15    17    1
    28    15    18    1
    29    12    13   ar
    30    13    14   ar
    31     7     8    1
    32    26    27   ar
    33    27    28    1
    34    34    30   ar
    35    27    23   ar
    36     5     1    1
    37    14     9   ar
    38     8     2    1
@<TRIPOS>MOLECULE
*****
 34 38 0 0 0
SMALL
GASTEIGER

@<TRIPOS>ATOM
      1 N          -7.2976  -15.8255   24.7604 N.3     1  UNL1       -0.2752
      2 C          -6.2180  -15.3078   23.8567 C.3     1  UNL1        0.0578
      3 C          -5.0401  -14.9356   24.7076 C.3     1  UNL1        0.0173
      4 C          -5.3917  -15.2232   26.1371 C.3     1  UNL1        0.0173
      5 C          -6.7868  -15.7732   26.1698 C.3     1  UNL1        0.0578
      6 C          -8.1796  -16.2908   25.9026 C.3     1  UNL1        0.0203
      7 C          -8.5515  -16.2842   24.4494 C.3     1  UNL1        0.0250
      8 C          -7.5707  -15.7927   23.4265 C.3     1  UNL1        0.0203
      9 C          -9.9043  -16.7690   24.0192 C.ar    1  UNL1       -0.0224
     10 C         -10.7016  -15.9808   23.0227 C.ar    1  UNL1       -0.0043
     11 C         -12.0542  -16.4656   22.5926 C.ar    1  UNL1        0.0035
     12 C         -12.6097  -17.7387   23.1589 C.ar    1  UNL1        0.0714
     13 C         -11.8125  -18.5269   24.1555 C.ar    1  UNL1        0.0035
     14 C         -10.4598  -18.0421   24.5856 C.ar    1  UNL1       -0.0043
     15 C         -13.9624  -18.2235   22.7287 C.3     1  UNL1        0.4186
     16 F         -15.1777  -18.6568   21.9635 F       1  UNL1       -0.1659
     17 F         -14.6799  -18.4895   24.0188 F       1  UNL1       -0.1659
     18 F         -13.5604  -18.0702   21.2918 F       1  UNL1       -0.1659
     19 C          -8.6503  -16.3104   24.3302 C.3     1  UNL1        0.0729
     20 C          -8.8181  -17.7118   23.8223 C.3     1  UNL1        0.0294
     21 C          -8.1246  -18.1414   22.5636 C.3     1  UNL1        0.0666
     22 S          -7.4000  -19.4539   22.5171 S.3     1  UNL1       -0.0756
     23 C          -4.0469  -19.4260   20.5625 C.ar    1  UNL1        0.2029
     24 N          -4.8451  -20.4057   19.7545 N.ar    1  UNL1       -0.1250
     25 N          -6.1984  -20.5355   20.3883 N.ar    1  UNL1       -0.1220
     26 C          -6.2365  -19.6359   21.5880 C.ar    1  UNL1        0.1933
     27 N          -4.9067  -18.9502   21.6956 N.ar    1  UNL1       -0.2860
     28 C          -4.1915  -17.9601   22.5665 C.3     1  UNL1        0.1341
     29 C          -3.1098  -17.2391   18.3289 C.3     1  UNL1        0.0556
     30 C          -2.2056  -17.9921   19.2591 C.ar    1  UNL1        0.1001
     31 N          -0.7119  -17.8721   19.3260 N.ar    1  UNL1       -0.2085
     32 C          -0.2194  -18.8031   20.3940 C.ar    1  UNL1        0.2849
     33 O          -1.4088  -19.4985   20.9872 O.2     1  UNL1       -0.4283
     34 C          -2.6363  -18.9973   20.2858 C.ar    1  UNL1        0.1964
@<TRIPOS>BOND
     1    29    30    1
     2    30    31   ar
     3    31    32   ar
     4    32    33   ar
     5    33    34   ar
     6    34    23    1
     7    23    24   ar
     8    24    25   ar
     9    25    26   ar
    10    26    22    1
    11    22    21    1
    12    21    20    1
    13    20    19    1
    14    19     1    1
    15     1     2    1
    16     2     3    1
    17     3     4    1
    18     5     4    1
    19     5     6    1
    20     6     7    1
    21     7     9    1
    22     9    10   ar
    23    10    11   ar
    24    11    12   ar
    25    12    15    1
    26    15    16    1
    27    15    17    1
    28    15    18    1
    29    12    13   ar
    30    13    14   ar
    31     7     8    1
    32    26    27   ar
    33    27    28    1
    34    34    30   ar
    35    27    23   ar
    36     5     1    1
    37    14     9   ar
    38     8     2    1
@<TRIPOS>MOLECULE
*****
 34 38 0 0 0
SMALL
GASTEIGER

@<TRIPOS>ATOM
      1 N          -2.4469  -17.5084   22.0056 N.3     1  UNL1       -0.2752
      2 C          -1.9045  -18.9006   21.8723 C.3     1  UNL1        0.0578
      3 C          -0.9260  -18.9100   20.7354 C.3     1  UNL1        0.0173
      4 C          -0.8636  -17.5236   20.1662 C.3     1  UNL1        0.0173
      5 C          -1.8036  -16.6574   20.9511 C.3     1  UNL1        0.0578
      6 C          -2.8051  -16.0391   21.8966 C.3     1  UNL1        0.0203
      7 C          -3.3634  -17.0096   22.8948 C.3     1  UNL1        0.0250
      8 C          -2.9131  -18.4403   22.8826 C.3     1  UNL1        0.0203
      9 C          -4.3721  -16.5493   23.9052 C.ar    1  UNL1       -0.0224
     10 C          -5.5352  -15.7062   23.4734 C.ar    1  UNL1       -0.0043
     11 C          -6.5438  -15.2460   24.4838 C.ar    1  UNL1        0.0035
     12 C          -6.3893  -15.6287   25.9258 C.ar    1  UNL1        0.0714
     13 C          -5.2261  -16.4717   26.3576 C.ar    1  UNL1        0.0035
     14 C          -4.2175  -16.9320   25.3473 C.ar    1  UNL1       -0.0043
     15 C          -7.3979  -15.1684   26.9362 C.3     1  UNL1        0.4186
     16 F          -8.6442  -14.8522   27.7087 F       1  UNL1       -0.1659
     17 F          -6.5691  -14.5339   28.0134 F       1  UNL1       -0.1659
     18 F          -8.5036  -15.7074   26.0778 F       1  UNL1       -0.1659
     19 C          -3.4555  -17.0482   23.0160 C.3     1  UNL1        0.0729
     20 C          -4.9107  -17.3520   22.8152 C.3     1  UNL1        0.0294
     21 C          -5.3449  -18.7448   22.4671 C.3     1  UNL1        0.0666
     22 S          -5.8289  -19.0554   21.0816 S.3     1  UNL1       -0.0756
     23 C          -9.6547  -18.4227   20.9164 C.ar    1  UNL1        0.2029
     24 N          -9.3877  -18.9459   19.5363 N.ar    1  UNL1       -0.1250
     25 N          -7.9220  -19.2466   19.4302 N.ar    1  UNL1       -0.1220
     26 C          -7.2832  -18.9092   20.7448 C.ar    1  UNL1        0.1933
     27 N          -8.3542  -18.4000   21.6633 N.ar    1  UNL1       -0.2860
     28 C          -8.5192  -17.8882   23.0637 C.3     1  UNL1        0.1341
     29 C         -11.4985  -15.9872   19.7681 C.3     1  UNL1        0.0556
     30 C         -11.8358  -16.8774   20.9274 C.ar    1  UNL1        0.1001
     31 N         -13.0798  -16.8044   21.7623 N.ar    1  UNL1       -0.2085
     32 C         -13.0012  -17.8788   22.8061 C.ar    1  UNL1        0.2849
     33 O         -11.7086  -18.6157   22.6163 O.2     1  UNL1       -0.4283
     34 C         -10.9883  -17.9969   21.4552 C.ar    1  UNL1        0.1964
@<TRIPOS>BOND
     1    29    30    1
     2    30    31   ar
     3    31    32   ar
     4    32    33   ar
     5    33    34   ar
     6    34    23    1
     7    23    24   ar
     8    24    25   ar
     9    25    26   ar
    10    26    22    1
    11    22    21    1
    12    21    20    1
    13    20    19    1
    14    19     1    1
    15     1     2    1
    16     2     3    1
    17     3     4    1
    18     5     4    1
    19     5     6    1
    20     6     7    1
    21     7     9    1
    22     9    10   ar
    23    10    11   ar
    24    11    12   ar
    25    12    15    1
    26    15    16    1
    27    15    17    1
    28    15    18    1
    29    12    13   ar
    30    13    14   ar
    31     7     8    1
    32    26    27   ar
    33    27    28    1
    34    34    30   ar
    35    27    23   ar
    36     5     1    1
    37    14     9   ar
    38     8     2    1
@<TRIPOS>MOLECULE
*****
 34 38 0 0 0
SMALL
GASTEIGER

@<TRIPOS>ATOM
      1 N          -7.8175  -15.9502   25.6693 N.3     1  UNL1       -0.2752
      2 C          -8.1671  -16.6624   26.9424 C.3     1  UNL1        0.0578
      3 C          -7.0672  -16.4116   27.9310 C.3     1  UNL1        0.0173
      4 C          -6.0378  -15.5444   27.2689 C.3     1  UNL1        0.0173
      5 C          -6.5014  -15.2593   25.8711 C.3     1  UNL1        0.0578
      6 C          -7.2061  -15.1424   24.5411 C.3     1  UNL1        0.0203
      7 C          -8.5086  -15.8843   24.4872 C.3     1  UNL1        0.0250
      8 C          -8.9891  -16.6443   25.6878 C.3     1  UNL1        0.0203
      9 C          -9.3307  -15.8663   23.2325 C.ar    1  UNL1       -0.0224
     10 C          -8.7426  -15.3369   21.9582 C.ar    1  UNL1       -0.0043
     11 C          -9.5646  -15.3188   20.7037 C.ar    1  UNL1        0.0035
     12 C         -10.9746  -15.8301   20.7234 C.ar    1  UNL1        0.0714
     13 C         -11.5627  -16.3595   21.9978 C.ar    1  UNL1        0.0035
     14 C         -10.7407  -16.3776   23.2523 C.ar    1  UNL1       -0.0043
     15 C         -11.7966  -15.8121   19.4688 C.3     1  UNL1        0.4186
     16 F         -12.8483  -15.9955   18.4151 F       1  UNL1       -0.1659
     17 F         -10.9764  -15.0020   18.5091 F       1  UNL1       -0.1659
     18 F         -12.8469  -16.6425   20.1450 F       1  UNL1       -0.1659
     19 C          -8.6395  -15.9322   24.4148 C.3     1  UNL1        0.0729
     20 C          -8.1783  -16.6896   23.2049 C.3     1  UNL1        0.0294
     21 C          -8.1077  -18.1874   23.2397 C.3     1  UNL1        0.0666
     22 S          -7.1177  -18.9119   22.3766 S.3     1  UNL1       -0.0756
     23 C          -3.4555  -18.0414   21.4302 C.ar    1  UNL1        0.2029
     24 N          -3.7013  -17.0782   22.5534 N.ar    1  UNL1       -0.1250
     25 N          -5.1031  -17.2870   23.0447 N.ar    1  UNL1       -0.1220
     26 C          -5.7236  -18.3793   22.2251 C.ar    1  UNL1        0.1933
     27 N          -4.7053  -18.8456   21.2272 N.ar    1  UNL1       -0.2860
     28 C          -4.5573  -19.8437   20.1173 C.3     1  UNL1        0.1341
     29 C          -2.9709  -17.0261   18.3669 C.3     1  UNL1        0.0556
     30 C          -1.9604  -17.7101   19.2393 C.ar    1  UNL1        0.1001
     31 N          -0.5498  -18.0475   18.8568 N.ar    1  UNL1       -0.2085
     32 C           0.0993  -18.7227   20.0284 C.ar    1  UNL1        0.2849
     33 O          -0.9102  -18.8026   21.1350 O.2     1  UNL1       -0.4283
     34 C          -2.1832  -18.1768   20.6473 C.ar    1  UNL1        0.1964
@<TRIPOS>BOND
     1    29    30    1
     2    30    31   ar
     3    31    32   ar
     4    32    33   ar
     5    33    34   ar
     6    34    23    1
     7    23    24   ar
     8    24    25   ar
     9    25    26   ar
    10    26    22    1
    11    22    21    1
    12    21    20    1
    13    20    19    1
    14    19     1    1
    15     1     2    1
    16     2     3    1
    17     3     4    1
    18     5     4    1
    19     5     6    1
    20     6     7    1
    21     7     9    1
    22     9    10   ar
    23    10    11   ar
    24    11    12   ar
    25    12    15    1
    26    15    16    1
    27    15    17    1
    28    15    18    1
    29    12    13   ar
    30    13    14   ar
    31     7     8    1
    32    26    27   ar
    33    27    28    1
    34    34    30   ar
    35    27    23   ar
    36     5     1    1
    37    14     9   ar
    38     8     2    1
@<TRIPOS>MOLECULE
*****
 34 38 0 0 0
SMALL
GASTEIGER

@<TRIPOS>ATOM
      1 N         -11.7411   -6.2476   18.4936 N.3     1  UNL1       -0.2752
      2 C         -10.6248   -6.6385   17.5710 C.3     1  UNL1        0.0578
      3 C          -9.4757   -5.7051   17.8121 C.3     1  UNL1        0.0173
      4 C          -9.8817   -4.7372   18.8837 C.3     1  UNL1        0.0173
      5 C         -11.2818   -5.0725   19.3049 C.3     1  UNL1        0.0578
      6 C         -12.6682   -5.6292   19.5218 C.3     1  UNL1        0.0203
      7 C         -12.9867   -6.8009   18.6411 C.3     1  UNL1        0.0250
      8 C         -11.9650   -7.3056   17.6657 C.3     1  UNL1        0.0203
      9 C         -14.3269   -7.4680   18.7358 C.ar    1  UNL1       -0.0224
     10 C         -15.4837   -6.7422   19.3565 C.ar    1  UNL1       -0.0043
     11 C         -16.8238   -7.4092   19.4512 C.ar    1  UNL1        0.0035
     12 C         -17.0073   -8.8020   18.9253 C.ar    1  UNL1        0.0714
     13 C         -15.8505   -9.5277   18.3046 C.ar    1  UNL1        0.0035
     14 C         -14.5104   -8.8607   18.2099 C.ar    1  UNL1       -0.0043
     15 C         -18.3475   -9.4690   19.0200 C.3     1  UNL1        0.4186
     16 F         -19.7513   -9.8730   19.3610 F       1  UNL1       -0.1659
     17 F         -18.2573  -10.6050   18.0448 F       1  UNL1       -0.1659
     18 F         -18.7747   -8.4644   20.0488 F       1  UNL1       -0.1659
     19 C         -13.0812   -6.9147   18.5883 C.3     1  UNL1        0.0729
     20 C         -14.2434   -6.3772   17.8070 C.3     1  UNL1        0.0294
     21 C         -14.0137   -5.7161   16.4803 C.3     1  UNL1        0.0666
     22 S         -14.1757   -4.2311   16.3443 S.3     1  UNL1       -0.0756
     23 C         -16.3059   -2.4390   19.0490 C.ar    1  UNL1        0.2029
     24 N         -14.9283   -1.9625   19.4025 N.ar    1  UNL1       -0.1250
     25 N         -13.9625   -2.5759   18.4323 N.ar    1  UNL1       -0.1220
     26 C         -14.7434   -3.4314   17.4792 C.ar    1  UNL1        0.1933
     27 N         -16.1917   -3.3468   17.8604 N.ar    1  UNL1       -0.2860
     28 C         -17.5265   -3.8779   17.4287 C.3     1  UNL1        0.1341
     29 C         -17.3352    0.5894   19.6962 C.3     1  UNL1        0.0556
     30 C         -18.0481   -0.6801   20.0569 C.ar    1  UNL1        0.1001
     31 N         -19.3594   -0.7805   20.7785 N.ar    1  UNL1       -0.2085
     32 C         -19.6966   -2.2345   20.9270 C.ar    1  UNL1        0.2849
     33 O         -18.5938   -3.0328   20.2972 O.2     1  UNL1       -0.4283
     34 C         -17.5750   -2.0721   19.7595 C.ar    1  UNL1        0.1964
@<TRIPOS>BOND
     1    29    30    1
     2    30    31   ar
     3    31    32   ar
     4    32    33   ar
     5    33    34   ar
     6    34    23    1
     7    23    24   ar
     8    24    25   ar
     9    25    26   ar
    10    26    22    1
    11    22    21    1
    12    21    20    1
    13    20    19    1
    14    19     1    1
    15     1     2    1
    16     2     3    1
    17     3     4    1
    18     5     4    1
    19     5     6    1
    20     6     7    1
    21     7     9    1
    22     9    10   ar
    23    10    11   ar
    24    11    12   ar
    25    12    15    1
    26    15    16    1
    27    15    17    1
    28    15    18    1
    29    12    13   ar
    30    13    14   ar
    31     7     8    1
    32    26    27   ar
    33    27    28    1
    34    34    30   ar
    35    27    23   ar
    36     5     1    1
    37    14     9   ar
    38     8     2    1
@<TRIPOS>MOLECULE
*****
 34 38 0 0 0
SMALL
GASTEIGER

@<TRIPOS>ATOM
      1 N          -5.4938  -15.9773   24.8898 N.3     1  UNL1       -0.2752
      2 C          -5.5047  -16.1959   26.3738 C.3     1  UNL1        0.0578
      3 C          -6.7698  -15.6035   26.9202 C.3     1  UNL1        0.0173
      4 C          -7.5407  -15.0189   25.7740 C.3     1  UNL1        0.0173
      5 C          -6.7521  -15.2499   24.5191 C.3     1  UNL1        0.0578
      6 C          -5.7603  -15.6160   23.4415 C.3     1  UNL1        0.0203
      7 C          -4.5528  -16.3388   23.9606 C.3     1  UNL1        0.0250
      8 C          -4.4250  -16.6287   25.4268 C.3     1  UNL1        0.0203
      9 C          -3.4730  -16.7717   23.0136 C.ar    1  UNL1       -0.0224
     10 C          -2.8740  -15.7836   22.0570 C.ar    1  UNL1       -0.0043
     11 C          -1.7943  -16.2165   21.1101 C.ar    1  UNL1        0.0035
     12 C          -1.3136  -17.6373   21.1196 C.ar    1  UNL1        0.0714
     13 C          -1.9126  -18.6254   22.0761 C.ar    1  UNL1        0.0035
     14 C          -2.9923  -18.1925   23.0231 C.ar    1  UNL1       -0.0043
     15 C          -0.2339  -18.0701   20.1725 C.3     1  UNL1        0.4186
     16 F           0.6280  -18.7933   19.1804 F       1  UNL1       -0.1659
     17 F           0.7721  -16.9593   20.2368 F       1  UNL1       -0.1659
     18 F          -1.0013  -19.3229   19.8701 F       1  UNL1       -0.1659
     19 C          -4.4140  -16.4102   23.9428 C.3     1  UNL1        0.0729
     20 C          -4.4739  -17.7674   23.3068 C.3     1  UNL1        0.0294
     21 C          -5.8010  -18.3790   22.9685 C.3     1  UNL1        0.0666
     22 S          -6.0502  -18.9148   21.5897 S.3     1  UNL1       -0.0756
     23 C          -9.7684  -18.3037   20.6588 C.ar    1  UNL1        0.2029
     24 N          -9.2576  -18.9475   19.4041 N.ar    1  UNL1       -0.1250
     25 N          -7.8025  -19.2548   19.6000 N.ar    1  UNL1       -0.1220
     26 C          -7.4141  -18.8009   20.9759 C.ar    1  UNL1        0.1933
     27 N          -8.6292  -18.2131   21.6303 N.ar    1  UNL1       -0.2860
     28 C          -9.0437  -17.5788   22.9249 C.3     1  UNL1        0.1341
     29 C         -11.1476  -15.6425   19.3683 C.3     1  UNL1        0.0556
     30 C         -11.8061  -16.6100   20.3067 C.ar    1  UNL1        0.1001
     31 N         -13.2142  -16.5240   20.8165 N.ar    1  UNL1       -0.2085
     32 C         -13.4505  -17.6941   21.7248 C.ar    1  UNL1        0.2849
     33 O         -12.1884  -18.5032   21.7763 O.2     1  UNL1       -0.4283
     34 C         -11.1721  -17.8332   20.8998 C.ar    1  UNL1        0.1964
@<TRIPOS>BOND
     1    29    30    1
     2    30    31   ar
     3    31    32   ar
     4    32    33   ar
     5    33    34   ar
     6    34    23    1
     7    23    24   ar
     8    24    25   ar
     9    25    26   ar
    10    26    22    1
    11    22    21    1
    12    21    20    1
    13    20    19    1
    14    19     1    1
    15     1     2    1
    16     2     3    1
    17     3     4    1
    18     5     4    1
    19     5     6    1
    20     6     7    1
    21     7     9    1
    22     9    10   ar
    23    10    11   ar
    24    11    12   ar
    25    12    15    1
    26    15    16    1
    27    15    17    1
    28    15    18    1
    29    12    13   ar
    30    13    14   ar
    31     7     8    1
    32    26    27   ar
    33    27    28    1
    34    34    30   ar
    35    27    23   ar
    36     5     1    1
    37    14     9   ar
    38     8     2    1
@<TRIPOS>MOLECULE
*****
 34 38 0 0 0
SMALL
GASTEIGER

@<TRIPOS>ATOM
      1 N         -11.8140   -5.9701   17.8424 N.3     1  UNL1       -0.2752
      2 C         -11.3121   -4.9649   16.8486 C.3     1  UNL1        0.0578
      3 C          -9.9824   -4.4630   17.3280 C.3     1  UNL1        0.0173
      4 C          -9.6625   -5.1580   18.6183 C.3     1  UNL1        0.0173
      5 C         -10.7945   -6.0894   18.9362 C.3     1  UNL1        0.0578
      6 C         -12.0522   -6.9221   18.9983 C.3     1  UNL1        0.0203
      7 C         -12.9763   -6.6970   17.8385 C.3     1  UNL1        0.0250
      8 C         -12.6063   -5.7184   16.7636 C.3     1  UNL1        0.0203
      9 C         -14.2706   -7.4506   17.7535 C.ar    1  UNL1       -0.0224
     10 C         -15.4045   -6.9041   16.9376 C.ar    1  UNL1       -0.0043
     11 C         -16.6986   -7.6576   16.8526 C.ar    1  UNL1        0.0035
     12 C         -16.8590   -8.9576   17.5836 C.ar    1  UNL1        0.0714
     13 C         -15.7251   -9.5041   18.3996 C.ar    1  UNL1        0.0035
     14 C         -14.4310   -8.7506   18.4845 C.ar    1  UNL1       -0.0043
     15 C         -18.1532   -9.7111   17.4986 C.3     1  UNL1        0.4186
     16 F         -19.5598  -10.1633   17.2393 F       1  UNL1       -0.1659
     17 F         -17.8620  -11.0116   18.1870 F       1  UNL1       -0.1659
     18 F         -18.7761   -8.5587   16.7680 F       1  UNL1       -0.1659
     19 C         -13.1082   -6.7236   17.7574 C.3     1  UNL1        0.0729
     20 C         -14.3796   -6.0870   18.2355 C.3     1  UNL1        0.0294
     21 C         -14.4967   -5.6208   19.6563 C.3     1  UNL1        0.0666
     22 S         -14.8051   -4.1826   19.9508 S.3     1  UNL1       -0.0756
     23 C         -12.9257   -1.0963   18.5340 C.ar    1  UNL1        0.2029
     24 N         -11.8130   -1.8154   19.2373 N.ar    1  UNL1       -0.1250
     25 N         -12.3816   -3.0591   19.8537 N.ar    1  UNL1       -0.1220
     26 C         -13.8457   -3.1086   19.5313 C.ar    1  UNL1        0.1933
     27 N         -14.1820   -1.8955   18.7157 N.ar    1  UNL1       -0.2860
     28 C         -15.3589   -1.2529   18.0433 C.3     1  UNL1        0.1341
     29 C         -10.9652   -0.5395   15.9853 C.3     1  UNL1        0.0556
     30 C         -11.9025    0.4513   16.6097 C.ar    1  UNL1        0.1001
     31 N         -12.1031    1.8720   16.1722 N.ar    1  UNL1       -0.2085
     32 C         -13.1283    2.4941   17.0732 C.ar    1  UNL1        0.2849
     33 O         -13.5612    1.4579   18.0677 O.2     1  UNL1       -0.4283
     34 C         -12.8036    0.1954   17.7812 C.ar    1  UNL1        0.1964
@<TRIPOS>BOND
     1    29    30    1
     2    30    31   ar
     3    31    32   ar
     4    32    33   ar
     5    33    34   ar
     6    34    23    1
     7    23    24   ar
     8    24    25   ar
     9    25    26   ar
    10    26    22    1
    11    22    21    1
    12    21    20    1
    13    20    19    1
    14    19     1    1
    15     1     2    1
    16     2     3    1
    17     3     4    1
    18     5     4    1
    19     5     6    1
    20     6     7    1
    21     7     9    1
    22     9    10   ar
    23    10    11   ar
    24    11    12   ar
    25    12    15    1
    26    15    16    1
    27    15    17    1
    28    15    18    1
    29    12    13   ar
    30    13    14   ar
    31     7     8    1
    32    26    27   ar
    33    27    28    1
    34    34    30   ar
    35    27    23   ar
    36     5     1    1
    37    14     9   ar
    38     8     2    1
@<TRIPOS>MOLECULE
*****
 34 38 0 0 0
SMALL
GASTEIGER

@<TRIPOS>ATOM
      1 N         -11.8183   -6.2701   18.5110 N.3     1  UNL1       -0.2752
      2 C         -10.6955   -6.6985   17.6134 C.3     1  UNL1        0.0578
      3 C          -9.5448   -5.7612   17.8308 C.3     1  UNL1        0.0173
      4 C          -9.9565   -4.7534   18.8628 C.3     1  UNL1        0.0173
      5 C         -11.3616   -5.0679   19.2832 C.3     1  UNL1        0.0578
      6 C         -12.7522   -5.6112   19.5075 C.3     1  UNL1        0.0203
      7 C         -13.0675   -6.8130   18.6671 C.3     1  UNL1        0.0250
      8 C         -12.0391   -7.3567   17.7201 C.3     1  UNL1        0.0203
      9 C         -14.4112   -7.4712   18.7739 C.ar    1  UNL1       -0.0224
     10 C         -14.5953   -8.8818   18.2983 C.ar    1  UNL1       -0.0043
     11 C         -15.9389   -9.5399   18.4050 C.ar    1  UNL1        0.0035
     12 C         -17.0985   -8.7874   18.9873 C.ar    1  UNL1        0.0714
     13 C         -16.9144   -7.3768   19.4629 C.ar    1  UNL1        0.0035
     14 C         -15.5708   -6.7187   19.3562 C.ar    1  UNL1       -0.0043
     15 C         -18.4421   -9.4456   19.0940 C.3     1  UNL1        0.4186
     16 F         -19.8343   -9.8599   19.4689 F       1  UNL1       -0.1659
     17 F         -18.4131  -10.5044   18.0318 F       1  UNL1       -0.1659
     18 F         -18.8072   -8.5186   20.2153 F       1  UNL1       -0.1659
     19 C         -13.1620   -6.9282   18.6177 C.3     1  UNL1        0.0729
     20 C         -14.3265   -6.3859   17.8431 C.3     1  UNL1        0.0294
     21 C         -14.1402   -5.9397   16.4233 C.3     1  UNL1        0.0666
     22 S         -14.6623   -4.6045   15.9821 S.3     1  UNL1       -0.0756
     23 C         -13.8848   -1.1023   17.4635 C.ar    1  UNL1        0.2029
     24 N         -12.5160   -1.7148   17.4341 N.ar    1  UNL1       -0.1250
     25 N         -12.6406   -3.1014   16.8756 N.ar    1  UNL1       -0.1220
     26 C         -14.0865   -3.3457   16.5598 C.ar    1  UNL1        0.1933
     27 N         -14.8555   -2.1101   16.9232 N.ar    1  UNL1       -0.2860
     28 C         -16.2612   -1.5867   16.9122 C.3     1  UNL1        0.1341
     29 C         -12.9102    1.7014   16.1073 C.3     1  UNL1        0.0556
     30 C         -13.7756    1.5649   17.3249 C.ar    1  UNL1        0.1001
     31 N         -14.3450    2.6933   18.1327 N.ar    1  UNL1       -0.2085
     32 C         -15.1449    2.1020   19.2555 C.ar    1  UNL1        0.2849
     33 O         -15.0698    0.6082   19.1414 O.2     1  UNL1       -0.4283
     34 C         -14.2236    0.2763   17.9482 C.ar    1  UNL1        0.1964
@<TRIPOS>BOND
     1    29    30    1
     2    30    31   ar
     3    31    32   ar
     4    32    33   ar
     5    33    34   ar
     6    34    23    1
     7    23    24   ar
     8    24    25   ar
     9    25    26   ar
    10    26    22    1
    11    22    21    1
    12    21    20    1
    13    20    19    1
    14    19     1    1
    15     1     2    1
    16     2     3    1
    17     3     4    1
    18     5     4    1
    19     5     6    1
    20     6     7    1
    21     7     9    1
    22     9    10   ar
    23    10    11   ar
    24    11    12   ar
    25    12    15    1
    26    15    16    1
    27    15    17    1
    28    15    18    1
    29    12    13   ar
    30    13    14   ar
    31     7     8    1
    32    26    27   ar
    33    27    28    1
    34    34    30   ar
    35    27    23   ar
    36     5     1    1
    37    14     9   ar
    38     8     2    1
