@<TRIPOS>MOLECULE
*****
 29 32 0 0 0
SMALL
GASTEIGER

@<TRIPOS>ATOM
      1 N          -5.7001  -16.9877   23.0973 N.3     1  UNL1       -0.2664
      2 C          -6.4608  -15.7663   23.5212 C.3     1  UNL1        0.0742
      3 C          -7.9424  -15.6909   23.2995 C.3     1  UNL1        0.0376
      4 C          -8.6634  -16.8370   22.6538 C.3     1  UNL1        0.0841
      5 C          -7.9027  -18.0583   22.2300 C.3     1  UNL1        0.0376
      6 C          -6.4211  -18.1337   22.4517 C.3     1  UNL1        0.0742
      7 N         -10.1450  -16.7617   22.4321 N.am    1  UNL1       -0.2423
      8 C         -10.8357  -15.9945   21.3439 C.2     1  UNL1        0.3309
      9 O         -10.1662  -15.1680   20.2862 O.2     1  UNL1       -0.2501
     10 N         -12.3136  -16.1990   21.4989 N.am    1  UNL1       -0.1647
     11 C         -12.5363  -17.0925   22.6830 C.2     1  UNL1        0.0706
     12 C         -13.7863  -17.6343   23.3105 C.3     1  UNL1        0.0705
     13 C         -13.6960  -18.5240   24.5148 C.2     1  UNL1       -0.0199
     14 C         -12.3557  -18.8718   25.0916 C.2     1  UNL1       -0.0029
     15 C         -11.1057  -18.3299   24.4641 C.2     1  UNL1        0.0156
     16 C         -11.1960  -17.4403   23.2598 C.2     1  UNL1        0.0668
     17 C          -4.2185  -17.0630   23.3191 C.3     1  UNL1        0.1350
     18 C          -3.6805  -17.5196   24.6427 C.3     1  UNL1        0.0272
     19 C          -4.2754  -21.1750   19.8066 C.3     1  UNL1        0.0189
     20 C          -3.5535  -19.8612   19.8582 C.3     1  UNL1        0.0741
     21 C          -3.7752  -18.9284   21.0118 C.3     1  UNL1        0.1091
     22 N          -3.0533  -17.6146   21.0634 N.am    1  UNL1       -0.2757
     23 C          -3.2750  -16.6819   22.2171 C.2     1  UNL1        0.2402
     24 O          -2.5531  -15.3680   22.2687 O.2     1  UNL1       -0.2734
     25 C          -2.1098  -17.2335   19.9613 C.3     1  UNL1        0.1091
     26 C          -1.8882  -18.1662   18.8077 C.3     1  UNL1        0.0741
     27 C          -0.9446  -17.7851   17.7057 C.3     1  UNL1        0.0189
     28 N          -2.6100  -19.4801   18.7561 N.3     1  UNL1       -0.2969
     29 H          -1.8958  -20.2071   18.7155 H       1  UNL1        0.1233
@<TRIPOS>BOND
     1    20    19    1
     2    20    21    1
     3    21    22    1
     4    22    23   am
     5    23    24    2
     6    23    17    1
     7    17    18    1
     8    17     1    1
     9     1     2    1
    10     2     3    1
    11     3     4    1
    12     4     7    1
    13     7     8   am
    14     8     9    2
    15     8    10    1
    16    10    11    2
    17    11    12    1
    18    12    13    1
    19    13    14    2
    20    14    15    1
    21    15    16    2
    22     4     5    1
    23     5     6    1
    24    22    25    1
    25    25    26    1
    26    26    27    1
    27    26    28    1
    28    28    20    1
    29     6     1    1
    30    16     7    1
    31    16    11    1
    32    28    29    1
@<TRIPOS>MOLECULE
*****
 29 32 0 0 0
SMALL
GASTEIGER

@<TRIPOS>ATOM
      1 N           0.7756    2.7160   19.0896 N.3     1  UNL1       -0.2664
      2 C           0.2724    1.3881   19.5727 C.3     1  UNL1        0.0742
      3 C           1.1682    0.1858   19.5299 C.3     1  UNL1        0.0376
      4 C           2.5675    0.3114   19.0040 C.3     1  UNL1        0.0841
      5 C           3.0707    1.6393   18.5210 C.3     1  UNL1        0.0376
      6 C           2.1748    2.8416   18.5637 C.3     1  UNL1        0.0742
      7 N           3.4634   -0.8909   18.9612 N.am    1  UNL1       -0.2423
      8 C           4.0742   -1.4919   17.7301 C.2     1  UNL1        0.3309
      9 O           3.8965   -0.9962   16.3256 O.2     1  UNL1       -0.2501
     10 N           4.8941   -2.6758   18.1502 N.am    1  UNL1       -0.1647
     11 C           4.7899   -2.8064   19.6408 C.2     1  UNL1        0.0706
     12 C           5.3859   -3.7873   20.6065 C.3     1  UNL1        0.0705
     13 C           5.0977   -3.6651   22.0734 C.2     1  UNL1       -0.0199
     14 C           4.2135   -2.5620   22.5747 C.2     1  UNL1       -0.0029
     15 C           3.6174   -1.5811   21.6091 C.2     1  UNL1        0.0156
     16 C           3.9056   -1.7033   20.1421 C.2     1  UNL1        0.0668
     17 C          -0.1202    3.9183   19.1324 C.3     1  UNL1        0.1350
     18 C           0.3298    5.1643   19.8359 C.3     1  UNL1        0.0272
     19 C          -3.7391    3.4825   23.1277 C.3     1  UNL1        0.0189
     20 C          -3.8439    3.5587   21.6333 C.3     1  UNL1        0.0741
     21 C          -2.6027    3.6786   20.7996 C.3     1  UNL1        0.1091
     22 N          -2.7074    3.7547   19.3052 N.am    1  UNL1       -0.2757
     23 C          -1.4661    3.8746   18.4716 C.2     1  UNL1        0.2402
     24 O          -1.5708    3.9507   16.9772 O.2     1  UNL1       -0.2734
     25 C          -4.0533    3.7109   18.6446 C.3     1  UNL1        0.1091
     26 C          -5.2945    3.5910   19.4783 C.3     1  UNL1        0.0741
     27 C          -6.6404    3.5472   18.8175 C.3     1  UNL1        0.0189
     28 N          -5.1898    3.5149   20.9726 N.3     1  UNL1       -0.2969
     29 H          -5.6276    2.6377   21.2542 H       1  UNL1        0.1233
@<TRIPOS>BOND
     1    20    19    1
     2    20    21    1
     3    21    22    1
     4    22    23   am
     5    23    24    2
     6    23    17    1
     7    17    18    1
     8    17     1    1
     9     1     2    1
    10     2     3    1
    11     3     4    1
    12     4     7    1
    13     7     8   am
    14     8     9    2
    15     8    10    1
    16    10    11    2
    17    11    12    1
    18    12    13    1
    19    13    14    2
    20    14    15    1
    21    15    16    2
    22     4     5    1
    23     5     6    1
    24    22    25    1
    25    25    26    1
    26    26    27    1
    27    26    28    1
    28    28    20    1
    29     6     1    1
    30    16     7    1
    31    16    11    1
    32    28    29    1
@<TRIPOS>MOLECULE
*****
 29 32 0 0 0
SMALL
GASTEIGER

@<TRIPOS>ATOM
      1 N           0.4296    2.0173   19.5776 N.3     1  UNL1       -0.2664
      2 C           1.6855    2.3459   18.8262 C.3     1  UNL1        0.0742
      3 C           2.7341    1.2930   18.6212 C.3     1  UNL1        0.0376
      4 C           2.5267   -0.0885   19.1677 C.3     1  UNL1        0.0841
      5 C           1.2707   -0.4170   19.9190 C.3     1  UNL1        0.0376
      6 C           0.2222    0.6359   20.1240 C.3     1  UNL1        0.0742
      7 N           3.5752   -1.1414   18.9627 N.am    1  UNL1       -0.2423
      8 C           4.1776   -1.5418   17.6486 C.2     1  UNL1        0.3309
      9 O           3.8372   -0.9596   16.3088 O.2     1  UNL1       -0.2501
     10 N           5.1801   -2.6265   17.9097 N.am    1  UNL1       -0.1647
     11 C           5.1974   -2.8966   19.3851 C.2     1  UNL1        0.0706
     12 C           5.9882   -3.8597   20.2200 C.3     1  UNL1        0.0705
     13 C           5.7870   -3.9048   21.7057 C.2     1  UNL1       -0.0199
     14 C           4.7951   -2.9870   22.3565 C.2     1  UNL1       -0.0029
     15 C           4.0043   -2.0239   21.5216 C.2     1  UNL1        0.0156
     16 C           4.2055   -1.9787   20.0359 C.2     1  UNL1        0.0668
     17 C          -0.6190    3.0702   19.7825 C.3     1  UNL1        0.1350
     18 C          -1.0921    3.8935   18.6214 C.3     1  UNL1        0.0272
     19 C          -5.9833    3.2955   19.1321 C.3     1  UNL1        0.0189
     20 C          -5.0738    3.4112   20.3193 C.3     1  UNL1        0.0741
     21 C          -3.5888    3.2975   20.1404 C.3     1  UNL1        0.1091
     22 N          -2.6794    3.4133   21.3276 N.am    1  UNL1       -0.2757
     23 C          -1.1944    3.2996   21.1486 C.2     1  UNL1        0.2402
     24 O          -0.2849    3.4153   22.3358 O.2     1  UNL1       -0.2734
     25 C          -3.2549    3.6427   22.6937 C.3     1  UNL1        0.1091
     26 C          -4.7398    3.7563   22.8725 C.3     1  UNL1        0.0741
     27 C          -5.3152    3.9858   24.2386 C.3     1  UNL1        0.0189
     28 N          -5.6493    3.6406   21.6853 N.3     1  UNL1       -0.2969
     29 H          -6.1834    4.5083   21.6379 H       1  UNL1        0.1233
@<TRIPOS>BOND
     1    20    19    1
     2    20    21    1
     3    21    22    1
     4    22    23   am
     5    23    24    2
     6    23    17    1
     7    17    18    1
     8    17     1    1
     9     1     2    1
    10     2     3    1
    11     3     4    1
    12     4     7    1
    13     7     8   am
    14     8     9    2
    15     8    10    1
    16    10    11    2
    17    11    12    1
    18    12    13    1
    19    13    14    2
    20    14    15    1
    21    15    16    2
    22     4     5    1
    23     5     6    1
    24    22    25    1
    25    25    26    1
    26    26    27    1
    27    26    28    1
    28    28    20    1
    29     6     1    1
    30    16     7    1
    31    16    11    1
    32    28    29    1
@<TRIPOS>MOLECULE
*****
 29 32 0 0 0
SMALL
GASTEIGER

@<TRIPOS>ATOM
      1 N         -12.0726   -6.7270   18.2194 N.3     1  UNL1       -0.2664
      2 C         -12.4055   -7.6528   17.0870 C.3     1  UNL1        0.0742
      3 C         -13.7455   -8.3252   17.0372 C.3     1  UNL1        0.0376
      4 C         -14.7526   -8.0718   18.1197 C.3     1  UNL1        0.0841
      5 C         -14.4196   -7.1461   19.2519 C.3     1  UNL1        0.0376
      6 C         -13.0796   -6.4737   19.3018 C.3     1  UNL1        0.0742
      7 N         -16.0925   -8.7442   18.0698 N.am    1  UNL1       -0.2423
      8 C         -16.3378  -10.2238   18.0919 C.2     1  UNL1        0.3309
      9 O         -15.2863  -11.2908   18.1677 O.2     1  UNL1       -0.2501
     10 N         -17.8193  -10.4490   18.0249 N.am    1  UNL1       -0.1647
     11 C         -18.4896   -9.1086   17.9614 C.2     1  UNL1        0.0706
     12 C         -19.9338   -8.7113   17.8818 C.3     1  UNL1        0.0705
     13 C         -20.3108   -7.2604   17.8301 C.2     1  UNL1       -0.0199
     14 C         -19.2435   -6.2068   17.8579 C.2     1  UNL1       -0.0029
     15 C         -17.7993   -6.6040   17.9374 C.2     1  UNL1        0.0156
     16 C         -17.4223   -8.0549   17.9892 C.2     1  UNL1        0.0668
     17 C         -10.7327   -6.0546   18.2692 C.3     1  UNL1        0.1350
     18 C          -9.6167   -6.6644   19.0647 C.3     1  UNL1        0.0272
     19 C         -14.1470   -2.4534   20.4192 C.3     1  UNL1        0.0189
     20 C         -13.1256   -2.3921   19.3224 C.3     1  UNL1        0.0741
     21 C         -12.3279   -3.6129   18.9713 C.3     1  UNL1        0.1091
     22 N         -11.3064   -3.5516   17.8746 N.am    1  UNL1       -0.2757
     23 C         -10.5088   -4.7725   17.5236 C.2     1  UNL1        0.2402
     24 O          -9.4873   -4.7113   16.4268 O.2     1  UNL1       -0.2734
     25 C         -11.0826   -2.2695   17.1290 C.3     1  UNL1        0.1091
     26 C         -11.8803   -1.0486   17.4801 C.3     1  UNL1        0.0741
     27 C         -11.6564    0.2335   16.7344 C.3     1  UNL1        0.0189
     28 N         -12.9018   -1.1099   18.5768 N.3     1  UNL1       -0.2969
     29 H         -13.7964   -0.8512   18.1608 H       1  UNL1        0.1233
@<TRIPOS>BOND
     1    20    19    1
     2    20    21    1
     3    21    22    1
     4    22    23   am
     5    23    24    2
     6    23    17    1
     7    17    18    1
     8    17     1    1
     9     1     2    1
    10     2     3    1
    11     3     4    1
    12     4     7    1
    13     7     8   am
    14     8     9    2
    15     8    10    1
    16    10    11    2
    17    11    12    1
    18    12    13    1
    19    13    14    2
    20    14    15    1
    21    15    16    2
    22     4     5    1
    23     5     6    1
    24    22    25    1
    25    25    26    1
    26    26    27    1
    27    26    28    1
    28    28    20    1
    29     6     1    1
    30    16     7    1
    31    16    11    1
    32    28    29    1
@<TRIPOS>MOLECULE
*****
 29 32 0 0 0
SMALL
GASTEIGER

@<TRIPOS>ATOM
      1 N           0.4635    2.0603   19.4308 N.3     1  UNL1       -0.2664
      2 C           1.7322    2.3679   18.6921 C.3     1  UNL1        0.0742
      3 C           2.7786    1.3063   18.5240 C.3     1  UNL1        0.0376
      4 C           2.5562   -0.0630   19.0948 C.3     1  UNL1        0.0841
      5 C           1.2876   -0.3705   19.8336 C.3     1  UNL1        0.0376
      6 C           0.2412    0.6910   20.0016 C.3     1  UNL1        0.0742
      7 N           3.6026   -1.1245   18.9268 N.am    1  UNL1       -0.2423
      8 C           4.2279   -1.5489   17.6311 C.2     1  UNL1        0.3309
      9 O           3.9167   -0.9862   16.2759 O.2     1  UNL1       -0.2501
     10 N           5.2191   -2.6347   17.9285 N.am    1  UNL1       -0.1647
     11 C           5.2063   -2.8815   19.4081 C.2     1  UNL1        0.0706
     12 C           5.9754   -3.8354   20.2732 C.3     1  UNL1        0.0705
     13 C           5.7454   -3.8560   21.7552 C.2     1  UNL1       -0.0199
     14 C           4.7463   -2.9226   22.3722 C.2     1  UNL1       -0.0029
     15 C           3.9772   -1.9687   21.5071 C.2     1  UNL1        0.0156
     16 C           4.2073   -1.9481   20.0250 C.2     1  UNL1        0.0668
     17 C          -0.5828    3.1218   19.5989 C.3     1  UNL1        0.1350
     18 C          -0.7448    4.1871   18.5554 C.3     1  UNL1        0.0272
     19 C           2.4680    4.9166   23.6880 C.3     1  UNL1        0.0189
     20 C           1.0420    4.4651   23.5744 C.3     1  UNL1        0.0741
     21 C           0.5004    4.0173   22.2492 C.3     1  UNL1        0.1091
     22 N          -0.9255    3.5658   22.1357 N.am    1  UNL1       -0.2757
     23 C          -1.4671    3.1181   20.8104 C.2     1  UNL1        0.2402
     24 O          -2.8930    2.6665   20.6969 O.2     1  UNL1       -0.2734
     25 C          -1.8098    3.5621   23.3473 C.3     1  UNL1        0.1091
     26 C          -1.2681    4.0098   24.6725 C.3     1  UNL1        0.0741
     27 C          -2.1524    4.0061   25.8841 C.3     1  UNL1        0.0189
     28 N           0.1578    4.4614   24.7861 N.3     1  UNL1       -0.2969
     29 H           0.6045    3.8558   25.4747 H       1  UNL1        0.1233
@<TRIPOS>BOND
     1    20    19    1
     2    20    21    1
     3    21    22    1
     4    22    23   am
     5    23    24    2
     6    23    17    1
     7    17    18    1
     8    17     1    1
     9     1     2    1
    10     2     3    1
    11     3     4    1
    12     4     7    1
    13     7     8   am
    14     8     9    2
    15     8    10    1
    16    10    11    2
    17    11    12    1
    18    12    13    1
    19    13    14    2
    20    14    15    1
    21    15    16    2
    22     4     5    1
    23     5     6    1
    24    22    25    1
    25    25    26    1
    26    26    27    1
    27    26    28    1
    28    28    20    1
    29     6     1    1
    30    16     7    1
    31    16    11    1
    32    28    29    1
@<TRIPOS>MOLECULE
*****
 29 32 0 0 0
SMALL
GASTEIGER

@<TRIPOS>ATOM
      1 N          -8.2961  -19.1131   20.2279 N.3     1  UNL1       -0.2664
      2 C          -7.1640  -19.9151   19.6577 C.3     1  UNL1        0.0742
      3 C          -5.7561  -19.6442   20.0989 C.3     1  UNL1        0.0376
      4 C          -5.4804  -18.5712   21.1103 C.3     1  UNL1        0.0841
      5 C          -6.6125  -17.7693   21.6804 C.3     1  UNL1        0.0376
      6 C          -8.0203  -18.0402   21.2392 C.3     1  UNL1        0.0742
      7 N          -4.0726  -18.3003   21.5514 N.am    1  UNL1       -0.2423
      8 C          -3.6095  -18.1321   22.9682 C.2     1  UNL1        0.3309
      9 O          -4.4729  -18.2053   24.1926 O.2     1  UNL1       -0.2501
     10 N          -2.1314  -17.8779   22.9456 N.am    1  UNL1       -0.1647
     11 C          -1.6809  -17.8890   21.5149 C.2     1  UNL1        0.0706
     12 C          -0.3333  -17.6951   20.8854 C.3     1  UNL1        0.0705
     13 C          -0.1854  -17.7623   19.3942 C.2     1  UNL1       -0.0199
     14 C          -1.3852  -18.0233   18.5326 C.2     1  UNL1       -0.0029
     15 C          -2.7328  -18.2172   19.1621 C.2     1  UNL1        0.0156
     16 C          -2.8806  -18.1501   20.6532 C.2     1  UNL1        0.0668
     17 C          -9.7039  -19.3840   19.7867 C.3     1  UNL1        0.1350
     18 C          -9.9677  -20.3567   18.6757 C.3     1  UNL1        0.0272
     19 C          -9.7327  -21.1157   24.9102 C.3     1  UNL1        0.0189
     20 C         -10.5834  -20.1564   24.1318 C.3     1  UNL1        0.0741
     21 C         -10.2903  -19.8989   22.6834 C.3     1  UNL1        0.1091
     22 N         -11.1411  -18.9397   21.9050 N.am    1  UNL1       -0.2757
     23 C         -10.8479  -18.6822   20.4566 C.2     1  UNL1        0.2402
     24 O         -11.6986  -17.7230   19.6782 O.2     1  UNL1       -0.2734
     25 C         -12.2850  -18.2379   22.5749 C.3     1  UNL1        0.1091
     26 C         -12.5782  -18.4954   24.0233 C.3     1  UNL1        0.0741
     27 C         -13.7222  -17.7936   24.6932 C.3     1  UNL1        0.0189
     28 N         -11.7274  -19.4546   24.8017 N.3     1  UNL1       -0.2969
     29 H         -12.3507  -20.1799   25.1565 H       1  UNL1        0.1233
@<TRIPOS>BOND
     1    20    19    1
     2    20    21    1
     3    21    22    1
     4    22    23   am
     5    23    24    2
     6    23    17    1
     7    17    18    1
     8    17     1    1
     9     1     2    1
    10     2     3    1
    11     3     4    1
    12     4     7    1
    13     7     8   am
    14     8     9    2
    15     8    10    1
    16    10    11    2
    17    11    12    1
    18    12    13    1
    19    13    14    2
    20    14    15    1
    21    15    16    2
    22     4     5    1
    23     5     6    1
    24    22    25    1
    25    25    26    1
    26    26    27    1
    27    26    28    1
    28    28    20    1
    29     6     1    1
    30    16     7    1
    31    16    11    1
    32    28    29    1
@<TRIPOS>MOLECULE
*****
 29 32 0 0 0
SMALL
GASTEIGER

@<TRIPOS>ATOM
      1 N           0.5851    2.7394   20.7288 N.3     1  UNL1       -0.2664
      2 C           1.9341    2.9742   20.1165 C.3     1  UNL1        0.0742
      3 C           2.8281    1.8112   19.8028 C.3     1  UNL1        0.0376
      4 C           2.3730    0.4134   20.1016 C.3     1  UNL1        0.0841
      5 C           1.0240    0.1787   20.7139 C.3     1  UNL1        0.0376
      6 C           0.1300    1.3417   21.0276 C.3     1  UNL1        0.0742
      7 N           3.2670   -0.7495   19.7879 N.am    1  UNL1       -0.2423
      8 C           3.7132   -1.1749   18.4205 C.2     1  UNL1        0.3309
      9 O           3.3439   -0.5120   17.1266 O.2     1  UNL1       -0.2501
     10 N           4.5937   -2.3795   18.5741 N.am    1  UNL1       -0.1647
     11 C           4.6916   -2.6987   20.0365 C.2     1  UNL1        0.0706
     12 C           5.4214   -3.7765   20.7819 C.3     1  UNL1        0.0705
     13 C           5.3312   -3.8468   22.2775 C.2     1  UNL1       -0.0199
     14 C           4.5112   -2.8394   23.0277 C.2     1  UNL1       -0.0029
     15 C           3.7814   -1.7617   22.2823 C.2     1  UNL1        0.0156
     16 C           3.8716   -1.6913   20.7867 C.2     1  UNL1        0.0668
     17 C          -0.3089    3.9023   21.0425 C.3     1  UNL1        0.1350
     18 C           0.2811    5.2636   21.2637 C.3     1  UNL1        0.0272
     19 C          -2.1868    4.2525   15.9828 C.3     1  UNL1        0.0189
     20 C          -2.8303    4.0161   17.3170 C.3     1  UNL1        0.0741
     21 C          -1.9899    3.9782   18.5589 C.3     1  UNL1        0.1091
     22 N          -2.6334    3.7419   19.8931 N.am    1  UNL1       -0.2757
     23 C          -1.7928    3.7040   21.1349 C.2     1  UNL1        0.2402
     24 O          -2.4363    3.4676   22.4691 O.2     1  UNL1       -0.2734
     25 C          -4.1173    3.5435   19.9854 C.3     1  UNL1        0.1091
     26 C          -4.9578    3.5815   18.7435 C.3     1  UNL1        0.0741
     27 C          -6.4417    3.3831   18.8359 C.3     1  UNL1        0.0189
     28 N          -4.3143    3.8178   17.4093 N.3     1  UNL1       -0.2969
     29 H          -4.7480    4.6535   17.0171 H       1  UNL1        0.1233
@<TRIPOS>BOND
     1    20    19    1
     2    20    21    1
     3    21    22    1
     4    22    23   am
     5    23    24    2
     6    23    17    1
     7    17    18    1
     8    17     1    1
     9     1     2    1
    10     2     3    1
    11     3     4    1
    12     4     7    1
    13     7     8   am
    14     8     9    2
    15     8    10    1
    16    10    11    2
    17    11    12    1
    18    12    13    1
    19    13    14    2
    20    14    15    1
    21    15    16    2
    22     4     5    1
    23     5     6    1
    24    22    25    1
    25    25    26    1
    26    26    27    1
    27    26    28    1
    28    28    20    1
    29     6     1    1
    30    16     7    1
    31    16    11    1
    32    28    29    1
@<TRIPOS>MOLECULE
*****
 29 32 0 0 0
SMALL
GASTEIGER

@<TRIPOS>ATOM
      1 N           5.8182   -3.6626   20.6656 N.3     1  UNL1       -0.2664
      2 C           7.2634   -3.9318   20.9636 C.3     1  UNL1        0.0742
      3 C           7.7113   -4.1379   22.3803 C.3     1  UNL1        0.0376
      4 C           6.7139   -4.0746   23.4990 C.3     1  UNL1        0.0841
      5 C           5.2688   -3.8054   23.2009 C.3     1  UNL1        0.0376
      6 C           4.8209   -3.5994   21.7842 C.3     1  UNL1        0.0742
      7 N           7.1618   -4.2807   24.9156 N.am    1  UNL1       -0.2423
      8 C           7.1587   -3.2451   26.0008 C.2     1  UNL1        0.3309
      9 O           6.7071   -1.8216   25.8598 O.2     1  UNL1       -0.2501
     10 N           7.6865   -3.8829   27.2516 N.am    1  UNL1       -0.1647
     11 C           8.0158   -5.3126   26.9396 C.2     1  UNL1        0.0706
     12 C           8.5689   -6.4224   27.7836 C.3     1  UNL1        0.0705
     13 C           8.7979   -7.7780   27.1838 C.2     1  UNL1       -0.0199
     14 C           8.4737   -8.0239   25.7400 C.2     1  UNL1       -0.0029
     15 C           7.9205   -6.9141   24.8960 C.2     1  UNL1        0.0156
     16 C           7.6915   -5.5585   25.4958 C.2     1  UNL1        0.0668
     17 C           5.3702   -3.4566   19.2489 C.3     1  UNL1        0.1350
     18 C           4.5021   -4.4809   18.5803 C.3     1  UNL1        0.0272
     19 C           2.2057    0.5445   21.0451 C.3     1  UNL1        0.0189
     20 C           3.3120    0.4671   20.0351 C.3     1  UNL1        0.0741
     21 C           3.9981   -0.8408   19.7730 C.3     1  UNL1        0.1091
     22 N           5.1044   -0.9182   18.7630 N.am    1  UNL1       -0.2757
     23 C           5.7905   -2.2262   18.5010 C.2     1  UNL1        0.2402
     24 O           6.8968   -2.3036   17.4910 O.2     1  UNL1       -0.2734
     25 C           5.5246    0.3123   18.0151 C.3     1  UNL1        0.1091
     26 C           4.8384    1.6201   18.2772 C.3     1  UNL1        0.0741
     27 C           5.2587    2.8505   17.5292 C.3     1  UNL1        0.0189
     28 N           3.7321    1.6976   19.2872 N.3     1  UNL1       -0.2969
     29 H           2.9068    2.0388   18.7943 H       1  UNL1        0.1233
@<TRIPOS>BOND
     1    20    19    1
     2    20    21    1
     3    21    22    1
     4    22    23   am
     5    23    24    2
     6    23    17    1
     7    17    18    1
     8    17     1    1
     9     1     2    1
    10     2     3    1
    11     3     4    1
    12     4     7    1
    13     7     8   am
    14     8     9    2
    15     8    10    1
    16    10    11    2
    17    11    12    1
    18    12    13    1
    19    13    14    2
    20    14    15    1
    21    15    16    2
    22     4     5    1
    23     5     6    1
    24    22    25    1
    25    25    26    1
    26    26    27    1
    27    26    28    1
    28    28    20    1
    29     6     1    1
    30    16     7    1
    31    16    11    1
    32    28    29    1
@<TRIPOS>MOLECULE
*****
 29 32 0 0 0
SMALL
GASTEIGER

@<TRIPOS>ATOM
      1 N          -6.3875  -19.4127   20.8852 N.3     1  UNL1       -0.2664
      2 C          -6.5378  -18.4920   22.0598 C.3     1  UNL1        0.0742
      3 C          -7.8646  -17.8543   22.3479 C.3     1  UNL1        0.0376
      4 C          -9.0411  -18.1373   21.4613 C.3     1  UNL1        0.0841
      5 C          -8.8907  -19.0580   20.2868 C.3     1  UNL1        0.0376
      6 C          -7.5639  -19.6957   19.9987 C.3     1  UNL1        0.0742
      7 N         -10.3679  -17.4996   21.7494 N.am    1  UNL1       -0.2423
      8 C         -10.9687  -16.3414   21.0094 C.2     1  UNL1        0.3309
      9 O         -10.3481  -15.6175   19.8515 O.2     1  UNL1       -0.2501
     10 N         -12.2989  -16.0342   21.6308 N.am    1  UNL1       -0.1647
     11 C         -12.5203  -17.0025   22.7547 C.2     1  UNL1        0.0706
     12 C         -13.6544  -17.1766   23.7209 C.3     1  UNL1        0.0705
     13 C         -13.5950  -18.2564   24.7603 C.2     1  UNL1       -0.0199
     14 C         -12.4016  -19.1621   24.8337 C.2     1  UNL1       -0.0029
     15 C         -11.2675  -18.9880   23.8675 C.2     1  UNL1        0.0156
     16 C         -11.3268  -17.9083   22.8280 C.2     1  UNL1        0.0668
     17 C          -5.0607  -20.0504   20.5971 C.3     1  UNL1        0.1350
     18 C          -4.9746  -21.2042   19.6424 C.3     1  UNL1        0.0272
     19 C          -2.0680  -17.8260   16.6798 C.3     1  UNL1        0.0189
     20 C          -1.8857  -17.9949   18.1591 C.3     1  UNL1        0.0741
     21 C          -2.9440  -18.6801   18.9718 C.3     1  UNL1        0.1091
     22 N          -2.7617  -18.8491   20.4510 N.am    1  UNL1       -0.2757
     23 C          -3.8201  -19.5343   21.2637 C.2     1  UNL1        0.2402
     24 O          -3.6377  -19.7032   22.7429 O.2     1  UNL1       -0.2734
     25 C          -1.5210  -18.3329   21.1175 C.3     1  UNL1        0.1091
     26 C          -0.4626  -17.6478   20.3048 C.3     1  UNL1        0.0741
     27 C           0.7780  -17.1316   20.9714 C.3     1  UNL1        0.0189
     28 N          -0.6450  -17.4788   18.8256 N.3     1  UNL1       -0.2969
     29 H           0.1450  -17.9423   18.3767 H       1  UNL1        0.1233
@<TRIPOS>BOND
     1    20    19    1
     2    20    21    1
     3    21    22    1
     4    22    23   am
     5    23    24    2
     6    23    17    1
     7    17    18    1
     8    17     1    1
     9     1     2    1
    10     2     3    1
    11     3     4    1
    12     4     7    1
    13     7     8   am
    14     8     9    2
    15     8    10    1
    16    10    11    2
    17    11    12    1
    18    12    13    1
    19    13    14    2
    20    14    15    1
    21    15    16    2
    22     4     5    1
    23     5     6    1
    24    22    25    1
    25    25    26    1
    26    26    27    1
    27    26    28    1
    28    28    20    1
    29     6     1    1
    30    16     7    1
    31    16    11    1
    32    28    29    1
