@<TRIPOS>MOLECULE
*****
 26 29 0 0 0
SMALL
GASTEIGER

@<TRIPOS>ATOM
      1 C          -7.9800  -17.8156   21.9724 C.3     1  UNL1        0.1264
      2 O          -6.6681  -17.5659   22.6554 O.3     1  UNL1       -0.3786
      3 C          -9.4425  -17.5866   21.7299 C.ar    1  UNL1        0.0017
      4 C          -9.9890  -16.5250   22.6378 C.ar    1  UNL1       -0.0020
      5 C         -11.4370  -16.1421   22.5576 C.ar    1  UNL1       -0.0003
      6 C         -12.3386  -16.8208   21.5694 C.ar    1  UNL1       -0.0003
      7 C         -11.7922  -17.8824   20.6615 C.ar    1  UNL1       -0.0045
      8 C         -10.3441  -18.2653   20.7418 C.ar    1  UNL1       -0.0233
      9 C         -10.0059  -19.3406   19.7520 C.3     1  UNL1        0.0308
     10 C          -8.6827  -20.0027   19.5060 C.3     1  UNL1        0.0308
     11 C          -7.3707  -19.7531   20.1890 C.ar    1  UNL1       -0.0233
     12 C          -6.2898  -20.6355   19.6386 C.ar    1  UNL1       -0.0045
     13 C          -4.8961  -20.5445   20.1859 C.ar    1  UNL1       -0.0003
     14 C          -4.5834  -19.5712   21.2835 C.ar    1  UNL1       -0.0002
     15 C          -3.1898  -19.4802   21.8309 C.ar    1  UNL1       -0.0000
     16 C          -2.8771  -18.5069   22.9284 C.ar    1  UNL1       -0.0000
     17 C          -3.9581  -17.6245   23.4788 C.ar    1  UNL1       -0.0000
     18 C          -5.3517  -17.7154   22.9316 C.ar    1  UNL1       -0.0002
     19 C          -5.6643  -18.6888   21.8339 C.ar    1  UNL1       -0.0018
     20 C          -7.0580  -18.7797   21.2867 C.ar    1  UNL1        0.0017
     21 H          -6.7793  -16.8745   23.3265 H       1  UNL1        0.2111
     22 C          -8.3182  -16.7403   22.9622 C.3     1  UNL1        0.0527
     23 C          -7.2466  -15.8178   23.4627 C.3     1  UNL1        0.0753
     24 C          -8.3961  -15.4932   25.7700 C.3     1  UNL1        0.0897
     25 N          -7.1568  -15.4961   24.9251 N.3     1  UNL1       -0.2702
     26 C          -5.8273  -15.1773   25.5425 C.3     1  UNL1        0.0897
@<TRIPOS>BOND
     1    24    25    1
     2    25    26    1
     3    25    23    1
     4    23    22    1
     5    22     1    1
     6     1     2    1
     7     1     3    1
     8     3     4   ar
     9     4     5   ar
    10     5     6   ar
    11     6     7   ar
    12     7     8   ar
    13     8     9    1
    14     9    10    1
    15    10    11    1
    16    11    12   ar
    17    12    13   ar
    18    13    14   ar
    19    14    15   ar
    20    15    16   ar
    21    16    17   ar
    22    17    18   ar
    23    18    19   ar
    24    19    20   ar
    25    20     1    1
    26     8     3   ar
    27    20    11   ar
    28    19    14   ar
    29     2    21    1
@<TRIPOS>MOLECULE
*****
 26 29 0 0 0
SMALL
GASTEIGER

@<TRIPOS>ATOM
      1 C          -7.0669  -18.0876   22.1578 C.3     1  UNL1        0.1264
      2 O          -8.2633  -17.3622   22.6987 O.3     1  UNL1       -0.3786
      3 C          -5.6122  -18.4509   22.1147 C.ar    1  UNL1        0.0017
      4 C          -4.8355  -17.7294   23.1759 C.ar    1  UNL1       -0.0020
      5 C          -3.3578  -17.9518   23.3057 C.ar    1  UNL1       -0.0003
      6 C          -2.6568  -18.8957   22.3743 C.ar    1  UNL1       -0.0003
      7 C          -3.4334  -19.6172   21.3131 C.ar    1  UNL1       -0.0045
      8 C          -4.9111  -19.3948   21.1833 C.ar    1  UNL1       -0.0233
      9 C          -5.4917  -20.2086   20.0649 C.3     1  UNL1        0.0308
     10 C          -6.9166  -20.2795   19.6017 C.3     1  UNL1        0.0308
     11 C          -8.1130  -19.5540   20.1426 C.ar    1  UNL1       -0.0233
     12 C          -9.3585  -19.9119   19.3873 C.ar    1  UNL1       -0.0045
     13 C         -10.6710  -19.2943   19.7695 C.ar    1  UNL1       -0.0003
     14 C         -10.7379  -18.3189   20.9070 C.ar    1  UNL1       -0.0002
     15 C         -12.0503  -17.7012   21.2893 C.ar    1  UNL1       -0.0000
     16 C         -12.1171  -16.7258   22.4268 C.ar    1  UNL1       -0.0000
     17 C         -10.8716  -16.3679   23.1821 C.ar    1  UNL1       -0.0000
     18 C          -9.5592  -16.9855   22.7999 C.ar    1  UNL1       -0.0002
     19 C          -9.4923  -17.9610   21.6623 C.ar    1  UNL1       -0.0018
     20 C          -8.1799  -18.5785   21.2802 C.ar    1  UNL1        0.0017
     21 H          -7.9916  -16.7978   23.4393 H       1  UNL1        0.2111
     22 C          -6.4864  -17.2738   23.2762 C.3     1  UNL1        0.0527
     23 C          -7.1367  -15.9843   23.6813 C.3     1  UNL1        0.0753
     24 C          -8.3689  -15.4461   25.9045 C.3     1  UNL1        0.0897
     25 N          -7.0976  -15.5423   25.1142 N.3     1  UNL1       -0.2702
     26 C          -5.7870  -15.1965   25.7569 C.3     1  UNL1        0.0897
@<TRIPOS>BOND
     1    24    25    1
     2    25    26    1
     3    25    23    1
     4    23    22    1
     5    22     1    1
     6     1     2    1
     7     1     3    1
     8     3     4   ar
     9     4     5   ar
    10     5     6   ar
    11     6     7   ar
    12     7     8   ar
    13     8     9    1
    14     9    10    1
    15    10    11    1
    16    11    12   ar
    17    12    13   ar
    18    13    14   ar
    19    14    15   ar
    20    15    16   ar
    21    16    17   ar
    22    17    18   ar
    23    18    19   ar
    24    19    20   ar
    25    20     1    1
    26     8     3   ar
    27    20    11   ar
    28    19    14   ar
    29     2    21    1
@<TRIPOS>MOLECULE
*****
 26 29 0 0 0
SMALL
GASTEIGER

@<TRIPOS>ATOM
      1 C          -7.9270  -17.2742   23.3265 C.3     1  UNL1        0.1264
      2 O          -8.9548  -17.8081   22.3733 O.3     1  UNL1       -0.3786
      3 C          -7.4729  -16.5223   24.5424 C.ar    1  UNL1        0.0017
      4 C          -8.6342  -15.9397   25.2919 C.ar    1  UNL1       -0.0020
      5 C          -8.3977  -15.1470   26.5431 C.ar    1  UNL1       -0.0003
      6 C          -6.9998  -14.9368   27.0448 C.ar    1  UNL1       -0.0003
      7 C          -5.8384  -15.5194   26.2953 C.ar    1  UNL1       -0.0045
      8 C          -6.0750  -16.3121   25.0441 C.ar    1  UNL1       -0.0233
      9 C          -4.7860  -16.8019   24.4537 C.3     1  UNL1        0.0308
     10 C          -4.5764  -17.6229   23.2159 C.3     1  UNL1        0.0308
     11 C          -5.6043  -18.1568   22.2627 C.ar    1  UNL1       -0.0233
     12 C          -4.9674  -18.9329   21.1483 C.ar    1  UNL1       -0.0045
     13 C          -5.8216  -19.5539   20.0830 C.ar    1  UNL1       -0.0003
     14 C          -7.3127  -19.3987   20.1323 C.ar    1  UNL1       -0.0002
     15 C          -8.1670  -20.0197   19.0671 C.ar    1  UNL1       -0.0000
     16 C          -9.6581  -19.8645   19.1163 C.ar    1  UNL1       -0.0000
     17 C         -10.2950  -19.0884   20.2307 C.ar    1  UNL1       -0.0000
     18 C          -9.4408  -18.4674   21.2959 C.ar    1  UNL1       -0.0002
     19 C          -7.9496  -18.6226   21.2467 C.ar    1  UNL1       -0.0018
     20 C          -7.0954  -18.0016   22.3119 C.ar    1  UNL1        0.0017
     21 H          -9.8395  -17.5426   22.6697 H       1  UNL1        0.2111
     22 C          -9.2161  -16.7844   23.9168 C.3     1  UNL1        0.0527
     23 C         -10.4057  -17.6958   23.9810 C.3     1  UNL1        0.0753
     24 C         -11.8001  -15.9844   22.6111 C.3     1  UNL1        0.0897
     25 N         -11.7151  -17.2625   23.3914 N.3     1  UNL1       -0.2702
     26 C         -12.9398  -18.1076   23.5823 C.3     1  UNL1        0.0897
@<TRIPOS>BOND
     1    24    25    1
     2    25    26    1
     3    25    23    1
     4    23    22    1
     5    22     1    1
     6     1     2    1
     7     1     3    1
     8     3     4   ar
     9     4     5   ar
    10     5     6   ar
    11     6     7   ar
    12     7     8   ar
    13     8     9    1
    14     9    10    1
    15    10    11    1
    16    11    12   ar
    17    12    13   ar
    18    13    14   ar
    19    14    15   ar
    20    15    16   ar
    21    16    17   ar
    22    17    18   ar
    23    18    19   ar
    24    19    20   ar
    25    20     1    1
    26     8     3   ar
    27    20    11   ar
    28    19    14   ar
    29     2    21    1
@<TRIPOS>MOLECULE
*****
 26 29 0 0 0
SMALL
GASTEIGER

@<TRIPOS>ATOM
      1 C          -7.9778  -17.7685   22.0449 C.3     1  UNL1        0.1264
      2 O          -7.9654  -16.7711   23.1652 O.3     1  UNL1       -0.3786
      3 C          -8.6183  -18.5400   20.9294 C.ar    1  UNL1        0.0017
      4 C         -10.0639  -18.1733   20.7689 C.ar    1  UNL1       -0.0020
      5 C         -10.8912  -18.8323   19.7054 C.ar    1  UNL1       -0.0003
      6 C         -10.2730  -19.8581   18.8023 C.ar    1  UNL1       -0.0003
      7 C          -8.8274  -20.2248   18.9627 C.ar    1  UNL1       -0.0045
      8 C          -8.0001  -19.5658   20.0262 C.ar    1  UNL1       -0.0233
      9 C          -6.5886  -20.0733   20.0157 C.3     1  UNL1        0.0308
     10 C          -5.4467  -19.6806   20.9056 C.3     1  UNL1        0.0308
     11 C          -5.4344  -18.6832   22.0259 C.ar    1  UNL1       -0.0233
     12 C          -4.0796  -18.5915   22.6631 C.ar    1  UNL1       -0.0045
     13 C          -3.8512  -17.6489   23.8074 C.ar    1  UNL1       -0.0003
     14 C          -4.9775  -16.7980   24.3145 C.ar    1  UNL1       -0.0002
     15 C          -4.7492  -15.8554   25.4587 C.ar    1  UNL1       -0.0000
     16 C          -5.8756  -15.0045   25.9658 C.ar    1  UNL1       -0.0000
     17 C          -7.2304  -15.0961   25.3285 C.ar    1  UNL1       -0.0000
     18 C          -7.4588  -16.0387   24.1843 C.ar    1  UNL1       -0.0002
     19 C          -6.3324  -16.8896   23.6772 C.ar    1  UNL1       -0.0018
     20 C          -6.5608  -17.8322   22.5330 C.ar    1  UNL1        0.0017
     21 H          -8.8472  -16.3775   23.2574 H       1  UNL1        0.2111
     22 C          -9.3893  -17.2609   22.0555 C.3     1  UNL1        0.0527
     23 C         -10.0766  -16.9829   23.3595 C.3     1  UNL1        0.0753
     24 C          -9.9366  -18.9532   25.0472 C.3     1  UNL1        0.0897
     25 N         -10.7392  -18.0993   24.1110 N.3     1  UNL1       -0.2702
     26 C         -12.2046  -18.3616   23.9261 C.3     1  UNL1        0.0897
@<TRIPOS>BOND
     1    24    25    1
     2    25    26    1
     3    25    23    1
     4    23    22    1
     5    22     1    1
     6     1     2    1
     7     1     3    1
     8     3     4   ar
     9     4     5   ar
    10     5     6   ar
    11     6     7   ar
    12     7     8   ar
    13     8     9    1
    14     9    10    1
    15    10    11    1
    16    11    12   ar
    17    12    13   ar
    18    13    14   ar
    19    14    15   ar
    20    15    16   ar
    21    16    17   ar
    22    17    18   ar
    23    18    19   ar
    24    19    20   ar
    25    20     1    1
    26     8     3   ar
    27    20    11   ar
    28    19    14   ar
    29     2    21    1
@<TRIPOS>MOLECULE
*****
 26 29 0 0 0
SMALL
GASTEIGER

@<TRIPOS>ATOM
      1 C          -7.3823  -17.5846   22.5275 C.3     1  UNL1        0.1264
      2 O          -7.2525  -18.4889   21.3377 O.3     1  UNL1       -0.3786
      3 C          -6.8518  -16.7657   23.6668 C.ar    1  UNL1        0.0017
      4 C          -5.3544  -16.8237   23.7328 C.ar    1  UNL1       -0.0020
      5 C          -4.6212  -16.0711   24.8033 C.ar    1  UNL1       -0.0003
      6 C          -5.3854  -15.2605   25.8078 C.ar    1  UNL1       -0.0003
      7 C          -6.8828  -15.2025   25.7417 C.ar    1  UNL1       -0.0045
      8 C          -7.6160  -15.9551   24.6712 C.ar    1  UNL1       -0.0233
      9 C          -9.0994  -15.7633   24.7844 C.3     1  UNL1        0.0308
     10 C         -10.1850  -16.3346   23.9212 C.3     1  UNL1        0.0308
     11 C         -10.0552  -17.2389   22.7315 C.ar    1  UNL1       -0.0233
     12 C         -11.3966  -17.5782   22.1522 C.ar    1  UNL1       -0.0045
     13 C         -11.4906  -18.4739   20.9526 C.ar    1  UNL1       -0.0003
     14 C         -10.2434  -19.0302   20.3324 C.ar    1  UNL1       -0.0002
     15 C         -10.3373  -19.9258   19.1328 C.ar    1  UNL1       -0.0000
     16 C          -9.0901  -20.4821   18.5125 C.ar    1  UNL1       -0.0000
     17 C          -7.7487  -20.1428   19.0918 C.ar    1  UNL1       -0.0000
     18 C          -7.6546  -19.2472   20.2914 C.ar    1  UNL1       -0.0002
     19 C          -8.9020  -18.6908   20.9116 C.ar    1  UNL1       -0.0018
     20 C          -8.8079  -17.7952   22.1112 C.ar    1  UNL1        0.0017
     21 H          -6.3150  -18.6780   21.1761 H       1  UNL1        0.2111
     22 C          -5.8989  -17.7765   22.4142 C.3     1  UNL1        0.0527
     23 C          -5.3428  -19.1172   22.0359 C.3     1  UNL1        0.0753
     24 C          -4.1362  -19.0191   19.7371 C.3     1  UNL1        0.0897
     25 N          -4.0843  -19.2054   21.2245 N.3     1  UNL1       -0.2702
     26 C          -2.7737  -19.4800   21.9007 C.3     1  UNL1        0.0897
@<TRIPOS>BOND
     1    24    25    1
     2    25    26    1
     3    25    23    1
     4    23    22    1
     5    22     1    1
     6     1     2    1
     7     1     3    1
     8     3     4   ar
     9     4     5   ar
    10     5     6   ar
    11     6     7   ar
    12     7     8   ar
    13     8     9    1
    14     9    10    1
    15    10    11    1
    16    11    12   ar
    17    12    13   ar
    18    13    14   ar
    19    14    15   ar
    20    15    16   ar
    21    16    17   ar
    22    17    18   ar
    23    18    19   ar
    24    19    20   ar
    25    20     1    1
    26     8     3   ar
    27    20    11   ar
    28    19    14   ar
    29     2    21    1
@<TRIPOS>MOLECULE
*****
 26 29 0 0 0
SMALL
GASTEIGER

@<TRIPOS>ATOM
      1 C          -7.6992  -18.1158   21.7011 C.3     1  UNL1        0.1264
      2 O          -6.4421  -17.6683   22.3864 O.3     1  UNL1       -0.3786
      3 C          -8.4780  -18.8643   20.6604 C.ar    1  UNL1        0.0017
      4 C          -7.5712  -19.6246   19.7387 C.ar    1  UNL1       -0.0020
      5 C          -8.1506  -20.4427   18.6229 C.ar    1  UNL1       -0.0003
      6 C          -9.6369  -20.5005   18.4289 C.ar    1  UNL1       -0.0003
      7 C         -10.5437  -19.7402   19.3505 C.ar    1  UNL1       -0.0045
      8 C          -9.9643  -18.9221   20.4663 C.ar    1  UNL1       -0.0233
      9 C         -11.0387  -18.2456   21.2650 C.3     1  UNL1        0.0308
     10 C         -10.8924  -17.3443   22.4551 C.3     1  UNL1        0.0308
     11 C          -9.6353  -16.8968   23.1403 C.ar    1  UNL1       -0.0233
     12 C          -9.9348  -15.9924   24.2989 C.ar    1  UNL1       -0.0045
     13 C          -8.8133  -15.4313   25.1219 C.ar    1  UNL1       -0.0003
     14 C          -7.3922  -15.7746   24.7864 C.ar    1  UNL1       -0.0002
     15 C          -6.2707  -15.2135   25.6093 C.ar    1  UNL1       -0.0000
     16 C          -4.8496  -15.5569   25.2738 C.ar    1  UNL1       -0.0000
     17 C          -4.5500  -16.4613   24.1152 C.ar    1  UNL1       -0.0000
     18 C          -5.6715  -17.0224   23.2922 C.ar    1  UNL1       -0.0002
     19 C          -7.0927  -16.6790   23.6278 C.ar    1  UNL1       -0.0018
     20 C          -8.2141  -17.2401   22.8048 C.ar    1  UNL1        0.0017
     21 H          -5.6741  -18.0572   21.9392 H       1  UNL1        0.2111
     22 C          -6.6246  -18.7922   20.9024 C.3     1  UNL1        0.0527
     23 C          -5.4559  -19.4225   21.6000 C.3     1  UNL1        0.0753
     24 C          -2.8757  -19.5542   21.8747 C.3     1  UNL1        0.0897
     25 N          -4.0794  -19.3011   21.0164 N.3     1  UNL1       -0.2702
     26 C          -3.9068  -18.9266   19.5740 C.3     1  UNL1        0.0897
@<TRIPOS>BOND
     1    24    25    1
     2    25    26    1
     3    25    23    1
     4    23    22    1
     5    22     1    1
     6     1     2    1
     7     1     3    1
     8     3     4   ar
     9     4     5   ar
    10     5     6   ar
    11     6     7   ar
    12     7     8   ar
    13     8     9    1
    14     9    10    1
    15    10    11    1
    16    11    12   ar
    17    12    13   ar
    18    13    14   ar
    19    14    15   ar
    20    15    16   ar
    21    16    17   ar
    22    17    18   ar
    23    18    19   ar
    24    19    20   ar
    25    20     1    1
    26     8     3   ar
    27    20    11   ar
    28    19    14   ar
    29     2    21    1
@<TRIPOS>MOLECULE
*****
 26 29 0 0 0
SMALL
GASTEIGER

@<TRIPOS>ATOM
      1 C          -6.8103  -18.5904   21.8351 C.3     1  UNL1        0.1264
      2 O          -8.2964  -18.6574   21.6423 O.3     1  UNL1       -0.3786
      3 C          -5.3930  -19.0035   21.5692 C.ar    1  UNL1        0.0017
      4 C          -5.3240  -20.0968   20.5445 C.ar    1  UNL1       -0.0020
      5 C          -3.9944  -20.6562   20.1332 C.ar    1  UNL1       -0.0003
      6 C          -2.7339  -20.1222   20.7464 C.ar    1  UNL1       -0.0003
      7 C          -2.8030  -19.0289   21.7710 C.ar    1  UNL1       -0.0045
      8 C          -4.1326  -18.4696   22.1824 C.ar    1  UNL1       -0.0233
      9 C          -3.9781  -17.3907   23.2130 C.3     1  UNL1        0.0308
     10 C          -5.0458  -16.5792   23.8849 C.3     1  UNL1        0.0308
     11 C          -6.5319  -16.6462   23.6921 C.ar    1  UNL1       -0.0233
     12 C          -7.2429  -15.6548   24.5647 C.ar    1  UNL1       -0.0045
     13 C          -8.7394  -15.5585   24.5250 C.ar    1  UNL1       -0.0003
     14 C          -9.5246  -16.4535   23.6128 C.ar    1  UNL1       -0.0002
     15 C         -11.0210  -16.3572   23.5731 C.ar    1  UNL1       -0.0000
     16 C         -11.8062  -17.2522   22.6609 C.ar    1  UNL1       -0.0000
     17 C         -11.0952  -18.2436   21.7883 C.ar    1  UNL1       -0.0000
     18 C          -9.5988  -18.3400   21.8279 C.ar    1  UNL1       -0.0002
     19 C          -8.8135  -17.4449   22.7402 C.ar    1  UNL1       -0.0018
     20 C          -7.3172  -17.5413   22.7798 C.ar    1  UNL1        0.0017
     21 H          -8.5065  -19.3373   20.9831 H       1  UNL1        0.2111
     22 C          -6.9649  -19.6693   20.8044 C.3     1  UNL1        0.0527
     23 C          -7.6272  -19.3649   19.4935 C.3     1  UNL1        0.0753
     24 C          -8.1782  -21.6601   18.4080 C.3     1  UNL1        0.0897
     25 N          -8.6276  -20.3231   18.9182 N.3     1  UNL1       -0.2702
     26 C         -10.0776  -19.9442   18.8532 C.3     1  UNL1        0.0897
@<TRIPOS>BOND
     1    24    25    1
     2    25    26    1
     3    25    23    1
     4    23    22    1
     5    22     1    1
     6     1     2    1
     7     1     3    1
     8     3     4   ar
     9     4     5   ar
    10     5     6   ar
    11     6     7   ar
    12     7     8   ar
    13     8     9    1
    14     9    10    1
    15    10    11    1
    16    11    12   ar
    17    12    13   ar
    18    13    14   ar
    19    14    15   ar
    20    15    16   ar
    21    16    17   ar
    22    17    18   ar
    23    18    19   ar
    24    19    20   ar
    25    20     1    1
    26     8     3   ar
    27    20    11   ar
    28    19    14   ar
    29     2    21    1
@<TRIPOS>MOLECULE
*****
 26 29 0 0 0
SMALL
GASTEIGER

@<TRIPOS>ATOM
      1 C         -14.7507   -6.3078   19.2999 C.3     1  UNL1        0.1264
      2 O         -13.3585   -6.8418   19.1369 O.3     1  UNL1       -0.3786
      3 C         -16.2388   -6.4342   19.4406 C.ar    1  UNL1        0.0017
      4 C         -16.6718   -7.8700   19.4141 C.ar    1  UNL1       -0.0020
      5 C         -18.1255   -8.2174   19.5408 C.ar    1  UNL1       -0.0003
      6 C         -19.1461   -7.1289   19.6939 C.ar    1  UNL1       -0.0003
      7 C         -18.7131   -5.6931   19.7203 C.ar    1  UNL1       -0.0045
      8 C         -17.2594   -5.3457   19.5937 C.ar    1  UNL1       -0.0233
      9 C         -17.0441   -3.8621   19.6439 C.3     1  UNL1        0.0308
     10 C         -15.7550   -3.1004   19.5534 C.3     1  UNL1        0.0308
     11 C         -14.3628   -3.6345   19.3904 C.ar    1  UNL1       -0.0233
     12 C         -13.3528   -2.5264   19.3442 C.ar    1  UNL1       -0.0045
     13 C         -11.8958   -2.8458   19.1851 C.ar    1  UNL1       -0.0003
     14 C         -11.4489   -4.2732   19.0723 C.ar    1  UNL1       -0.0002
     15 C          -9.9919   -4.5926   18.9132 C.ar    1  UNL1       -0.0000
     16 C          -9.5450   -6.0200   18.8004 C.ar    1  UNL1       -0.0000
     17 C         -10.5550   -7.1280   18.8466 C.ar    1  UNL1       -0.0000
     18 C         -12.0119   -6.8087   19.0057 C.ar    1  UNL1       -0.0002
     19 C         -12.4588   -5.3812   19.1185 C.ar    1  UNL1       -0.0018
     20 C         -13.9158   -5.0619   19.2776 C.ar    1  UNL1        0.0017
     21 H         -13.3868   -7.8104   19.0930 H       1  UNL1        0.2111
     22 C         -14.9660   -7.7915   19.2497 C.3     1  UNL1        0.0527
     23 C         -14.4454   -8.5860   18.0888 C.3     1  UNL1        0.0753
     24 C         -13.2128   -7.6932   15.9832 C.3     1  UNL1        0.0897
     25 N         -14.4892   -8.0088   16.7050 N.3     1  UNL1       -0.2702
     26 C         -15.8097   -7.7471   16.0430 C.3     1  UNL1        0.0897
@<TRIPOS>BOND
     1    24    25    1
     2    25    26    1
     3    25    23    1
     4    23    22    1
     5    22     1    1
     6     1     2    1
     7     1     3    1
     8     3     4   ar
     9     4     5   ar
    10     5     6   ar
    11     6     7   ar
    12     7     8   ar
    13     8     9    1
    14     9    10    1
    15    10    11    1
    16    11    12   ar
    17    12    13   ar
    18    13    14   ar
    19    14    15   ar
    20    15    16   ar
    21    16    17   ar
    22    17    18   ar
    23    18    19   ar
    24    19    20   ar
    25    20     1    1
    26     8     3   ar
    27    20    11   ar
    28    19    14   ar
    29     2    21    1
@<TRIPOS>MOLECULE
*****
 26 29 0 0 0
SMALL
GASTEIGER

@<TRIPOS>ATOM
      1 C          -8.0601  -18.0943   22.2289 C.3     1  UNL1        0.1264
      2 O          -6.7903  -18.7590   21.7863 O.3     1  UNL1       -0.3786
      3 C          -9.5459  -17.8883   22.2372 C.ar    1  UNL1        0.0017
      4 C         -10.2364  -18.8408   21.3067 C.ar    1  UNL1       -0.0020
      5 C         -11.7292  -18.8017   21.1655 C.ar    1  UNL1       -0.0003
      6 C         -12.5314  -17.8100   21.9547 C.ar    1  UNL1       -0.0003
      7 C         -11.8409  -16.8574   22.8851 C.ar    1  UNL1       -0.0045
      8 C         -10.3481  -16.8966   23.0264 C.ar    1  UNL1       -0.0233
      9 C          -9.8627  -15.8659   24.0022 C.3     1  UNL1        0.0308
     10 C          -8.4553  -15.5724   24.4299 C.3     1  UNL1        0.0308
     11 C          -7.1855  -16.2371   23.9873 C.ar    1  UNL1       -0.0233
     12 C          -5.9884  -15.6371   24.6633 C.ar    1  UNL1       -0.0045
     13 C          -4.6154  -16.1595   24.3597 C.ar    1  UNL1       -0.0003
     14 C          -4.4396  -17.2818   23.3803 C.ar    1  UNL1       -0.0002
     15 C          -3.0666  -17.8041   23.0767 C.ar    1  UNL1       -0.0000
     16 C          -2.8907  -18.9264   22.0973 C.ar    1  UNL1       -0.0000
     17 C          -4.0878  -19.5264   21.4213 C.ar    1  UNL1       -0.0000
     18 C          -5.4608  -19.0042   21.7247 C.ar    1  UNL1       -0.0002
     19 C          -5.6366  -17.8818   22.7043 C.ar    1  UNL1       -0.0018
     20 C          -7.0096  -17.3595   23.0077 C.ar    1  UNL1        0.0017
     21 H          -6.9968  -19.4543   21.1423 H       1  UNL1        0.2111
     22 C          -8.5454  -19.1250   21.2531 C.3     1  UNL1        0.0527
     23 C          -7.9189  -19.2246   19.8939 C.3     1  UNL1        0.0753
     24 C          -8.8962  -20.9094   18.1745 C.3     1  UNL1        0.0897
     25 N          -7.8553  -20.5490   19.1925 N.3     1  UNL1       -0.2702
     26 C          -6.7505  -21.5131   19.5094 C.3     1  UNL1        0.0897
@<TRIPOS>BOND
     1    24    25    1
     2    25    26    1
     3    25    23    1
     4    23    22    1
     5    22     1    1
     6     1     2    1
     7     1     3    1
     8     3     4   ar
     9     4     5   ar
    10     5     6   ar
    11     6     7   ar
    12     7     8   ar
    13     8     9    1
    14     9    10    1
    15    10    11    1
    16    11    12   ar
    17    12    13   ar
    18    13    14   ar
    19    14    15   ar
    20    15    16   ar
    21    16    17   ar
    22    17    18   ar
    23    18    19   ar
    24    19    20   ar
    25    20     1    1
    26     8     3   ar
    27    20    11   ar
    28    19    14   ar
    29     2    21    1
