@<TRIPOS>MOLECULE
*****
 40 44 0 0 0
SMALL
GASTEIGER

@<TRIPOS>ATOM
      1 C           5.5296    0.2402   26.5725 C.3     1  UNL1        0.1139
      2 C           4.9208   -1.8880   22.6546 C.ar    1  UNL1        0.0001
      3 C           6.2409   -1.2454   22.9619 C.ar    1  UNL1       -0.0003
      4 C           6.4438   -0.5360   24.2679 C.ar    1  UNL1       -0.0026
      5 C           5.3267   -0.4692   25.2666 C.ar    1  UNL1       -0.0029
      6 C           4.0066   -1.1118   24.9594 C.ar    1  UNL1       -0.0026
      7 C           3.8036   -1.8212   23.6534 C.ar    1  UNL1       -0.0003
      8 C           4.7468   -2.5807   18.7508 C.ar    1  UNL1        0.1387
      9 C           4.3120   -4.0162   18.7367 C.ar    1  UNL1        0.0369
     10 C           4.0802   -4.7424   20.0286 C.ar    1  UNL1        0.0031
     11 C           4.2831   -4.0329   21.3346 C.ar    1  UNL1        0.0002
     12 C           4.7179   -2.5974   21.3487 C.ar    1  UNL1        0.0030
     13 C           4.9497   -1.8713   20.0568 C.ar    1  UNL1        0.0369
     14 C           4.0381   -0.7674   17.0304 C.3     1  UNL1        0.2525
     15 O           4.9787   -1.8545   17.4590 O.3     1  UNL1       -0.4714
     16 N           6.8252    0.0912   27.3136 N.am    1  UNL1       -0.2729
     17 C           7.8107    1.2217   27.3361 C.3     1  UNL1        0.1152
     18 C           7.1353   -1.1885   28.0323 C.2     1  UNL1        0.2465
     19 O           8.4309   -1.3375   28.7733 O.2     1  UNL1       -0.2730
     20 C           6.1498   -2.3191   28.0098 C.3     1  UNL1        0.1835
     21 N           6.5984   -3.7118   28.3404 N.am    1  UNL1       -0.2439
     22 C           6.6372   -4.1680   29.7688 C.2     1  UNL1        0.2744
     23 O           6.2274   -3.2316   30.8666 O.2     1  UNL1       -0.2705
     24 C           7.0858   -5.5606   30.0993 C.3     1  UNL1        0.2900
     25 O           7.4955   -6.4970   29.0015 O.3     1  UNL1       -0.4643
     26 C           7.4567   -6.0408   27.5731 C.ar    1  UNL1        0.1537
     27 C           7.8664   -6.9772   26.4752 C.ar    1  UNL1        0.0504
     28 C           7.8276   -6.5210   25.0469 C.ar    1  UNL1        0.0713
     29 CL          8.2374   -7.4574   23.9490 Cl      1  UNL1       -0.0813
     30 C           7.3790   -5.1283   24.7163 C.ar    1  UNL1        0.0696
     31 CL          7.3402   -4.6721   23.2879 Cl      1  UNL1       -0.0813
     32 C           6.9693   -4.1919   25.8141 C.ar    1  UNL1        0.0302
     33 C           7.0081   -4.6482   27.2425 C.ar    1  UNL1        0.0894
     34 C           4.4369    1.0987   27.1375 C.3     1  UNL1        0.0968
     35 N           3.5343    0.5570   28.2061 N.3     1  UNL1       -0.2667
     36 C           2.0995    0.2520   27.8924 C.3     1  UNL1        0.1047
     37 C           1.1969   -0.2896   28.9610 C.3     1  UNL1        0.1595
     38 O           1.7291   -0.5263   30.3434 O.3     1  UNL1       -0.3508
     39 C           3.1639   -0.2213   30.6570 C.3     1  UNL1        0.1595
     40 C           4.0664    0.3204   29.5884 C.3     1  UNL1        0.1047
@<TRIPOS>BOND
     1    14    15    1
     2    15     8    1
     3     8     9   ar
     4     9    10   ar
     5    10    11   ar
     6    11    12   ar
     7    12     2    1
     8     2     3   ar
     9     3     4   ar
    10     4     5   ar
    11     5     1    1
    12     1    34    1
    13    34    35    1
    14    35    36    1
    15    36    37    1
    16    37    38    1
    17    38    39    1
    18    39    40    1
    19     1    16    1
    20    16    17    1
    21    16    18   am
    22    18    19    2
    23    18    20    1
    24    20    21    1
    25    21    22   am
    26    22    23    2
    27    22    24    1
    28    24    25    1
    29    25    26    1
    30    26    27   ar
    31    27    28   ar
    32    28    29    1
    33    28    30   ar
    34    30    31    1
    35    30    32   ar
    36    32    33   ar
    37     5     6   ar
    38     6     7   ar
    39    12    13   ar
    40    13     8   ar
    41     7     2   ar
    42    40    35    1
    43    33    21    1
    44    33    26   ar
@<TRIPOS>MOLECULE
*****
 40 44 0 0 0
SMALL
GASTEIGER

@<TRIPOS>ATOM
      1 C           5.4707    0.7404   35.6363 C.3     1  UNL1        0.1139
      2 C           6.2182   -2.3769   32.4782 C.ar    1  UNL1        0.0001
      3 C           4.8890   -2.3144   33.1706 C.ar    1  UNL1       -0.0003
      4 C           4.6398   -1.2753   34.2233 C.ar    1  UNL1       -0.0026
      5 C           5.7199   -0.2987   34.5836 C.ar    1  UNL1       -0.0029
      6 C           7.0490   -0.3612   33.8913 C.ar    1  UNL1       -0.0026
      7 C           7.2982   -1.4004   32.8386 C.ar    1  UNL1       -0.0003
      8 C           6.5945   -4.0966   28.9214 C.ar    1  UNL1        0.1387
      9 C           6.9657   -5.4943   29.3201 C.ar    1  UNL1        0.0369
     10 C           7.0876   -5.8528   30.7716 C.ar    1  UNL1        0.0031
     11 C           6.8385   -4.8136   31.8243 C.ar    1  UNL1        0.0002
     12 C           6.4674   -3.4160   31.4255 C.ar    1  UNL1        0.0030
     13 C           6.3454   -3.0575   29.9741 C.ar    1  UNL1        0.0369
     14 C           6.8817   -4.7248   26.4168 C.3     1  UNL1        0.2525
     15 O           6.4725   -3.7382   27.4700 O.3     1  UNL1       -0.4714
     16 N           5.6055    2.1960   35.3001 N.am    1  UNL1       -0.2729
     17 C           6.9341    2.8780   35.4398 C.3     1  UNL1        0.1152
     18 C           4.4117    2.9695   34.8242 C.2     1  UNL1        0.2465
     19 O           4.5465    4.4251   34.4880 O.2     1  UNL1       -0.2730
     20 C           3.0831    2.2874   34.6846 C.3     1  UNL1        0.1835
     21 N           2.0575    2.8304   33.7340 N.am    1  UNL1       -0.2439
     22 C           1.2424    4.0304   34.1154 C.2     1  UNL1        0.2744
     23 O           1.4528    4.6876   35.4472 O.2     1  UNL1       -0.2705
     24 C           0.2168    4.5733   33.1649 C.3     1  UNL1        0.2900
     25 O           0.0064    3.9161   31.8330 O.3     1  UNL1       -0.4643
     26 C           0.8215    2.7161   31.4517 C.ar    1  UNL1        0.1537
     27 C           0.6111    2.0589   30.1198 C.ar    1  UNL1        0.0504
     28 C           1.4262    0.8589   29.7384 C.ar    1  UNL1        0.0713
     29 CL          1.2158    0.2017   28.4066 Cl      1  UNL1       -0.0813
     30 C           2.4518    0.3159   30.6890 C.ar    1  UNL1        0.0696
     31 CL          3.2669   -0.8841   30.3076 Cl      1  UNL1       -0.0813
     32 C           2.6622    0.9731   32.0208 C.ar    1  UNL1        0.0302
     33 C           1.8470    2.1732   32.4022 C.ar    1  UNL1        0.0894
     34 C           5.0868    0.3239   37.0253 C.3     1  UNL1        0.0968
     35 N           4.3889    1.2930   37.9329 N.3     1  UNL1       -0.2667
     36 C           2.8973    1.2393   38.0829 C.3     1  UNL1        0.1047
     37 C           2.1994    2.2084   38.9905 C.3     1  UNL1        0.1595
     38 O           2.9931    3.2312   39.7482 O.3     1  UNL1       -0.3508
     39 C           4.4846    3.2849   39.5982 C.3     1  UNL1        0.1595
     40 C           5.1825    2.3158   38.6905 C.3     1  UNL1        0.1047
@<TRIPOS>BOND
     1    14    15    1
     2    15     8    1
     3     8     9   ar
     4     9    10   ar
     5    10    11   ar
     6    11    12   ar
     7    12     2    1
     8     2     3   ar
     9     3     4   ar
    10     4     5   ar
    11     5     1    1
    12     1    34    1
    13    34    35    1
    14    35    36    1
    15    36    37    1
    16    37    38    1
    17    38    39    1
    18    39    40    1
    19     1    16    1
    20    16    17    1
    21    16    18   am
    22    18    19    2
    23    18    20    1
    24    20    21    1
    25    21    22   am
    26    22    23    2
    27    22    24    1
    28    24    25    1
    29    25    26    1
    30    26    27   ar
    31    27    28   ar
    32    28    29    1
    33    28    30   ar
    34    30    31    1
    35    30    32   ar
    36    32    33   ar
    37     5     6   ar
    38     6     7   ar
    39    12    13   ar
    40    13     8   ar
    41     7     2   ar
    42    40    35    1
    43    33    21    1
    44    33    26   ar
@<TRIPOS>MOLECULE
*****
 40 44 0 0 0
SMALL
GASTEIGER

@<TRIPOS>ATOM
      1 C           6.5257   -2.2561   32.0140 C.3     1  UNL1        0.1139
      2 C           5.6661    0.1155   35.7405 C.ar    1  UNL1        0.0001
      3 C           4.6438   -0.8460   35.2108 C.ar    1  UNL1       -0.0003
      4 C           4.9303   -1.6365   33.9687 C.ar    1  UNL1       -0.0026
      5 C           6.2392   -1.4656   33.2561 C.ar    1  UNL1       -0.0029
      6 C           7.2615   -0.5042   33.7857 C.ar    1  UNL1       -0.0026
      7 C           6.9750    0.2864   35.0279 C.ar    1  UNL1       -0.0003
      8 C           3.7171    1.6824   38.8220 C.ar    1  UNL1        0.1387
      9 C           4.8065    2.4870   39.4670 C.ar    1  UNL1        0.0369
     10 C           6.1824    2.5010   38.8697 C.ar    1  UNL1        0.0031
     11 C           6.4689    1.7105   37.6275 C.ar    1  UNL1        0.0002
     12 C           5.3796    0.9059   36.9826 C.ar    1  UNL1        0.0030
     13 C           4.0037    0.8919   37.5799 C.ar    1  UNL1        0.0369
     14 C           1.4710    0.4557   39.2696 C.3     1  UNL1        0.2525
     15 O           2.3412    1.6684   39.4192 O.3     1  UNL1       -0.4714
     16 N           6.7961   -1.5476   30.7198 N.am    1  UNL1       -0.2729
     17 C           8.2081   -1.3475   30.2551 C.3     1  UNL1        0.1152
     18 C           5.6543   -1.0392   29.8903 C.2     1  UNL1        0.2465
     19 O           5.9247   -0.3307   28.5961 O.2     1  UNL1       -0.2730
     20 C           4.2422   -1.2393   30.3550 C.3     1  UNL1        0.1835
     21 N           3.1475   -0.3593   29.8284 N.am    1  UNL1       -0.2439
     22 C           2.6265   -0.5620   28.4365 C.2     1  UNL1        0.2744
     23 O           3.2001   -1.6446   27.5712 O.2     1  UNL1       -0.2705
     24 C           1.5318    0.3180   27.9100 C.3     1  UNL1        0.2900
     25 O           0.9581    1.4006   28.7754 O.3     1  UNL1       -0.4643
     26 C           1.4791    1.6032   30.1673 C.ar    1  UNL1        0.1537
     27 C           0.9055    2.6859   31.0326 C.ar    1  UNL1        0.0504
     28 C           1.4265    2.8885   32.4245 C.ar    1  UNL1        0.0713
     29 CL          0.8528    3.9711   33.2899 Cl      1  UNL1       -0.0813
     30 C           2.5212    2.0085   32.9511 C.ar    1  UNL1        0.0696
     31 CL          3.0423    2.2112   34.3430 Cl      1  UNL1       -0.0813
     32 C           3.0949    0.9259   32.0858 C.ar    1  UNL1        0.0302
     33 C           2.5738    0.7233   30.6938 C.ar    1  UNL1        0.0894
     34 C           6.5419   -3.7552   32.0660 C.3     1  UNL1        0.0968
     35 N           7.3217   -4.5326   31.0474 N.3     1  UNL1       -0.2667
     36 C           8.7557   -4.8856   31.3102 C.3     1  UNL1        0.1047
     37 C           9.5355   -5.6630   30.2916 C.3     1  UNL1        0.1595
     38 O           8.8813   -6.0873   29.0102 O.3     1  UNL1       -0.3508
     39 C           7.4473   -5.7343   28.7474 C.3     1  UNL1        0.1595
     40 C           6.6675   -4.9569   29.7660 C.3     1  UNL1        0.1047
@<TRIPOS>BOND
     1    14    15    1
     2    15     8    1
     3     8     9   ar
     4     9    10   ar
     5    10    11   ar
     6    11    12   ar
     7    12     2    1
     8     2     3   ar
     9     3     4   ar
    10     4     5   ar
    11     5     1    1
    12     1    34    1
    13    34    35    1
    14    35    36    1
    15    36    37    1
    16    37    38    1
    17    38    39    1
    18    39    40    1
    19     1    16    1
    20    16    17    1
    21    16    18   am
    22    18    19    2
    23    18    20    1
    24    20    21    1
    25    21    22   am
    26    22    23    2
    27    22    24    1
    28    24    25    1
    29    25    26    1
    30    26    27   ar
    31    27    28   ar
    32    28    29    1
    33    28    30   ar
    34    30    31    1
    35    30    32   ar
    36    32    33   ar
    37     5     6   ar
    38     6     7   ar
    39    12    13   ar
    40    13     8   ar
    41     7     2   ar
    42    40    35    1
    43    33    21    1
    44    33    26   ar
@<TRIPOS>MOLECULE
*****
 40 44 0 0 0
SMALL
GASTEIGER

@<TRIPOS>ATOM
      1 C           4.5850   -0.5939   27.4506 C.3     1  UNL1        0.1139
      2 C           4.2076   -1.9273   23.1693 C.ar    1  UNL1        0.0001
      3 C           5.2916   -2.4929   24.0383 C.ar    1  UNL1       -0.0003
      4 C           5.4174   -2.0484   25.4653 C.ar    1  UNL1       -0.0026
      5 C           4.4592   -1.0383   26.0235 C.ar    1  UNL1       -0.0029
      6 C           3.3752   -0.4727   25.1546 C.ar    1  UNL1       -0.0026
      7 C           3.2494   -0.9172   23.7275 C.ar    1  UNL1       -0.0003
      8 C           3.5626   -1.8310   19.2547 C.ar    1  UNL1        0.1387
      9 C           3.8302   -3.2608   18.8880 C.ar    1  UNL1        0.0369
     10 C           4.2236   -4.2460   19.9485 C.ar    1  UNL1        0.0031
     11 C           4.3493   -3.8014   21.3757 C.ar    1  UNL1        0.0002
     12 C           4.0818   -2.3718   21.7422 C.ar    1  UNL1        0.0030
     13 C           3.6884   -1.3866   20.6817 C.ar    1  UNL1        0.0369
     14 C           3.8839   -0.8382   16.8753 C.3     1  UNL1        0.2525
     15 O           3.1692   -0.8459   18.1942 O.3     1  UNL1       -0.4714
     16 N           5.9422   -0.4183   28.0646 N.am    1  UNL1       -0.2729
     17 C           6.6562    0.8952   27.9430 C.3     1  UNL1        0.1152
     18 C           6.5855   -1.5564   28.8002 C.2     1  UNL1        0.2465
     19 O           7.9428   -1.3808   29.4142 O.2     1  UNL1       -0.2730
     20 C           5.8716   -2.8699   28.9218 C.3     1  UNL1        0.1835
     21 N           6.6134   -4.0862   29.3914 N.am    1  UNL1       -0.2439
     22 C           6.7769   -4.3444   30.8599 C.2     1  UNL1        0.2744
     23 O           6.1985   -3.3865   31.8588 O.2     1  UNL1       -0.2705
     24 C           7.5187   -5.5606   31.3295 C.3     1  UNL1        0.2900
     25 O           8.0970   -6.5186   30.3306 O.3     1  UNL1       -0.4643
     26 C           7.9335   -6.2603   28.8621 C.ar    1  UNL1        0.1537
     27 C           8.5119   -7.2183   27.8631 C.ar    1  UNL1        0.0504
     28 C           8.3484   -6.9600   26.3946 C.ar    1  UNL1        0.0713
     29 CL          8.9267   -7.9180   25.3957 Cl      1  UNL1       -0.0813
     30 C           7.6065   -5.7438   25.9250 C.ar    1  UNL1        0.0696
     31 CL          7.4431   -5.4856   24.4565 Cl      1  UNL1       -0.0813
     32 C           7.0282   -4.7858   26.9239 C.ar    1  UNL1        0.0302
     33 C           7.1917   -5.0441   28.3925 C.ar    1  UNL1        0.0894
     34 C           3.3535   -0.3249   28.2637 C.3     1  UNL1        0.0968
     35 N           3.4790    0.1853   29.6687 N.3     1  UNL1       -0.2667
     36 C           3.6524    1.6539   29.9206 C.3     1  UNL1        0.1047
     37 C           3.7779    2.1641   31.3255 C.3     1  UNL1        0.1595
     38 O           3.7302    1.2058   32.4786 O.3     1  UNL1       -0.3508
     39 C           3.5568   -0.2627   32.2266 C.3     1  UNL1        0.1595
     40 C           3.4313   -0.7729   30.8217 C.3     1  UNL1        0.1047
@<TRIPOS>BOND
     1    14    15    1
     2    15     8    1
     3     8     9   ar
     4     9    10   ar
     5    10    11   ar
     6    11    12   ar
     7    12     2    1
     8     2     3   ar
     9     3     4   ar
    10     4     5   ar
    11     5     1    1
    12     1    34    1
    13    34    35    1
    14    35    36    1
    15    36    37    1
    16    37    38    1
    17    38    39    1
    18    39    40    1
    19     1    16    1
    20    16    17    1
    21    16    18   am
    22    18    19    2
    23    18    20    1
    24    20    21    1
    25    21    22   am
    26    22    23    2
    27    22    24    1
    28    24    25    1
    29    25    26    1
    30    26    27   ar
    31    27    28   ar
    32    28    29    1
    33    28    30   ar
    34    30    31    1
    35    30    32   ar
    36    32    33   ar
    37     5     6   ar
    38     6     7   ar
    39    12    13   ar
    40    13     8   ar
    41     7     2   ar
    42    40    35    1
    43    33    21    1
    44    33    26   ar
@<TRIPOS>MOLECULE
*****
 40 44 0 0 0
SMALL
GASTEIGER

@<TRIPOS>ATOM
      1 C           4.2966   -2.1435   18.9102 C.3     1  UNL1        0.1139
      2 C           1.2021    1.1104   19.2028 C.ar    1  UNL1        0.0001
      3 C           1.0304   -0.1601   19.9815 C.ar    1  UNL1       -0.0003
      4 C           2.0619   -1.2448   19.8839 C.ar    1  UNL1       -0.0026
      5 C           3.2651   -1.0589   19.0078 C.ar    1  UNL1       -0.0029
      6 C           3.4369    0.2116   18.2292 C.ar    1  UNL1       -0.0026
      7 C           2.4054    1.2963   18.3267 C.ar    1  UNL1       -0.0003
      8 C          -1.8733    3.2546   20.5044 C.ar    1  UNL1        0.1387
      9 C          -1.8924    4.3644   19.4954 C.ar    1  UNL1        0.0369
     10 C          -0.8800    4.3895   18.3889 C.ar    1  UNL1        0.0031
     11 C           0.1515    3.3048   18.2914 C.ar    1  UNL1        0.0002
     12 C           0.1706    2.1951   19.3004 C.ar    1  UNL1        0.0030
     13 C          -0.8418    2.1700   20.4069 C.ar    1  UNL1        0.0369
     14 C          -4.3504    3.2317   21.2875 C.3     1  UNL1        0.2525
     15 O          -2.8857    3.2295   21.6110 O.3     1  UNL1       -0.4714
     16 N           4.1705   -3.3767   19.7549 N.am    1  UNL1       -0.2729
     17 C           3.5729   -4.6246   19.1757 C.3     1  UNL1        0.1152
     18 C           4.6419   -3.3618   21.1789 C.2     1  UNL1        0.2465
     19 O           4.5158   -4.5949   22.0236 O.2     1  UNL1       -0.2730
     20 C           5.2394   -2.1139   21.7581 C.3     1  UNL1        0.1835
     21 N           5.3675   -1.9638   23.2451 N.am    1  UNL1       -0.2439
     22 C           6.4963   -2.6326   23.9720 C.2     1  UNL1        0.2744
     23 O           7.4972   -3.4515   23.2119 O.2     1  UNL1       -0.2705
     24 C           6.6243   -2.4826   25.4589 C.3     1  UNL1        0.2900
     25 O           5.6235   -1.6638   26.2190 O.3     1  UNL1       -0.4643
     26 C           4.4946   -0.9950   25.4922 C.ar    1  UNL1        0.1537
     27 C           3.4937   -0.1761   26.2523 C.ar    1  UNL1        0.0504
     28 C           2.3649    0.4927   25.5255 C.ar    1  UNL1        0.0713
     29 CL          1.3640    1.3115   26.2856 Cl      1  UNL1       -0.0813
     30 C           2.2369    0.3427   24.0384 C.ar    1  UNL1        0.0696
     31 CL          1.1080    1.0115   23.3116 Cl      1  UNL1       -0.0813
     32 C           3.2377   -0.4762   23.2783 C.ar    1  UNL1        0.0302
     33 C           4.3666   -1.1450   24.0052 C.ar    1  UNL1        0.0894
     34 C           5.4543   -1.9951   17.9680 C.3     1  UNL1        0.0968
     35 N           6.7683   -1.4746   18.4705 N.3     1  UNL1       -0.2667
     36 C           7.7656   -2.4166   19.0772 C.3     1  UNL1        0.1047
     37 C           9.0796   -1.8961   19.5798 C.3     1  UNL1        0.1595
     38 O           9.3963   -0.4336   19.4755 O.3     1  UNL1       -0.3508
     39 C           8.3990    0.5083   18.8688 C.3     1  UNL1        0.1595
     40 C           7.0850   -0.0122   18.3663 C.3     1  UNL1        0.1047
@<TRIPOS>BOND
     1    14    15    1
     2    15     8    1
     3     8     9   ar
     4     9    10   ar
     5    10    11   ar
     6    11    12   ar
     7    12     2    1
     8     2     3   ar
     9     3     4   ar
    10     4     5   ar
    11     5     1    1
    12     1    34    1
    13    34    35    1
    14    35    36    1
    15    36    37    1
    16    37    38    1
    17    38    39    1
    18    39    40    1
    19     1    16    1
    20    16    17    1
    21    16    18   am
    22    18    19    2
    23    18    20    1
    24    20    21    1
    25    21    22   am
    26    22    23    2
    27    22    24    1
    28    24    25    1
    29    25    26    1
    30    26    27   ar
    31    27    28   ar
    32    28    29    1
    33    28    30   ar
    34    30    31    1
    35    30    32   ar
    36    32    33   ar
    37     5     6   ar
    38     6     7   ar
    39    12    13   ar
    40    13     8   ar
    41     7     2   ar
    42    40    35    1
    43    33    21    1
    44    33    26   ar
@<TRIPOS>MOLECULE
*****
 40 44 0 0 0
SMALL
GASTEIGER

@<TRIPOS>ATOM
      1 C           2.9176    0.2263   27.0001 C.3     1  UNL1        0.1139
      2 C          -0.8561    2.4724   26.0183 C.ar    1  UNL1        0.0001
      3 C          -0.0317    1.8736   24.9174 C.ar    1  UNL1       -0.0003
      4 C           1.2262    1.1249   25.2447 C.ar    1  UNL1       -0.0026
      5 C           1.6598    0.9750   26.6728 C.ar    1  UNL1       -0.0029
      6 C           0.8354    1.5737   27.7736 C.ar    1  UNL1       -0.0026
      7 C          -0.4225    2.3225   27.4464 C.ar    1  UNL1       -0.0003
      8 C          -4.2475    4.4838   26.4678 C.ar    1  UNL1        0.1387
      9 C          -4.6298    4.7185   25.0364 C.ar    1  UNL1        0.0369
     10 C          -3.7541    4.2045   23.9323 C.ar    1  UNL1        0.0031
     11 C          -2.4962    3.4558   24.2597 C.ar    1  UNL1        0.0002
     12 C          -2.1140    3.2211   25.6910 C.ar    1  UNL1        0.0030
     13 C          -2.9896    3.7351   26.7951 C.ar    1  UNL1        0.0369
     14 C          -6.2430    5.9463   27.2611 C.3     1  UNL1        0.2525
     15 O          -5.1232    4.9978   27.5719 O.3     1  UNL1       -0.4714
     16 N           4.2038    0.5861   26.3172 N.am    1  UNL1       -0.2729
     17 C           5.0179    1.7441   26.8133 C.3     1  UNL1        0.1152
     18 C           4.6759   -0.2123   25.1383 C.2     1  UNL1        0.2465
     19 O           5.9621    0.1476   24.4554 O.2     1  UNL1       -0.2730
     20 C           3.8618   -1.3703   24.6422 C.3     1  UNL1        0.1835
     21 N           4.0965   -1.9169   23.2651 N.am    1  UNL1       -0.2439
     22 C           5.0531   -3.0543   23.0626 C.2     1  UNL1        0.2744
     23 O           5.7750   -3.6453   24.2371 O.2     1  UNL1       -0.2705
     24 C           5.2877   -3.6008   21.6856 C.3     1  UNL1        0.2900
     25 O           4.5657   -3.0098   20.5111 O.3     1  UNL1       -0.4643
     26 C           3.6092   -1.8724   20.7136 C.ar    1  UNL1        0.1537
     27 C           2.8872   -1.2814   19.5390 C.ar    1  UNL1        0.0504
     28 C           1.9306   -0.1439   19.7415 C.ar    1  UNL1        0.0713
     29 CL          1.2086    0.4470   18.5670 Cl      1  UNL1       -0.0813
     30 C           1.6959    0.4026   21.1186 C.ar    1  UNL1        0.0696
     31 CL          0.7393    1.5401   21.3211 Cl      1  UNL1       -0.0813
     32 C           2.4179   -0.1884   22.2931 C.ar    1  UNL1        0.0302
     33 C           3.3745   -1.3259   22.0906 C.ar    1  UNL1        0.0894
     34 C           2.8894   -0.8823   28.0102 C.3     1  UNL1        0.0968
     35 N           3.4977   -0.6773   29.3659 N.3     1  UNL1       -0.2667
     36 C           2.6315   -0.2799   30.5243 C.3     1  UNL1        0.1047
     37 C           3.2399   -0.0749   31.8800 C.3     1  UNL1        0.1595
     38 O           4.7144   -0.2673   32.0773 O.3     1  UNL1       -0.3508
     39 C           5.5805   -0.6647   30.9189 C.3     1  UNL1        0.1595
     40 C           4.9721   -0.8697   29.5632 C.3     1  UNL1        0.1047
@<TRIPOS>BOND
     1    14    15    1
     2    15     8    1
     3     8     9   ar
     4     9    10   ar
     5    10    11   ar
     6    11    12   ar
     7    12     2    1
     8     2     3   ar
     9     3     4   ar
    10     4     5   ar
    11     5     1    1
    12     1    34    1
    13    34    35    1
    14    35    36    1
    15    36    37    1
    16    37    38    1
    17    38    39    1
    18    39    40    1
    19     1    16    1
    20    16    17    1
    21    16    18   am
    22    18    19    2
    23    18    20    1
    24    20    21    1
    25    21    22   am
    26    22    23    2
    27    22    24    1
    28    24    25    1
    29    25    26    1
    30    26    27   ar
    31    27    28   ar
    32    28    29    1
    33    28    30   ar
    34    30    31    1
    35    30    32   ar
    36    32    33   ar
    37     5     6   ar
    38     6     7   ar
    39    12    13   ar
    40    13     8   ar
    41     7     2   ar
    42    40    35    1
    43    33    21    1
    44    33    26   ar
@<TRIPOS>MOLECULE
*****
 40 44 0 0 0
SMALL
GASTEIGER

@<TRIPOS>ATOM
      1 C           0.1468    2.8435   22.2630 C.3     1  UNL1        0.1139
      2 C           2.6456   -0.7028   21.0672 C.ar    1  UNL1        0.0001
      3 C           1.2804   -0.5134   20.4752 C.ar    1  UNL1       -0.0003
      4 C           0.4475    0.6687   20.8738 C.ar    1  UNL1       -0.0026
      5 C           0.9797    1.6614   21.8644 C.ar    1  UNL1       -0.0029
      6 C           2.3448    1.4721   22.4564 C.ar    1  UNL1       -0.0026
      7 C           3.1778    0.2899   22.0578 C.ar    1  UNL1       -0.0003
      8 C           5.1646   -3.7614   21.2899 C.ar    1  UNL1        0.1387
      9 C           5.1444   -4.2491   19.8715 C.ar    1  UNL1        0.0369
     10 C           4.2913   -3.5546   18.8517 C.ar    1  UNL1        0.0031
     11 C           3.4583   -2.3725   19.2503 C.ar    1  UNL1        0.0002
     12 C           3.4785   -1.8849   20.6687 C.ar    1  UNL1        0.0030
     13 C           4.3317   -2.5793   21.6884 C.ar    1  UNL1        0.0369
     14 C           7.5064   -4.2724   22.2924 C.3     1  UNL1        0.2525
     15 O           6.0177   -4.4558   22.3096 O.3     1  UNL1       -0.4714
     16 N           0.1832    4.0979   21.4413 N.am    1  UNL1       -0.2729
     17 C           1.2482    5.1251   21.6874 C.3     1  UNL1        0.1152
     18 C          -0.8455    4.3251   20.3734 C.2     1  UNL1        0.2465
     19 O          -0.8091    5.5795   19.5518 O.2     1  UNL1       -0.2730
     20 C          -1.9105    3.2979   20.1273 C.3     1  UNL1        0.1835
     21 N          -3.2705    3.7248   19.6598 N.am    1  UNL1       -0.2439
     22 C          -3.5156    3.9839   18.2029 C.2     1  UNL1        0.2744
     23 O          -2.4008    3.8163   17.2133 O.2     1  UNL1       -0.2705
     24 C          -4.8755    4.4107   17.7355 C.3     1  UNL1        0.2900
     25 O          -5.9902    4.5783   18.7250 O.3     1  UNL1       -0.4643
     26 C          -5.7451    4.3191   20.1820 C.ar    1  UNL1        0.1537
     27 C          -6.8599    4.4867   21.1715 C.ar    1  UNL1        0.0504
     28 C          -6.6148    4.2276   22.6284 C.ar    1  UNL1        0.0713
     29 CL         -7.7295    4.3952   23.6180 Cl      1  UNL1       -0.0813
     30 C          -5.2548    3.8008   23.0959 C.ar    1  UNL1        0.0696
     31 CL         -5.0097    3.5416   24.5528 Cl      1  UNL1       -0.0813
     32 C          -4.1400    3.6332   22.1064 C.ar    1  UNL1        0.0302
     33 C          -4.3852    3.8924   20.6494 C.ar    1  UNL1        0.0894
     34 C          -0.7226    2.7712   23.4832 C.3     1  UNL1        0.0968
     35 N          -0.0986    2.6879   24.8448 N.3     1  UNL1       -0.2667
     36 C          -0.2363    1.4346   25.6574 C.3     1  UNL1        0.1047
     37 C           0.3877    1.3513   27.0190 C.3     1  UNL1        0.1595
     38 O           1.1493    2.5212   27.5678 O.3     1  UNL1       -0.3508
     39 C           1.2870    3.7744   26.7551 C.3     1  UNL1        0.1595
     40 C           0.6630    3.8578   25.3936 C.3     1  UNL1        0.1047
@<TRIPOS>BOND
     1    14    15    1
     2    15     8    1
     3     8     9   ar
     4     9    10   ar
     5    10    11   ar
     6    11    12   ar
     7    12     2    1
     8     2     3   ar
     9     3     4   ar
    10     4     5   ar
    11     5     1    1
    12     1    34    1
    13    34    35    1
    14    35    36    1
    15    36    37    1
    16    37    38    1
    17    38    39    1
    18    39    40    1
    19     1    16    1
    20    16    17    1
    21    16    18   am
    22    18    19    2
    23    18    20    1
    24    20    21    1
    25    21    22   am
    26    22    23    2
    27    22    24    1
    28    24    25    1
    29    25    26    1
    30    26    27   ar
    31    27    28   ar
    32    28    29    1
    33    28    30   ar
    34    30    31    1
    35    30    32   ar
    36    32    33   ar
    37     5     6   ar
    38     6     7   ar
    39    12    13   ar
    40    13     8   ar
    41     7     2   ar
    42    40    35    1
    43    33    21    1
    44    33    26   ar
@<TRIPOS>MOLECULE
*****
 40 44 0 0 0
SMALL
GASTEIGER

@<TRIPOS>ATOM
      1 C           0.0416    3.3161   20.0609 C.3     1  UNL1        0.1139
      2 C           2.5625   -0.2028   21.2904 C.ar    1  UNL1        0.0001
      3 C           1.3107   -0.4192   20.4927 C.ar    1  UNL1       -0.0003
      4 C           0.4704    0.7538   20.0829 C.ar    1  UNL1       -0.0026
      5 C           0.8818    2.1432   20.4707 C.ar    1  UNL1       -0.0029
      6 C           2.1336    2.3595   21.2683 C.ar    1  UNL1       -0.0026
      7 C           2.9740    1.1865   21.6782 C.ar    1  UNL1       -0.0003
      8 C           4.6727   -3.5577   21.0865 C.ar    1  UNL1        0.1387
      9 C           5.0834   -3.7218   22.5199 C.ar    1  UNL1        0.0369
     10 C           4.6537   -2.7129   23.5434 C.ar    1  UNL1        0.0031
     11 C           3.8134   -1.5399   23.1335 C.ar    1  UNL1        0.0002
     12 C           3.4028   -1.3758   21.7002 C.ar    1  UNL1        0.0030
     13 C           3.8325   -2.3847   20.6767 C.ar    1  UNL1        0.0369
     14 C           4.2074   -4.8852   18.9022 C.3     1  UNL1        0.2525
     15 O           5.1024   -4.5665   20.0630 O.3     1  UNL1       -0.4714
     16 N           0.1008    4.5923   20.8469 N.am    1  UNL1       -0.2729
     17 C           0.9773    5.7182   20.3843 C.3     1  UNL1        0.1152
     18 C          -0.7166    4.7425   22.0957 C.2     1  UNL1        0.2465
     19 O          -0.6574    6.0187   22.8818 O.2     1  UNL1       -0.2730
     20 C          -1.5931    3.6167   22.5584 C.3     1  UNL1        0.1835
     21 N          -2.0458    3.5570   23.9872 N.am    1  UNL1       -0.2439
     22 C          -3.3157    4.2397   24.4008 C.2     1  UNL1        0.2744
     23 O          -4.1331    4.9822   23.3855 O.2     1  UNL1       -0.2705
     24 C          -3.7684    4.1800   25.8296 C.3     1  UNL1        0.2900
     25 O          -2.9511    3.4376   26.8448 O.3     1  UNL1       -0.4643
     26 C          -1.6811    2.7548   26.4313 C.ar    1  UNL1        0.1537
     27 C          -0.8638    2.0123   27.4465 C.ar    1  UNL1        0.0504
     28 C           0.4061    1.3295   27.0330 C.ar    1  UNL1        0.0713
     29 CL          1.2234    0.5870   28.0482 Cl      1  UNL1       -0.0813
     30 C           0.8588    1.3892   25.6041 C.ar    1  UNL1        0.0696
     31 CL          2.1287    0.7064   25.1906 Cl      1  UNL1       -0.0813
     32 C           0.0415    2.1317   24.5889 C.ar    1  UNL1        0.0302
     33 C          -1.2285    2.8145   25.0025 C.ar    1  UNL1        0.0894
     34 C          -0.8580    3.2130   18.8649 C.3     1  UNL1        0.0968
     35 N          -2.0957    4.0563   18.7825 N.3     1  UNL1       -0.2667
     36 C          -2.0829    5.3320   17.9934 C.3     1  UNL1        0.1047
     37 C          -3.3206    6.1754   17.9110 C.3     1  UNL1        0.1595
     38 O          -4.5712    5.7430   18.6176 O.3     1  UNL1       -0.3508
     39 C          -4.5840    4.4674   19.4066 C.3     1  UNL1        0.1595
     40 C          -3.3462    3.6240   19.4890 C.3     1  UNL1        0.1047
@<TRIPOS>BOND
     1    14    15    1
     2    15     8    1
     3     8     9   ar
     4     9    10   ar
     5    10    11   ar
     6    11    12   ar
     7    12     2    1
     8     2     3   ar
     9     3     4   ar
    10     4     5   ar
    11     5     1    1
    12     1    34    1
    13    34    35    1
    14    35    36    1
    15    36    37    1
    16    37    38    1
    17    38    39    1
    18    39    40    1
    19     1    16    1
    20    16    17    1
    21    16    18   am
    22    18    19    2
    23    18    20    1
    24    20    21    1
    25    21    22   am
    26    22    23    2
    27    22    24    1
    28    24    25    1
    29    25    26    1
    30    26    27   ar
    31    27    28   ar
    32    28    29    1
    33    28    30   ar
    34    30    31    1
    35    30    32   ar
    36    32    33   ar
    37     5     6   ar
    38     6     7   ar
    39    12    13   ar
    40    13     8   ar
    41     7     2   ar
    42    40    35    1
    43    33    21    1
    44    33    26   ar
@<TRIPOS>MOLECULE
*****
 40 44 0 0 0
SMALL
GASTEIGER

@<TRIPOS>ATOM
      1 C          -0.2245    3.0410   20.2604 C.3     1  UNL1        0.1139
      2 C           2.4984   -0.4435   19.4271 C.ar    1  UNL1        0.0001
      3 C           1.7753   -0.3534   20.7383 C.ar    1  UNL1       -0.0003
      4 C           0.8677    0.8081   21.0161 C.ar    1  UNL1       -0.0026
      5 C           0.6831    1.8796   19.9827 C.ar    1  UNL1       -0.0029
      6 C           1.4061    1.7895   18.6716 C.ar    1  UNL1       -0.0026
      7 C           2.3138    0.6280   18.3937 C.ar    1  UNL1       -0.0003
      8 C           5.6803   -2.5304   18.3003 C.ar    1  UNL1        0.1387
      9 C           5.2211   -3.9280   18.5939 C.ar    1  UNL1        0.0369
     10 C           3.8544   -4.1640   19.1652 C.ar    1  UNL1        0.0031
     11 C           2.9468   -3.0024   19.4429 C.ar    1  UNL1        0.0002
     12 C           3.4059   -1.6049   19.1494 C.ar    1  UNL1        0.0030
     13 C           4.7727   -1.3690   18.5781 C.ar    1  UNL1        0.0369
     14 C           8.2256   -2.1387   18.6438 C.3     1  UNL1        0.2525
     15 O           7.0470   -2.2945   17.7290 O.3     1  UNL1       -0.4714
     16 N           0.2423    4.1645   21.1379 N.am    1  UNL1       -0.2729
     17 C           1.0368    5.2936   20.5517 C.3     1  UNL1        0.1152
     18 C          -0.0856    4.1588   22.6017 C.2     1  UNL1        0.2465
     19 O           0.3811    5.2822   23.4792 O.2     1  UNL1       -0.2730
     20 C          -0.8802    3.0297   23.1879 C.3     1  UNL1        0.1835
     21 N          -1.8411    3.2918   24.3096 N.am    1  UNL1       -0.2439
     22 C          -1.3601    3.2681   25.7301 C.2     1  UNL1        0.2744
     23 O           0.0817    2.9823   26.0291 O.2     1  UNL1       -0.2705
     24 C          -2.3210    3.5302   26.8517 C.3     1  UNL1        0.2900
     25 O          -3.7628    3.8160   26.5527 O.3     1  UNL1       -0.4643
     26 C          -4.2438    3.8397   25.1321 C.ar    1  UNL1        0.1537
     27 C          -5.6856    4.1256   24.8331 C.ar    1  UNL1        0.0504
     28 C          -6.1666    4.1493   23.4126 C.ar    1  UNL1        0.0713
     29 CL         -7.6085    4.4351   23.1136 Cl      1  UNL1       -0.0813
     30 C          -5.2057    3.8871   22.2909 C.ar    1  UNL1        0.0696
     31 CL         -5.6867    3.9108   20.8703 Cl      1  UNL1       -0.0813
     32 C          -3.7639    3.6013   22.5899 C.ar    1  UNL1        0.0302
     33 C          -3.2829    3.5776   24.0106 C.ar    1  UNL1        0.0894
     34 C          -1.5989    3.0791   19.6607 C.3     1  UNL1        0.0968
     35 N          -1.9041    4.0343   18.5451 N.3     1  UNL1       -0.2667
     36 C          -1.2063    3.8930   17.2248 C.3     1  UNL1        0.1047
     37 C          -1.5116    4.8482   16.1092 C.3     1  UNL1        0.1595
     38 O          -2.5147    5.9446   16.3139 O.3     1  UNL1       -0.3508
     39 C          -3.2124    6.0858   17.6342 C.3     1  UNL1        0.1595
     40 C          -2.9071    5.1306   18.7498 C.3     1  UNL1        0.1047
@<TRIPOS>BOND
     1    14    15    1
     2    15     8    1
     3     8     9   ar
     4     9    10   ar
     5    10    11   ar
     6    11    12   ar
     7    12     2    1
     8     2     3   ar
     9     3     4   ar
    10     4     5   ar
    11     5     1    1
    12     1    34    1
    13    34    35    1
    14    35    36    1
    15    36    37    1
    16    37    38    1
    17    38    39    1
    18    39    40    1
    19     1    16    1
    20    16    17    1
    21    16    18   am
    22    18    19    2
    23    18    20    1
    24    20    21    1
    25    21    22   am
    26    22    23    2
    27    22    24    1
    28    24    25    1
    29    25    26    1
    30    26    27   ar
    31    27    28   ar
    32    28    29    1
    33    28    30   ar
    34    30    31    1
    35    30    32   ar
    36    32    33   ar
    37     5     6   ar
    38     6     7   ar
    39    12    13   ar
    40    13     8   ar
    41     7     2   ar
    42    40    35    1
    43    33    21    1
    44    33    26   ar
