@<TRIPOS>MOLECULE
*****
 30 35 0 0 0
SMALL
GASTEIGER

@<TRIPOS>ATOM
      1 C           8.0977   -7.6977   26.0174 C.3     1  UNL1        0.0493
      2 C           6.7075   -8.2335   26.1919 C.3     1  UNL1        0.0238
      3 C           6.4819   -9.4930   26.9747 C.3     1  UNL1        0.0730
      4 N           7.6465  -10.2167   27.5831 N.3     1  UNL1       -0.2623
      5 C           9.0367   -9.6809   27.4086 C.3     1  UNL1        0.0730
      6 C           9.2622   -8.4214   26.6258 C.3     1  UNL1        0.0238
      7 C           8.1971   -4.7438   23.5016 C.ar    1  UNL1        0.1224
      8 C           9.1437   -4.2565   24.5583 C.ar    1  UNL1        0.0587
      9 S           9.2216   -5.3038   25.6293 S.2     1  UNL1       -0.0701
     10 C           8.3233   -6.4383   25.2346 C.ar    1  UNL1        0.0880
     11 N           7.6900   -6.0921   23.9195 N.ar    1  UNL1       -0.2396
     12 C           7.2156   -1.1917   18.2079 C.ar    1  UNL1        0.0002
     13 C           5.9844   -2.0389   18.0802 C.ar    1  UNL1        0.0031
     14 C           5.6926   -3.0968   19.1028 C.ar    1  UNL1        0.0375
     15 C           6.6320   -3.3076   20.2529 C.ar    1  UNL1        0.1454
     16 O           6.6072   -4.2661   21.4065 O.2     1  UNL1       -0.4520
     17 C           7.8231   -4.0112   22.2471 C.ar    1  UNL1        0.1633
     18 C           8.5995   -2.8953   21.6131 C.ar    1  UNL1        0.0421
     19 C           7.8633   -2.4605   20.3806 C.ar    1  UNL1        0.0376
     20 C           8.1551   -1.4025   19.3580 C.ar    1  UNL1        0.0031
     21 C           7.4209  -11.4762   28.3659 C.3     1  UNL1        0.1978
     22 C           6.0671  -12.1221   28.3736 C.2     1  UNL1        0.3718
     23 N           5.6162  -13.2354   27.4751 N.2     1  UNL1        0.0124
     24 C           4.1970  -13.5694   27.8274 C.2     1  UNL1        0.4184
     25 N           3.2377  -14.5822   27.2760 N.2     1  UNL1       -0.0277
     26 C           1.8521  -14.6882   27.8409 C.2     1  UNL1        0.2320
     27 C           1.4260  -13.7814   28.9571 C.2     1  UNL1        0.0333
     28 C           2.3852  -12.7687   29.5085 C.3     1  UNL1        0.1120
     29 C           3.7707  -12.6627   28.9437 C.2     1  UNL1        0.2626
     30 N           4.9265  -11.7682   29.2813 N.2     1  UNL1       -0.0332
@<TRIPOS>BOND
     1    12    13   ar
     2    13    14   ar
     3    14    15   ar
     4    15    16   ar
     5    16    17   ar
     6    17     7    1
     7     7     8   ar
     8     8     9   ar
     9     9    10   ar
    10    10     1    1
    11     1     2    1
    12     2     3    1
    13     3     4    1
    14     4    21    1
    15    21    22    1
    16    22    23    2
    17    23    24    1
    18    24    25    2
    19    25    26    1
    20    26    27    2
    21    27    28    1
    22    28    29    1
    23    29    30    2
    24     4     5    1
    25     5     6    1
    26    10    11   ar
    27    17    18   ar
    28    18    19   ar
    29    19    20   ar
    30    20    12   ar
    31    19    15   ar
    32    11     7   ar
    33     6     1    1
    34    30    22    1
    35    29    24    1
@<TRIPOS>MOLECULE
*****
 30 35 0 0 0
SMALL
GASTEIGER

@<TRIPOS>ATOM
      1 C           1.5403    0.5512   19.3628 C.3     1  UNL1        0.0493
      2 C           1.6369   -0.6155   20.3006 C.3     1  UNL1        0.0238
      3 C           2.6740   -1.6755   20.0748 C.3     1  UNL1        0.0730
      4 N           3.6144   -1.5689   18.9110 N.3     1  UNL1       -0.2623
      5 C           3.5177   -0.4021   17.9731 C.3     1  UNL1        0.0730
      6 C           2.4807    0.6578   18.1990 C.3     1  UNL1        0.0238
      7 C          -1.3900    2.8331   20.4900 C.ar    1  UNL1        0.1224
      8 C          -0.7949    3.6515   19.3827 C.ar    1  UNL1        0.0587
      9 S           0.3754    2.8962   18.8257 S.2     1  UNL1       -0.0701
     10 C           0.5033    1.6111   19.5887 C.ar    1  UNL1        0.0880
     11 N          -0.5878    1.5722   20.6173 N.ar    1  UNL1       -0.2396
     12 C          -6.9119    4.3637   23.4514 C.ar    1  UNL1        0.0002
     13 C          -6.0227    4.5188   24.6494 C.ar    1  UNL1        0.0031
     14 C          -4.5486    4.2703   24.5265 C.ar    1  UNL1        0.0375
     15 C          -3.9636    3.8666   23.2055 C.ar    1  UNL1        0.1454
     16 O          -2.5583    3.5565   22.7829 O.2     1  UNL1       -0.4520
     17 C          -2.5789    3.2096   21.3236 C.ar    1  UNL1        0.1633
     18 C          -3.9970    3.3055   20.8444 C.ar    1  UNL1        0.0421
     19 C          -4.8529    3.7115   22.0076 C.ar    1  UNL1        0.0376
     20 C          -6.3270    3.9601   22.1305 C.ar    1  UNL1        0.0031
     21 C           4.6514   -2.6288   18.6851 C.3     1  UNL1        0.1978
     22 C           5.6711   -2.9187   19.7463 C.2     1  UNL1        0.3718
     23 N           5.8907   -4.2406   20.4204 N.2     1  UNL1        0.0124
     24 C           7.0056   -4.0764   21.4105 C.2     1  UNL1        0.4184
     25 N           7.6540   -5.0390   22.3606 N.2     1  UNL1       -0.0277
     26 C           8.7717   -4.5784   23.2486 C.2     1  UNL1        0.2320
     27 C           9.2411   -3.1551   23.1863 C.2     1  UNL1        0.0333
     28 C           8.5926   -2.1925   22.2361 C.3     1  UNL1        0.1120
     29 C           7.4749   -2.6531   21.3482 C.2     1  UNL1        0.2626
     30 N           6.6502   -1.9376   20.3197 N.2     1  UNL1       -0.0332
@<TRIPOS>BOND
     1    12    13   ar
     2    13    14   ar
     3    14    15   ar
     4    15    16   ar
     5    16    17   ar
     6    17     7    1
     7     7     8   ar
     8     8     9   ar
     9     9    10   ar
    10    10     1    1
    11     1     2    1
    12     2     3    1
    13     3     4    1
    14     4    21    1
    15    21    22    1
    16    22    23    2
    17    23    24    1
    18    24    25    2
    19    25    26    1
    20    26    27    2
    21    27    28    1
    22    28    29    1
    23    29    30    2
    24     4     5    1
    25     5     6    1
    26    10    11   ar
    27    17    18   ar
    28    18    19   ar
    29    19    20   ar
    30    20    12   ar
    31    19    15   ar
    32    11     7   ar
    33     6     1    1
    34    30    22    1
    35    29    24    1
@<TRIPOS>MOLECULE
*****
 30 35 0 0 0
SMALL
GASTEIGER

@<TRIPOS>ATOM
      1 C         -15.3543    0.5226   19.1471 C.3     1  UNL1        0.0493
      2 C         -16.3823    0.0229   20.1185 C.3     1  UNL1        0.0238
      3 C         -17.2292    0.9977   20.8819 C.3     1  UNL1        0.0730
      4 N         -17.0482    2.4721   20.6738 N.3     1  UNL1       -0.2623
      5 C         -16.0201    2.9718   19.7024 C.3     1  UNL1        0.0730
      6 C         -15.1733    1.9970   18.9391 C.3     1  UNL1        0.0238
      7 C         -13.1236   -2.3671   17.8287 C.ar    1  UNL1        0.1224
      8 C         -13.2849   -1.5371   16.5897 C.ar    1  UNL1        0.0587
      9 S         -14.1402   -0.3535   16.9328 S.2     1  UNL1       -0.0701
     10 C         -14.5074   -0.4521   18.3838 C.ar    1  UNL1        0.0880
     11 N         -13.8791   -1.6966   18.9375 N.ar    1  UNL1       -0.2396
     12 C          -9.3601   -7.5089   18.8303 C.ar    1  UNL1        0.0002
     13 C         -10.2245   -8.1287   17.7727 C.ar    1  UNL1        0.0031
     14 C         -11.3322   -7.3332   17.1481 C.ar    1  UNL1        0.0375
     15 C         -11.5755   -5.9179   17.5810 C.ar    1  UNL1        0.1454
     16 O         -12.5844   -4.8954   17.1489 O.2     1  UNL1       -0.4520
     17 C         -12.3435   -3.6436   17.9394 C.ar    1  UNL1        0.1633
     18 C         -11.1858   -3.8923   18.8601 C.ar    1  UNL1        0.0421
     19 C         -10.7111   -5.2980   18.6385 C.ar    1  UNL1        0.0376
     20 C          -9.6034   -6.0935   19.2632 C.ar    1  UNL1        0.0031
     21 C         -17.8950    3.4468   21.4371 C.3     1  UNL1        0.1978
     22 C         -17.4304    3.9637   22.7664 C.2     1  UNL1        0.3718
     23 N         -18.2860    4.6356   23.7991 N.2     1  UNL1        0.0124
     24 C         -17.4129    4.9865   24.9673 C.2     1  UNL1        0.4184
     25 N         -17.7080    5.6616   26.2738 N.2     1  UNL1       -0.0277
     26 C         -16.6080    5.8817   27.2697 C.2     1  UNL1        0.2320
     27 C         -15.2130    5.4267   26.9589 C.2     1  UNL1        0.0333
     28 C         -14.9179    4.7516   25.6523 C.3     1  UNL1        0.1120
     29 C         -16.0178    4.5315   24.6566 C.2     1  UNL1        0.2626
     30 N         -16.0286    3.8993   23.2963 N.2     1  UNL1       -0.0332
@<TRIPOS>BOND
     1    12    13   ar
     2    13    14   ar
     3    14    15   ar
     4    15    16   ar
     5    16    17   ar
     6    17     7    1
     7     7     8   ar
     8     8     9   ar
     9     9    10   ar
    10    10     1    1
    11     1     2    1
    12     2     3    1
    13     3     4    1
    14     4    21    1
    15    21    22    1
    16    22    23    2
    17    23    24    1
    18    24    25    2
    19    25    26    1
    20    26    27    2
    21    27    28    1
    22    28    29    1
    23    29    30    2
    24     4     5    1
    25     5     6    1
    26    10    11   ar
    27    17    18   ar
    28    18    19   ar
    29    19    20   ar
    30    20    12   ar
    31    19    15   ar
    32    11     7   ar
    33     6     1    1
    34    30    22    1
    35    29    24    1
@<TRIPOS>MOLECULE
*****
 30 35 0 0 0
SMALL
GASTEIGER

@<TRIPOS>ATOM
      1 C           5.7470   -0.4911   31.9482 C.3     1  UNL1        0.0493
      2 C           4.6217    0.4395   32.2912 C.3     1  UNL1        0.0238
      3 C           4.6176    1.1582   33.6079 C.3     1  UNL1        0.0730
      4 N           5.7389    0.9464   34.5814 N.3     1  UNL1       -0.2623
      5 C           6.8643    0.0158   34.2383 C.3     1  UNL1        0.0730
      6 C           6.8683   -0.7029   32.9218 C.3     1  UNL1        0.0238
      7 C           6.1946   -2.8500   28.8986 C.ar    1  UNL1        0.1224
      8 C           5.3200   -1.7815   28.3125 C.ar    1  UNL1        0.0587
      9 S           5.0459   -0.7678   29.3837 S.2     1  UNL1       -0.0701
     10 C           5.7511   -1.2098   30.6316 C.ar    1  UNL1        0.0880
     11 N           6.4611   -2.4967   30.3317 N.ar    1  UNL1       -0.2396
     12 C           8.5463   -8.3468   26.4781 C.ar    1  UNL1        0.0002
     13 C           8.2621   -7.6845   25.1626 C.ar    1  UNL1        0.0031
     14 C           7.6720   -6.3059   25.1290 C.ar    1  UNL1        0.0375
     15 C           7.3660   -5.5896   26.4109 C.ar    1  UNL1        0.1454
     16 O           6.7862   -4.2346   26.6899 O.2     1  UNL1       -0.4520
     17 C           6.7120   -4.0595   28.1778 C.ar    1  UNL1        0.1633
     18 C           7.2460   -5.3063   28.8184 C.ar    1  UNL1        0.0421
     19 C           7.6502   -6.2519   27.7264 C.ar    1  UNL1        0.0376
     20 C           8.2404   -7.6305   27.7600 C.ar    1  UNL1        0.0031
     21 C           5.7349    1.6651   35.8980 C.3     1  UNL1        0.1978
     22 C           4.4882    1.6965   36.7315 C.2     1  UNL1        0.3718
     23 N           3.4822    2.8084   36.7715 N.2     1  UNL1        0.0124
     24 C           2.4008    2.4206   37.7360 C.2     1  UNL1        0.4184
     25 N           1.1523    3.1236   38.1798 N.2     1  UNL1       -0.0277
     26 C           0.2414    2.4750   39.1797 C.2     1  UNL1        0.2320
     27 C           0.5791    1.1234   39.7356 C.2     1  UNL1        0.0333
     28 C           1.8276    0.4204   39.2918 C.3     1  UNL1        0.1120
     29 C           2.7384    1.0690   38.2921 C.2     1  UNL1        0.2626
     30 N           4.0285    0.6215   37.6712 N.2     1  UNL1       -0.0332
@<TRIPOS>BOND
     1    12    13   ar
     2    13    14   ar
     3    14    15   ar
     4    15    16   ar
     5    16    17   ar
     6    17     7    1
     7     7     8   ar
     8     8     9   ar
     9     9    10   ar
    10    10     1    1
    11     1     2    1
    12     2     3    1
    13     3     4    1
    14     4    21    1
    15    21    22    1
    16    22    23    2
    17    23    24    1
    18    24    25    2
    19    25    26    1
    20    26    27    2
    21    27    28    1
    22    28    29    1
    23    29    30    2
    24     4     5    1
    25     5     6    1
    26    10    11   ar
    27    17    18   ar
    28    18    19   ar
    29    19    20   ar
    30    20    12   ar
    31    19    15   ar
    32    11     7   ar
    33     6     1    1
    34    30    22    1
    35    29    24    1
@<TRIPOS>MOLECULE
*****
 30 35 0 0 0
SMALL
GASTEIGER

@<TRIPOS>ATOM
      1 C           7.5625   -4.7125   27.0033 C.3     1  UNL1        0.0493
      2 C           7.4665   -6.0190   26.2728 C.3     1  UNL1        0.0238
      3 C           7.7473   -6.0775   24.8004 C.3     1  UNL1        0.0730
      4 N           8.1241   -4.8294   24.0586 N.3     1  UNL1       -0.2623
      5 C           8.2201   -3.5228   24.7892 C.3     1  UNL1        0.0730
      6 C           7.9393   -3.4643   26.2615 C.3     1  UNL1        0.0238
      7 C           6.7763   -3.8189   30.6977 C.ar    1  UNL1        0.1224
      8 C           6.9227   -5.3092   30.7849 C.ar    1  UNL1        0.0587
      9 S           7.2350   -5.8253   29.4114 S.2     1  UNL1       -0.0701
     10 C           7.2816   -4.6540   28.4756 C.ar    1  UNL1        0.0880
     11 N           6.9982   -3.4139   29.2706 N.ar    1  UNL1       -0.2396
     12 C           6.1423    0.3828   35.5503 C.ar    1  UNL1        0.0002
     13 C           4.7346   -0.1342   35.5822 C.ar    1  UNL1        0.0031
     14 C           4.3020   -1.1923   34.6109 C.ar    1  UNL1        0.0375
     15 C           5.2772   -1.7333   33.6078 C.ar    1  UNL1        0.1454
     16 O           5.1401   -2.7712   32.5335 O.2     1  UNL1       -0.4520
     17 C           6.4631   -2.8956   31.8377 C.ar    1  UNL1        0.1633
     18 C           7.4178   -1.9347   32.4819 C.ar    1  UNL1        0.0421
     19 C           6.6848   -1.2163   33.5759 C.ar    1  UNL1        0.0376
     20 C           7.1174   -0.1583   34.5472 C.ar    1  UNL1        0.0031
     21 C           8.4049   -4.8878   22.5863 C.3     1  UNL1        0.1978
     22 C           7.4554   -4.2503   21.6158 C.2     1  UNL1        0.3718
     23 N           7.8355   -3.5044   20.3712 N.2     1  UNL1        0.0124
     24 C           6.5740   -3.0398   19.7057 C.2     1  UNL1        0.4184
     25 N           6.3315   -2.2584   18.4486 N.2     1  UNL1       -0.0277
     26 C           4.9292   -1.9356   18.0248 C.2     1  UNL1        0.2320
     27 C           3.7696   -2.3943   18.8582 C.2     1  UNL1        0.0333
     28 C           4.0121   -3.1758   20.1154 C.3     1  UNL1        0.1120
     29 C           5.4142   -3.4986   20.5391 C.2     1  UNL1        0.2626
     30 N           5.9590   -4.2466   21.7196 N.2     1  UNL1       -0.0332
@<TRIPOS>BOND
     1    12    13   ar
     2    13    14   ar
     3    14    15   ar
     4    15    16   ar
     5    16    17   ar
     6    17     7    1
     7     7     8   ar
     8     8     9   ar
     9     9    10   ar
    10    10     1    1
    11     1     2    1
    12     2     3    1
    13     3     4    1
    14     4    21    1
    15    21    22    1
    16    22    23    2
    17    23    24    1
    18    24    25    2
    19    25    26    1
    20    26    27    2
    21    27    28    1
    22    28    29    1
    23    29    30    2
    24     4     5    1
    25     5     6    1
    26    10    11   ar
    27    17    18   ar
    28    18    19   ar
    29    19    20   ar
    30    20    12   ar
    31    19    15   ar
    32    11     7   ar
    33     6     1    1
    34    30    22    1
    35    29    24    1
@<TRIPOS>MOLECULE
*****
 30 35 0 0 0
SMALL
GASTEIGER

@<TRIPOS>ATOM
      1 C           6.6612   -4.1619   26.4613 C.3     1  UNL1        0.0493
      2 C           6.4595   -2.9953   27.3823 C.3     1  UNL1        0.0238
      3 C           6.5841   -3.1804   28.8657 C.3     1  UNL1        0.0730
      4 N           6.9103   -4.5322   29.4280 N.3     1  UNL1       -0.2623
      5 C           7.1121   -5.6989   28.5070 C.3     1  UNL1        0.0730
      6 C           6.9875   -5.5137   27.0237 C.3     1  UNL1        0.0238
      7 C           5.7908   -3.1982   22.8037 C.ar    1  UNL1        0.1224
      8 C           6.8990   -4.1857   22.5873 C.ar    1  UNL1        0.0587
      9 S           7.3599   -4.6669   23.9312 S.2     1  UNL1       -0.0701
     10 C           6.5366   -3.9768   24.9780 C.ar    1  UNL1        0.0880
     11 N           5.5668   -3.0691   24.2811 N.ar    1  UNL1       -0.2396
     12 C           1.9961    0.0041   18.6866 C.ar    1  UNL1        0.0002
     13 C           3.1608   -0.1631   17.7563 C.ar    1  UNL1        0.0031
     14 C           4.3946   -0.8791   18.2203 C.ar    1  UNL1        0.0375
     15 C           4.4636   -1.4279   19.6146 C.ar    1  UNL1        0.1454
     16 O           5.5388   -2.1740   20.3475 O.2     1  UNL1       -0.4520
     17 C           5.0386   -2.4679   21.7308 C.ar    1  UNL1        0.1633
     18 C           3.6543   -1.9035   21.8528 C.ar    1  UNL1        0.0421
     19 C           3.2989   -1.2607   20.5449 C.ar    1  UNL1        0.0376
     20 C           2.0652   -0.5447   20.0809 C.ar    1  UNL1        0.0031
     21 C           7.0349   -4.7173   30.9113 C.3     1  UNL1        0.1978
     22 C           6.7409   -3.5743   31.8370 C.2     1  UNL1        0.3718
     23 N           7.7252   -2.5442   32.3064 N.2     1  UNL1        0.0124
     24 C           7.0036   -1.5939   33.2154 C.2     1  UNL1        0.4184
     25 N           7.4640   -0.3827   33.9709 N.2     1  UNL1       -0.0277
     26 C           6.4943    0.3858   34.8189 C.2     1  UNL1        0.2320
     27 C           5.0642   -0.0569   34.9113 C.2     1  UNL1        0.0333
     28 C           4.6037   -1.2682   34.1558 C.3     1  UNL1        0.1120
     29 C           5.5734   -2.0367   33.3079 C.2     1  UNL1        0.2626
     30 N           5.4111   -3.2606   32.4560 N.2     1  UNL1       -0.0332
@<TRIPOS>BOND
     1    12    13   ar
     2    13    14   ar
     3    14    15   ar
     4    15    16   ar
     5    16    17   ar
     6    17     7    1
     7     7     8   ar
     8     8     9   ar
     9     9    10   ar
    10    10     1    1
    11     1     2    1
    12     2     3    1
    13     3     4    1
    14     4    21    1
    15    21    22    1
    16    22    23    2
    17    23    24    1
    18    24    25    2
    19    25    26    1
    20    26    27    2
    21    27    28    1
    22    28    29    1
    23    29    30    2
    24     4     5    1
    25     5     6    1
    26    10    11   ar
    27    17    18   ar
    28    18    19   ar
    29    19    20   ar
    30    20    12   ar
    31    19    15   ar
    32    11     7   ar
    33     6     1    1
    34    30    22    1
    35    29    24    1
@<TRIPOS>MOLECULE
*****
 30 35 0 0 0
SMALL
GASTEIGER

@<TRIPOS>ATOM
      1 C           6.7933   -3.8802   28.5362 C.3     1  UNL1        0.0493
      2 C           6.4303   -5.2479   28.0384 C.3     1  UNL1        0.0238
      3 C           6.7002   -5.6227   26.6112 C.3     1  UNL1        0.0730
      4 N           7.3331   -4.6299   25.6819 N.3     1  UNL1       -0.2623
      5 C           7.6961   -3.2622   26.1797 C.3     1  UNL1        0.0730
      6 C           7.4262   -2.8874   27.6068 C.3     1  UNL1        0.0238
      7 C           5.7542   -2.3086   31.9296 C.ar    1  UNL1        0.1224
      8 C           6.4619   -3.5487   32.3892 C.ar    1  UNL1        0.0587
      9 S           6.9373   -4.2884   31.1738 S.2     1  UNL1       -0.0701
     10 C           6.5234   -3.5054   29.9633 C.ar    1  UNL1        0.0880
     11 N           5.7922   -2.2818   30.4304 N.ar    1  UNL1       -0.2396
     12 C           3.4363    1.8396   36.2912 C.ar    1  UNL1        0.0002
     13 C           2.6536    2.3600   35.1223 C.ar    1  UNL1        0.0031
     14 C           2.8115    1.7264   33.7720 C.ar    1  UNL1        0.0375
     15 C           3.7523    0.5722   33.5905 C.ar    1  UNL1        0.1454
     16 O           4.1137   -0.2486   32.3882 O.2     1  UNL1       -0.4520
     17 C           5.1199   -1.2764   32.8140 C.ar    1  UNL1        0.1633
     18 C           5.3803   -1.0908   34.2795 C.ar    1  UNL1        0.0421
     19 C           4.5350    0.0518   34.7594 C.ar    1  UNL1        0.0376
     20 C           4.3770    0.6854   36.1098 C.ar    1  UNL1        0.0031
     21 C           7.6030   -5.0047   24.2548 C.3     1  UNL1        0.1978
     22 C           6.7924   -4.3908   23.1520 C.2     1  UNL1        0.3718
     23 N           7.0869   -4.4843   21.6842 N.2     1  UNL1        0.0124
     24 C           6.0215   -3.7269   20.9485 C.2     1  UNL1        0.4184
     25 N           5.7960   -3.4761   19.4869 N.2     1  UNL1       -0.0277
     26 C           4.6175   -2.6636   19.0384 C.2     1  UNL1        0.2320
     27 C           3.6645   -2.1022   20.0516 C.2     1  UNL1        0.0333
     28 C           3.8900   -2.3530   21.5131 C.3     1  UNL1        0.1120
     29 C           5.0685   -3.1654   21.9616 C.2     1  UNL1        0.2626
     30 N           5.5449   -3.5757   23.3234 N.2     1  UNL1       -0.0332
@<TRIPOS>BOND
     1    12    13   ar
     2    13    14   ar
     3    14    15   ar
     4    15    16   ar
     5    16    17   ar
     6    17     7    1
     7     7     8   ar
     8     8     9   ar
     9     9    10   ar
    10    10     1    1
    11     1     2    1
    12     2     3    1
    13     3     4    1
    14     4    21    1
    15    21    22    1
    16    22    23    2
    17    23    24    1
    18    24    25    2
    19    25    26    1
    20    26    27    2
    21    27    28    1
    22    28    29    1
    23    29    30    2
    24     4     5    1
    25     5     6    1
    26    10    11   ar
    27    17    18   ar
    28    18    19   ar
    29    19    20   ar
    30    20    12   ar
    31    19    15   ar
    32    11     7   ar
    33     6     1    1
    34    30    22    1
    35    29    24    1
@<TRIPOS>MOLECULE
*****
 30 35 0 0 0
SMALL
GASTEIGER

@<TRIPOS>ATOM
      1 C           2.1340   -0.0605   21.8390 C.3     1  UNL1        0.0493
      2 C           1.2151    0.2629   20.6984 C.3     1  UNL1        0.0238
      3 C           0.2024    1.3606   20.8392 C.3     1  UNL1        0.0730
      4 N           0.1087    2.1348   22.1206 N.3     1  UNL1       -0.2623
      5 C           1.0278    1.8113   23.2612 C.3     1  UNL1        0.0730
      6 C           2.0404    0.7137   23.1203 C.3     1  UNL1        0.0238
      7 C           4.8436   -2.8136   22.2178 C.ar    1  UNL1        0.1224
      8 C           4.5661   -2.8808   20.7452 C.ar    1  UNL1        0.0587
      9 S           3.5173   -1.8576   20.4241 S.2     1  UNL1       -0.0701
     10 C           3.1466   -1.1581   21.6982 C.ar    1  UNL1        0.0880
     11 N           3.9664   -1.7490   22.8068 N.ar    1  UNL1       -0.2396
     12 C           8.8400   -6.1013   26.0680 C.ar    1  UNL1        0.0002
     13 C           9.2382   -6.7741   24.7879 C.ar    1  UNL1        0.0031
     14 C           8.5866   -6.3757   23.4969 C.ar    1  UNL1        0.0375
     15 C           7.5368   -5.3044   23.4860 C.ar    1  UNL1        0.1454
     16 O           6.7255   -4.7053   22.3756 O.2     1  UNL1       -0.4520
     17 C           5.8260   -3.6622   22.9694 C.ar    1  UNL1        0.1633
     18 C           6.0812   -3.6166   24.4469 C.ar    1  UNL1        0.0421
     19 C           7.1386   -4.6316   24.7661 C.ar    1  UNL1        0.0376
     20 C           7.7902   -5.0300   26.0571 C.ar    1  UNL1        0.0031
     21 C          -0.9039    3.2324   22.2614 C.3     1  UNL1        0.1978
     22 C          -1.9504    3.4274   21.2047 C.2     1  UNL1        0.3718
     23 N          -1.7265    4.0020   19.8373 N.2     1  UNL1        0.0124
     24 C          -3.0424    4.0116   19.1174 C.2     1  UNL1        0.4184
     25 N          -3.4302    4.4648   17.7411 N.2     1  UNL1       -0.0277
     26 C          -4.8552    4.3493   17.2871 C.2     1  UNL1        0.2320
     27 C          -5.8923    3.7806   18.2095 C.2     1  UNL1        0.0333
     28 C          -5.5045    3.3274   19.5858 C.3     1  UNL1        0.1120
     29 C          -4.0796    3.4430   20.0397 C.2     1  UNL1        0.2626
     30 N          -3.4047    3.0819   21.3297 N.2     1  UNL1       -0.0332
@<TRIPOS>BOND
     1    12    13   ar
     2    13    14   ar
     3    14    15   ar
     4    15    16   ar
     5    16    17   ar
     6    17     7    1
     7     7     8   ar
     8     8     9   ar
     9     9    10   ar
    10    10     1    1
    11     1     2    1
    12     2     3    1
    13     3     4    1
    14     4    21    1
    15    21    22    1
    16    22    23    2
    17    23    24    1
    18    24    25    2
    19    25    26    1
    20    26    27    2
    21    27    28    1
    22    28    29    1
    23    29    30    2
    24     4     5    1
    25     5     6    1
    26    10    11   ar
    27    17    18   ar
    28    18    19   ar
    29    19    20   ar
    30    20    12   ar
    31    19    15   ar
    32    11     7   ar
    33     6     1    1
    34    30    22    1
    35    29    24    1
@<TRIPOS>MOLECULE
*****
 30 35 0 0 0
SMALL
GASTEIGER

@<TRIPOS>ATOM
      1 C           1.2613    1.1289   25.8002 C.3     1  UNL1        0.0493
      2 C           0.1775    1.7027   24.9363 C.3     1  UNL1        0.0238
      3 C           0.3388    1.7229   23.4451 C.3     1  UNL1        0.0730
      4 N           1.5838    1.1693   22.8178 N.3     1  UNL1       -0.2623
      5 C           2.6676    0.5955   23.6817 C.3     1  UNL1        0.0730
      6 C           2.5063    0.5754   25.1729 C.3     1  UNL1        0.0238
      7 C           1.5700    0.8748   29.6609 C.ar    1  UNL1        0.1224
      8 C           0.1337    1.2806   29.5111 C.ar    1  UNL1        0.0587
      9 S          -0.1567    1.4252   28.0466 S.2     1  UNL1       -0.0701
     10 C           1.1000    1.1087   27.2913 C.ar    1  UNL1        0.0880
     11 N           2.1673    0.7686   28.2891 N.ar    1  UNL1       -0.2396
     12 C           4.4644    0.4856   35.4120 C.ar    1  UNL1        0.0002
     13 C           4.7727   -0.9131   34.9666 C.ar    1  UNL1        0.0031
     14 C           4.3086   -1.3918   33.6229 C.ar    1  UNL1        0.0375
     15 C           3.5364   -0.4717   32.7246 C.ar    1  UNL1        0.1454
     16 O           2.9528   -0.6615   31.3559 O.2     1  UNL1       -0.4520
     17 C           2.2838    0.6199   30.9554 C.ar    1  UNL1        0.1633
     18 C           2.4540    1.6018   32.0765 C.ar    1  UNL1        0.0421
     19 C           3.2281    0.9270   33.1700 C.ar    1  UNL1        0.0376
     20 C           3.6921    1.4057   34.5137 C.ar    1  UNL1        0.0031
     21 C           1.7451    1.1895   21.3266 C.3     1  UNL1        0.1978
     22 C           2.5701    0.1371   20.6472 C.2     1  UNL1        0.3718
     23 N           2.2209   -1.3169   20.5289 N.2     1  UNL1        0.0124
     24 C           3.3242   -1.9987   19.7753 C.2     1  UNL1        0.4184
     25 N           3.5232   -3.4265   19.3606 N.2     1  UNL1       -0.0277
     26 C           4.7533   -3.8216   18.5985 C.2     1  UNL1        0.2320
     27 C           5.7843   -2.7890   18.2512 C.2     1  UNL1        0.0333
     28 C           5.5853   -1.3613   18.6659 C.3     1  UNL1        0.1120
     29 C           4.3553   -0.9662   19.4280 C.2     1  UNL1        0.2626
     30 N           3.8893    0.3538   19.9668 N.2     1  UNL1       -0.0332
@<TRIPOS>BOND
     1    12    13   ar
     2    13    14   ar
     3    14    15   ar
     4    15    16   ar
     5    16    17   ar
     6    17     7    1
     7     7     8   ar
     8     8     9   ar
     9     9    10   ar
    10    10     1    1
    11     1     2    1
    12     2     3    1
    13     3     4    1
    14     4    21    1
    15    21    22    1
    16    22    23    2
    17    23    24    1
    18    24    25    2
    19    25    26    1
    20    26    27    2
    21    27    28    1
    22    28    29    1
    23    29    30    2
    24     4     5    1
    25     5     6    1
    26    10    11   ar
    27    17    18   ar
    28    18    19   ar
    29    19    20   ar
    30    20    12   ar
    31    19    15   ar
    32    11     7   ar
    33     6     1    1
    34    30    22    1
    35    29    24    1
