@<TRIPOS>MOLECULE
*****
 27 30 0 0 0
SMALL
GASTEIGER

@<TRIPOS>ATOM
      1 C          -8.9624  -19.3279   21.3182 C.3     1  UNL1        0.1355
      2 C          -8.8881  -18.6133   22.6350 C.3     1  UNL1        0.0700
      3 C         -10.1831  -18.8378   23.3579 C.3     1  UNL1        0.1834
      4 C         -11.0577  -19.6911   22.4879 C.3     1  UNL1        0.1130
      5 N         -10.3033  -19.9939   21.2273 N.3     1  UNL1       -0.2882
      6 H         -10.8153  -19.6329   20.4224 H       1  UNL1        0.1237
      7 O          -8.2101  -19.8063   18.8779 O.2     1  UNL1       -0.2734
      8 C          -7.8850  -19.3690   20.2754 C.2     1  UNL1        0.2401
      9 N          -6.4824  -18.9729   20.6301 N.am    1  UNL1       -0.2770
     10 C          -6.2652  -18.5521   22.0535 C.3     1  UNL1        0.0949
     11 C          -4.9944  -18.1044   22.7129 C.3     1  UNL1        0.0388
     12 C          -3.6271  -17.9669   22.1118 C.3     1  UNL1        0.0739
     13 N          -3.1927  -18.2431   20.7029 N.3     1  UNL1       -0.2725
     14 C          -4.0184  -18.7251   19.5471 C.3     1  UNL1        0.0938
     15 C          -5.4825  -19.0499   19.5148 C.3     1  UNL1        0.1107
     16 C          -1.7406  -18.0061   20.4113 C.3     1  UNL1        0.0576
     17 C          -0.5821  -18.8742   20.0182 C.3     1  UNL1        0.0160
     18 C           0.3131  -17.6708   19.9988 C.3     1  UNL1        0.0028
     19 C          -0.8452  -16.8026   20.3918 C.3     1  UNL1        0.0160
     20 O         -10.5406  -18.3029   24.7130 O.3     1  UNL1       -0.4777
     21 C          -9.5983  -17.3803   25.4277 C.ar    1  UNL1        0.1385
     22 C          -9.2326  -17.6428   26.8585 C.ar    1  UNL1        0.0378
     23 C          -8.2904  -16.7202   27.5732 C.ar    1  UNL1        0.0145
     24 C          -7.7137  -15.5351   26.8571 C.ar    1  UNL1        0.0579
     25 CL         -6.7714  -14.6124   27.5718 Cl      1  UNL1       -0.0822
     26 C          -8.0794  -15.2725   25.4262 C.ar    1  UNL1        0.0145
     27 C          -9.0217  -16.1952   24.7116 C.ar    1  UNL1        0.0378
@<TRIPOS>BOND
     1     7     8    2
     2     8     1    1
     3     1     2    1
     4     2     3    1
     5     3    20    1
     6    20    21    1
     7    21    22   ar
     8    22    23   ar
     9    23    24   ar
    10    24    25    1
    11    24    26   ar
    12    26    27   ar
    13     3     4    1
    14     4     5    1
    15     8     9   am
    16     9    10    1
    17    10    11    1
    18    11    12    1
    19    12    13    1
    20    13    16    1
    21    16    17    1
    22    17    18    1
    23    18    19    1
    24    13    14    1
    25    14    15    1
    26     5     1    1
    27    15     9    1
    28    27    21   ar
    29    19    16    1
    30     5     6    1
@<TRIPOS>MOLECULE
*****
 27 30 0 0 0
SMALL
GASTEIGER

@<TRIPOS>ATOM
      1 C         -11.0791   -2.9307   18.3036 C.3     1  UNL1        0.1355
      2 C         -11.8035   -4.1215   17.7493 C.3     1  UNL1        0.0700
      3 C         -11.1050   -5.3567   18.2357 C.3     1  UNL1        0.1834
      4 C          -9.9489   -4.9292   19.0904 C.3     1  UNL1        0.1130
      5 N          -9.9329   -3.4299   19.1324 N.3     1  UNL1       -0.2882
      6 H          -9.0529   -3.0824   18.7513 H       1  UNL1        0.1237
      7 O         -10.4743   -0.5845   17.3657 O.2     1  UNL1       -0.2734
      8 C         -11.4378   -1.4931   18.0700 C.2     1  UNL1        0.2401
      9 N         -12.7602   -0.9641   18.5405 N.am    1  UNL1       -0.2770
     10 C         -13.6486   -1.9551   19.2326 C.3     1  UNL1        0.0949
     11 C         -15.0156   -1.7408   19.8119 C.3     1  UNL1        0.0388
     12 C         -15.8317   -0.4827   19.8422 C.3     1  UNL1        0.0739
     13 N         -15.4826    0.8719   19.3008 N.3     1  UNL1       -0.2725
     14 C         -14.2310    1.3029   18.5952 C.3     1  UNL1        0.0938
     15 C         -13.0195    0.4858   18.2569 C.3     1  UNL1        0.1107
     16 C         -16.5225    1.9362   19.4898 C.3     1  UNL1        0.0576
     17 C         -17.7838    2.3253   18.7772 C.3     1  UNL1        0.0160
     18 C         -17.9933    3.4413   19.7572 C.3     1  UNL1        0.0028
     19 C         -16.7320    3.0523   20.4699 C.3     1  UNL1        0.0160
     20 O         -11.4944   -6.7710   17.9222 O.3     1  UNL1       -0.4777
     21 C         -12.9181   -7.2120   18.0912 C.ar    1  UNL1        0.1385
     22 C         -13.7654   -6.6123   19.1740 C.ar    1  UNL1        0.0378
     23 C         -15.1891   -7.0533   19.3430 C.ar    1  UNL1        0.0145
     24 C         -15.7655   -8.0939   18.4294 C.ar    1  UNL1        0.0579
     25 CL        -17.1892   -8.5349   18.5984 Cl      1  UNL1       -0.0822
     26 C         -14.9181   -8.6936   17.3466 C.ar    1  UNL1        0.0145
     27 C         -13.4944   -8.2526   17.1776 C.ar    1  UNL1        0.0378
@<TRIPOS>BOND
     1     7     8    2
     2     8     1    1
     3     1     2    1
     4     2     3    1
     5     3    20    1
     6    20    21    1
     7    21    22   ar
     8    22    23   ar
     9    23    24   ar
    10    24    25    1
    11    24    26   ar
    12    26    27   ar
    13     3     4    1
    14     4     5    1
    15     8     9   am
    16     9    10    1
    17    10    11    1
    18    11    12    1
    19    12    13    1
    20    13    16    1
    21    16    17    1
    22    17    18    1
    23    18    19    1
    24    13    14    1
    25    14    15    1
    26     5     1    1
    27    15     9    1
    28    27    21   ar
    29    19    16    1
    30     5     6    1
@<TRIPOS>MOLECULE
*****
 27 30 0 0 0
SMALL
GASTEIGER

@<TRIPOS>ATOM
      1 C           7.2801   -3.6849   20.6720 C.3     1  UNL1        0.1355
      2 C           6.0132   -3.7142   19.8694 C.3     1  UNL1        0.0700
      3 C           5.9577   -2.4622   19.0451 C.3     1  UNL1        0.1834
      4 C           7.1902   -1.6592   19.3383 C.3     1  UNL1        0.1130
      5 N           8.0075   -2.4149   20.3438 N.3     1  UNL1       -0.2882
      6 H           8.1228   -1.8540   21.1879 H       1  UNL1        0.1237
      7 O           8.4733   -5.9470   21.1293 O.2     1  UNL1       -0.2734
      8 C           7.7389   -4.7404   21.6340 C.2     1  UNL1        0.2401
      9 N           7.4633   -4.5893   23.1007 N.am    1  UNL1       -0.2770
     10 C           6.7230   -3.3470   23.4992 C.3     1  UNL1        0.0949
     11 C           6.3010   -2.9090   24.8704 C.3     1  UNL1        0.0388
     12 C           6.5150   -3.6051   26.1816 C.3     1  UNL1        0.0739
     13 N           7.2039   -4.9112   26.4457 N.3     1  UNL1       -0.2725
     14 C           7.8490   -5.8436   25.4637 C.3     1  UNL1        0.0938
     15 C           7.9644   -5.7003   23.9750 C.3     1  UNL1        0.1107
     16 C           7.2545   -5.3416   27.8817 C.3     1  UNL1        0.0576
     17 C           7.9596   -6.4274   28.6394 C.3     1  UNL1        0.0160
     18 C           7.3261   -5.9505   29.9125 C.3     1  UNL1        0.0028
     19 C           6.6209   -4.8647   29.1550 C.3     1  UNL1        0.0160
     20 O           4.8620   -2.0804   18.0944 O.3     1  UNL1       -0.4777
     21 C           3.6729   -1.3120   18.5902 C.ar    1  UNL1        0.1385
     22 C           3.1766   -0.1217   17.8241 C.ar    1  UNL1        0.0378
     23 C           1.9876    0.6466   18.3197 C.ar    1  UNL1        0.0145
     24 C           1.2948    0.2247   19.5815 C.ar    1  UNL1        0.0579
     25 CL          0.1057    0.9931   20.0772 Cl      1  UNL1       -0.0822
     26 C           1.7912   -0.9655   20.3476 C.ar    1  UNL1        0.0145
     27 C           2.9802   -1.7339   19.8519 C.ar    1  UNL1        0.0378
@<TRIPOS>BOND
     1     7     8    2
     2     8     1    1
     3     1     2    1
     4     2     3    1
     5     3    20    1
     6    20    21    1
     7    21    22   ar
     8    22    23   ar
     9    23    24   ar
    10    24    25    1
    11    24    26   ar
    12    26    27   ar
    13     3     4    1
    14     4     5    1
    15     8     9   am
    16     9    10    1
    17    10    11    1
    18    11    12    1
    19    12    13    1
    20    13    16    1
    21    16    17    1
    22    17    18    1
    23    18    19    1
    24    13    14    1
    25    14    15    1
    26     5     1    1
    27    15     9    1
    28    27    21   ar
    29    19    16    1
    30     5     6    1
@<TRIPOS>MOLECULE
*****
 27 30 0 0 0
SMALL
GASTEIGER

@<TRIPOS>ATOM
      1 C         -12.7702   -5.9278   17.9964 C.3     1  UNL1        0.1355
      2 C         -13.4263   -6.8831   18.9487 C.3     1  UNL1        0.0700
      3 C         -13.8254   -8.1060   18.1771 C.3     1  UNL1        0.1834
      4 C         -13.4160   -7.9064   16.7480 C.3     1  UNL1        0.1130
      5 N         -12.7639   -6.5602   16.6363 N.3     1  UNL1       -0.2882
      6 H         -13.2841   -5.9769   15.9809 H       1  UNL1        0.1237
      7 O         -10.7916   -4.4421   18.7887 O.2     1  UNL1       -0.2734
      8 C         -12.2176   -4.5772   18.3434 C.2     1  UNL1        0.2401
      9 N         -13.0909   -3.3616   18.2451 N.am    1  UNL1       -0.2770
     10 C         -14.4991   -3.6071   17.7903 C.3     1  UNL1        0.0949
     11 C         -15.6048   -2.6128   17.5926 C.3     1  UNL1        0.0388
     12 C         -15.5754   -1.1278   17.8010 C.3     1  UNL1        0.0739
     13 N         -14.4331   -0.2699   18.2584 N.3     1  UNL1       -0.2725
     14 C         -13.0380   -0.6854   18.6205 C.3     1  UNL1        0.0938
     15 C         -12.4407   -2.0614   18.6145 C.3     1  UNL1        0.1107
     16 C         -14.7243    1.1974   18.3683 C.3     1  UNL1        0.0576
     17 C         -15.5118    2.0546   19.3144 C.3     1  UNL1        0.0160
     18 C         -15.1362    3.2726   18.5237 C.3     1  UNL1        0.0028
     19 C         -14.3487    2.4155   17.5775 C.3     1  UNL1        0.0160
     20 O         -14.5132   -9.3160   18.7365 O.3     1  UNL1       -0.4777
     21 C         -15.9977   -9.3029   18.9508 C.ar    1  UNL1        0.1385
     22 C         -16.8756  -10.2405   18.1760 C.ar    1  UNL1        0.0378
     23 C         -18.3601  -10.2274   18.3903 C.ar    1  UNL1        0.0145
     24 C         -18.9668   -9.2768   19.3793 C.ar    1  UNL1        0.0579
     25 CL        -20.4514   -9.2636   19.5936 Cl      1  UNL1       -0.0822
     26 C         -18.0889   -8.3392   20.1541 C.ar    1  UNL1        0.0145
     27 C         -16.6043   -8.3523   19.9398 C.ar    1  UNL1        0.0378
@<TRIPOS>BOND
     1     7     8    2
     2     8     1    1
     3     1     2    1
     4     2     3    1
     5     3    20    1
     6    20    21    1
     7    21    22   ar
     8    22    23   ar
     9    23    24   ar
    10    24    25    1
    11    24    26   ar
    12    26    27   ar
    13     3     4    1
    14     4     5    1
    15     8     9   am
    16     9    10    1
    17    10    11    1
    18    11    12    1
    19    12    13    1
    20    13    16    1
    21    16    17    1
    22    17    18    1
    23    18    19    1
    24    13    14    1
    25    14    15    1
    26     5     1    1
    27    15     9    1
    28    27    21   ar
    29    19    16    1
    30     5     6    1
@<TRIPOS>MOLECULE
*****
 27 30 0 0 0
SMALL
GASTEIGER

@<TRIPOS>ATOM
      1 C           5.9867   -3.3760   22.1949 C.3     1  UNL1        0.1355
      2 C           4.6666   -3.6175   21.5246 C.3     1  UNL1        0.0700
      3 C           4.4949   -2.5824   20.4527 C.3     1  UNL1        0.1834
      4 C           5.7087   -1.7012   20.4605 C.3     1  UNL1        0.1130
      5 N           6.6307   -2.1918   21.5372 N.3     1  UNL1       -0.2882
      6 H           6.7829   -1.4541   22.2250 H       1  UNL1        0.1237
      7 O           7.3468   -5.4234   23.0366 O.2     1  UNL1       -0.2734
      8 C           6.5616   -4.1781   23.3245 C.2     1  UNL1        0.2401
      9 N           6.3515   -3.7350   24.7420 N.am    1  UNL1       -0.2770
     10 C           5.5528   -2.4777   24.9192 C.3     1  UNL1        0.0949
     11 C           5.1731   -1.7826   26.1931 C.3     1  UNL1        0.0388
     12 C           5.4984   -2.1731   27.6043 C.3     1  UNL1        0.0739
     13 N           6.2837   -3.3551   28.0903 N.3     1  UNL1       -0.2725
     14 C           6.9376   -4.4386   27.2851 C.3     1  UNL1        0.0938
     15 C           6.9677   -4.6076   25.7949 C.3     1  UNL1        0.1107
     16 C           6.4350   -3.4687   29.5783 C.3     1  UNL1        0.0576
     17 C           6.8744   -4.5502   30.5203 C.3     1  UNL1        0.0160
     18 C           6.6490   -3.6293   31.6827 C.3     1  UNL1        0.0028
     19 C           6.2096   -2.5478   30.7408 C.3     1  UNL1        0.0160
     20 O           3.3161   -2.4514   19.5342 O.3     1  UNL1       -0.4777
     21 C           2.5965   -1.1403   19.4198 C.ar    1  UNL1        0.1385
     22 C           3.1013   -0.0873   18.4783 C.ar    1  UNL1        0.0378
     23 C           2.3818    1.2237   18.3639 C.ar    1  UNL1        0.0145
     24 C           1.1573    1.4819   19.1909 C.ar    1  UNL1        0.0579
     25 CL          0.4376    2.7930   19.0765 Cl      1  UNL1       -0.0822
     26 C           0.6524    0.4289   20.1323 C.ar    1  UNL1        0.0145
     27 C           1.3720   -0.8822   20.2468 C.ar    1  UNL1        0.0378
@<TRIPOS>BOND
     1     7     8    2
     2     8     1    1
     3     1     2    1
     4     2     3    1
     5     3    20    1
     6    20    21    1
     7    21    22   ar
     8    22    23   ar
     9    23    24   ar
    10    24    25    1
    11    24    26   ar
    12    26    27   ar
    13     3     4    1
    14     4     5    1
    15     8     9   am
    16     9    10    1
    17    10    11    1
    18    11    12    1
    19    12    13    1
    20    13    16    1
    21    16    17    1
    22    17    18    1
    23    18    19    1
    24    13    14    1
    25    14    15    1
    26     5     1    1
    27    15     9    1
    28    27    21   ar
    29    19    16    1
    30     5     6    1
@<TRIPOS>MOLECULE
*****
 27 30 0 0 0
SMALL
GASTEIGER

@<TRIPOS>ATOM
      1 C           4.4011   -2.4732   18.6122 C.3     1  UNL1        0.1355
      2 C           5.6565   -2.5133   19.4323 C.3     1  UNL1        0.0700
      3 C           5.8872   -3.9333   19.8573 C.3     1  UNL1        0.1834
      4 C           4.7745   -4.7706   19.2999 C.3     1  UNL1        0.1130
      5 N           3.8561   -3.8682   18.5304 N.3     1  UNL1       -0.2882
      6 H           2.9208   -3.8987   18.9362 H       1  UNL1        0.1237
      7 O           4.2343   -0.8178   16.6167 O.2     1  UNL1       -0.2734
      8 C           3.7970   -1.2523   17.9842 C.2     1  UNL1        0.2401
      9 N           2.7555   -0.4658   18.7236 N.am    1  UNL1       -0.2770
     10 C           2.3905   -0.9857   20.0825 C.3     1  UNL1        0.0949
     11 C           1.3965   -0.4316   21.0599 C.3     1  UNL1        0.0388
     12 C           0.5223    0.7791   20.9197 C.3     1  UNL1        0.0739
     13 N           0.4259    1.7349   19.7676 N.3     1  UNL1       -0.2725
     14 C           1.1801    1.7159   18.4711 C.3     1  UNL1        0.0938
     15 C           2.2169    0.7365   18.0066 C.3     1  UNL1        0.1107
     16 C          -0.5541    2.8581   19.9340 C.3     1  UNL1        0.0576
     17 C          -0.8101    4.1561   19.2269 C.3     1  UNL1        0.0160
     18 C          -1.9402    4.4467   20.1693 C.3     1  UNL1        0.0028
     19 C          -1.6844    3.1488   20.8765 C.3     1  UNL1        0.0160
     20 O           7.0301   -4.4288   20.6930 O.3     1  UNL1       -0.4777
     21 C           6.9600   -4.3384   22.1887 C.ar    1  UNL1        0.1385
     22 C           7.9301   -5.1104   23.0330 C.ar    1  UNL1        0.0378
     23 C           7.8601   -5.0201   24.5285 C.ar    1  UNL1        0.0145
     24 C           6.8199   -4.1576   25.1799 C.ar    1  UNL1        0.0579
     25 CL          6.7499   -4.0672   26.6755 Cl      1  UNL1       -0.0822
     26 C           5.8498   -3.3855   24.3356 C.ar    1  UNL1        0.0145
     27 C           5.9199   -3.4760   22.8400 C.ar    1  UNL1        0.0378
@<TRIPOS>BOND
     1     7     8    2
     2     8     1    1
     3     1     2    1
     4     2     3    1
     5     3    20    1
     6    20    21    1
     7    21    22   ar
     8    22    23   ar
     9    23    24   ar
    10    24    25    1
    11    24    26   ar
    12    26    27   ar
    13     3     4    1
    14     4     5    1
    15     8     9   am
    16     9    10    1
    17    10    11    1
    18    11    12    1
    19    12    13    1
    20    13    16    1
    21    16    17    1
    22    17    18    1
    23    18    19    1
    24    13    14    1
    25    14    15    1
    26     5     1    1
    27    15     9    1
    28    27    21   ar
    29    19    16    1
    30     5     6    1
@<TRIPOS>MOLECULE
*****
 27 30 0 0 0
SMALL
GASTEIGER

@<TRIPOS>ATOM
      1 C           0.2037    2.4774   23.0813 C.3     1  UNL1        0.1355
      2 C          -0.2267    2.0016   24.4372 C.3     1  UNL1        0.0700
      3 C          -0.0380    3.1309   25.4063 C.3     1  UNL1        0.1834
      4 C           0.5090    4.3046   24.6492 C.3     1  UNL1        0.1130
      5 N           0.6584    3.9007   23.2124 N.3     1  UNL1       -0.2882
      6 H           1.6355    3.9793   22.9306 H       1  UNL1        0.1237
      7 O          -0.8477    1.9536   20.7640 O.2     1  UNL1       -0.2734
      8 C           0.1829    1.6713   21.8166 C.2     1  UNL1        0.2401
      9 N           1.1929    0.5827   21.6043 N.am    1  UNL1       -0.2770
     10 C           2.1781    0.3829   22.7178 C.3     1  UNL1        0.0949
     11 C           3.2979   -0.6111   22.8086 C.3     1  UNL1        0.0388
     12 C           3.7090   -1.6506   21.8085 C.3     1  UNL1        0.0739
     13 N           3.1020   -1.9530   20.4705 N.3     1  UNL1       -0.2725
     14 C           1.9339   -1.2905   19.8022 C.3     1  UNL1        0.0938
     15 C           1.0843   -0.1620   20.3069 C.3     1  UNL1        0.1107
     16 C           3.7486   -3.0649   19.6989 C.3     1  UNL1        0.0576
     17 C           5.0364   -3.2248   18.9464 C.3     1  UNL1        0.0160
     18 C           4.6631   -4.6374   18.6075 C.3     1  UNL1        0.0028
     19 C           3.3752   -4.4777   19.3598 C.3     1  UNL1        0.0160
     20 O          -0.3428    3.0931   26.8745 O.3     1  UNL1       -0.4777
     21 C           0.3450    2.0948   27.7578 C.ar    1  UNL1        0.1385
     22 C           1.7404    2.3573   28.2415 C.ar    1  UNL1        0.0378
     23 C           2.4282    1.3591   29.1248 C.ar    1  UNL1        0.0145
     24 C           1.7207    0.0983   29.5245 C.ar    1  UNL1        0.0579
     25 CL          2.4085   -0.9000   30.4078 Cl      1  UNL1       -0.0822
     26 C           0.3253   -0.1642   29.0408 C.ar    1  UNL1        0.0145
     27 C          -0.3625    0.8341   28.1575 C.ar    1  UNL1        0.0378
@<TRIPOS>BOND
     1     7     8    2
     2     8     1    1
     3     1     2    1
     4     2     3    1
     5     3    20    1
     6    20    21    1
     7    21    22   ar
     8    22    23   ar
     9    23    24   ar
    10    24    25    1
    11    24    26   ar
    12    26    27   ar
    13     3     4    1
    14     4     5    1
    15     8     9   am
    16     9    10    1
    17    10    11    1
    18    11    12    1
    19    12    13    1
    20    13    16    1
    21    16    17    1
    22    17    18    1
    23    18    19    1
    24    13    14    1
    25    14    15    1
    26     5     1    1
    27    15     9    1
    28    27    21   ar
    29    19    16    1
    30     5     6    1
@<TRIPOS>MOLECULE
*****
 27 30 0 0 0
SMALL
GASTEIGER

@<TRIPOS>ATOM
      1 C           6.7499   -4.2081   25.2098 C.3     1  UNL1        0.1355
      2 C           7.3293   -3.1301   26.0772 C.3     1  UNL1        0.0700
      3 C           7.4084   -3.6563   27.4797 C.3     1  UNL1        0.1834
      4 C           6.8779   -5.0593   27.4790 C.3     1  UNL1        0.1130
      5 N           6.4709   -5.4003   26.0762 N.3     1  UNL1       -0.2882
      6 H           5.4759   -5.6228   26.0489 H       1  UNL1        0.1237
      7 O           7.2794   -4.9603   22.7800 O.2     1  UNL1       -0.2734
      8 C           6.4943   -4.1107   23.7350 C.2     1  UNL1        0.2401
      9 N           5.4537   -3.1638   23.2150 N.am    1  UNL1       -0.2770
     10 C           4.7267   -2.3617   24.2534 C.3     1  UNL1        0.0949
     11 C           3.6440   -1.3418   24.0586 C.3     1  UNL1        0.0388
     12 C           3.0211   -0.8723   22.7775 C.3     1  UNL1        0.0739
     13 N           3.3267   -1.3066   21.3746 N.3     1  UNL1       -0.2725
     14 C           4.3310   -2.3177   20.9064 C.3     1  UNL1        0.0938
     15 C           5.2775   -3.1442   21.7256 C.3     1  UNL1        0.1107
     16 C           2.5218   -0.6419   20.2975 C.3     1  UNL1        0.0576
     17 C           2.8269   -0.0728   18.9435 C.3     1  UNL1        0.0160
     18 C           1.3834    0.2982   18.7742 C.3     1  UNL1        0.0028
     19 C           1.0782   -0.2707   20.1282 C.3     1  UNL1        0.0160
     20 O           7.9270   -2.9103   28.6733 O.3     1  UNL1       -0.4777
     21 C           7.0727   -2.7678   29.8980 C.ar    1  UNL1        0.1385
     22 C           6.0564   -1.6676   29.9797 C.ar    1  UNL1        0.0378
     23 C           5.2022   -1.5251   31.2043 C.ar    1  UNL1        0.0145
     24 C           5.3641   -2.4828   32.3474 C.ar    1  UNL1        0.0579
     25 CL          4.5098   -2.3403   33.5721 Cl      1  UNL1       -0.0822
     26 C           6.3804   -3.5830   32.2657 C.ar    1  UNL1        0.0145
     27 C           7.2347   -3.7255   31.0410 C.ar    1  UNL1        0.0378
@<TRIPOS>BOND
     1     7     8    2
     2     8     1    1
     3     1     2    1
     4     2     3    1
     5     3    20    1
     6    20    21    1
     7    21    22   ar
     8    22    23   ar
     9    23    24   ar
    10    24    25    1
    11    24    26   ar
    12    26    27   ar
    13     3     4    1
    14     4     5    1
    15     8     9   am
    16     9    10    1
    17    10    11    1
    18    11    12    1
    19    12    13    1
    20    13    16    1
    21    16    17    1
    22    17    18    1
    23    18    19    1
    24    13    14    1
    25    14    15    1
    26     5     1    1
    27    15     9    1
    28    27    21   ar
    29    19    16    1
    30     5     6    1
@<TRIPOS>MOLECULE
*****
 27 30 0 0 0
SMALL
GASTEIGER

@<TRIPOS>ATOM
      1 C           7.7668   -4.5800   24.0148 C.3     1  UNL1        0.1355
      2 C           7.1796   -5.4750   25.0655 C.3     1  UNL1        0.0700
      3 C           8.0446   -5.3845   26.2877 C.3     1  UNL1        0.1834
      4 C           9.1664   -4.4336   25.9922 C.3     1  UNL1        0.1130
      5 N           8.9947   -3.9364   24.5875 N.3     1  UNL1       -0.2882
      6 H           9.8101   -4.1884   24.0290 H       1  UNL1        0.1237
      7 O           7.8357   -5.0803   21.4663 O.2     1  UNL1       -0.2734
      8 C           7.2218   -4.3662   22.6338 C.2     1  UNL1        0.2401
      9 N           6.0627   -3.4383   22.4202 N.am    1  UNL1       -0.2770
     10 C           5.5240   -2.7754   23.6534 C.3     1  UNL1        0.0949
     11 C           4.3851   -1.8065   23.7726 C.3     1  UNL1        0.0388
     12 C           3.5038   -1.2611   22.6884 C.3     1  UNL1        0.0739
     13 N           3.5435   -1.5499   21.2170 N.3     1  UNL1       -0.2725
     14 C           4.4745   -2.4555   20.4665 C.3     1  UNL1        0.0938
     15 C           5.5957   -3.2959   21.0021 C.3     1  UNL1        0.1107
     16 C           2.5166   -0.8392   20.3863 C.3     1  UNL1        0.0576
     17 C           1.0568   -0.5301   20.5401 C.3     1  UNL1        0.0160
     18 C           1.0641    0.1659   19.2114 C.3     1  UNL1        0.0028
     19 C           2.5238   -0.1432   19.0574 C.3     1  UNL1        0.0160
     20 O           7.8262   -6.1165   27.5787 O.3     1  UNL1       -0.4777
     21 C           7.4182   -5.3617   28.8091 C.ar    1  UNL1        0.1385
     22 C           6.9518   -3.9405   28.6969 C.ar    1  UNL1        0.0378
     23 C           6.5438   -3.1857   29.9272 C.ar    1  UNL1        0.0145
     24 C           6.6022   -3.8521   31.2697 C.ar    1  UNL1        0.0579
     25 CL          6.1942   -3.0973   32.5001 Cl      1  UNL1       -0.0822
     26 C           7.0686   -5.2733   31.3819 C.ar    1  UNL1        0.0145
     27 C           7.4766   -6.0281   30.1515 C.ar    1  UNL1        0.0378
@<TRIPOS>BOND
     1     7     8    2
     2     8     1    1
     3     1     2    1
     4     2     3    1
     5     3    20    1
     6    20    21    1
     7    21    22   ar
     8    22    23   ar
     9    23    24   ar
    10    24    25    1
    11    24    26   ar
    12    26    27   ar
    13     3     4    1
    14     4     5    1
    15     8     9   am
    16     9    10    1
    17    10    11    1
    18    11    12    1
    19    12    13    1
    20    13    16    1
    21    16    17    1
    22    17    18    1
    23    18    19    1
    24    13    14    1
    25    14    15    1
    26     5     1    1
    27    15     9    1
    28    27    21   ar
    29    19    16    1
    30     5     6    1
