@<TRIPOS>MOLECULE
*****
 20 22 0 0 0
SMALL
GASTEIGER

@<TRIPOS>ATOM
      1 O          -9.2244  -20.3715   18.7007 O.2     1  UNL1       -0.2866
      2 C          -8.9622  -19.4261   19.8354 C.2     1  UNL1        0.1956
      3 C         -10.1098  -18.7855   20.5584 C.ar    1  UNL1        0.0390
      4 C         -11.0433  -17.8708   19.8222 C.ar    1  UNL1        0.0032
      5 C         -12.1909  -17.2303   20.5452 C.ar    1  UNL1        0.0001
      6 C         -12.4050  -17.5044   22.0043 C.ar    1  UNL1        0.0000
      7 C         -11.4715  -18.4191   22.7405 C.ar    1  UNL1        0.0001
      8 C         -11.6856  -18.6932   24.1996 C.ar    1  UNL1        0.0000
      9 C         -10.7521  -19.6079   24.9357 C.ar    1  UNL1        0.0000
     10 C          -9.6045  -20.2484   24.2127 C.ar    1  UNL1        0.0000
     11 C          -9.3904  -19.9743   22.7536 C.ar    1  UNL1        0.0001
     12 C         -10.3239  -19.0597   22.0175 C.ar    1  UNL1        0.0031
     13 C          -7.5524  -19.1213   20.2471 C.2     1  UNL1        0.0421
     14 C          -6.6072  -20.2400   20.5714 C.2     1  UNL1        0.0048
     15 C          -5.1974  -19.9351   20.9832 C.ar    1  UNL1        0.0193
     16 C          -4.9360  -19.0286   22.1494 C.ar    1  UNL1        0.0031
     17 C          -3.5263  -18.7238   22.5611 C.ar    1  UNL1        0.0207
     18 C          -2.3779  -19.3254   21.8067 C.ar    1  UNL1        0.0989
     19 N          -2.6392  -20.2319   20.6405 N.ar    1  UNL1       -0.2423
     20 C          -4.0490  -20.5368   20.2288 C.ar    1  UNL1        0.0988
@<TRIPOS>BOND
     1     1     2    2
     2     2    13    1
     3    13    14    2
     4    14    15    1
     5    15    16   ar
     6    16    17   ar
     7    17    18   ar
     8    18    19   ar
     9    19    20   ar
    10     2     3    1
    11     3     4   ar
    12     4     5   ar
    13     5     6   ar
    14     6     7   ar
    15     7     8   ar
    16     8     9   ar
    17     9    10   ar
    18    10    11   ar
    19    11    12   ar
    20    20    15   ar
    21    12     3   ar
    22    12     7   ar
@<TRIPOS>MOLECULE
*****
 20 22 0 0 0
SMALL
GASTEIGER

@<TRIPOS>ATOM
      1 O          -8.7333  -19.9483   19.2670 O.2     1  UNL1       -0.2866
      2 C          -8.1747  -19.4291   20.5587 C.2     1  UNL1        0.1956
      3 C          -9.0341  -19.3950   21.7876 C.ar    1  UNL1        0.0390
      4 C          -8.6549  -20.2065   22.9907 C.ar    1  UNL1        0.0032
      5 C          -9.5143  -20.1724   24.2197 C.ar    1  UNL1        0.0001
      6 C         -10.7528  -19.3268   24.2455 C.ar    1  UNL1        0.0000
      7 C         -11.1321  -18.5152   23.0423 C.ar    1  UNL1        0.0001
      8 C         -12.3707  -17.6695   23.0681 C.ar    1  UNL1        0.0000
      9 C         -12.7499  -16.8580   21.8650 C.ar    1  UNL1        0.0000
     10 C         -11.8905  -16.8921   20.6360 C.ar    1  UNL1        0.0000
     11 C         -10.6519  -17.7377   20.6102 C.ar    1  UNL1        0.0001
     12 C         -10.2727  -18.5493   21.8134 C.ar    1  UNL1        0.0031
     13 C          -6.7567  -18.9440   20.6214 C.2     1  UNL1        0.0421
     14 C          -5.6257  -19.8999   20.3823 C.2     1  UNL1        0.0048
     15 C          -4.2077  -19.4148   20.4450 C.ar    1  UNL1        0.0193
     16 C          -3.6373  -18.6165   19.3104 C.ar    1  UNL1        0.0031
     17 C          -2.2193  -18.1313   19.3730 C.ar    1  UNL1        0.0207
     18 C          -1.3718  -18.4445   20.5703 C.ar    1  UNL1        0.0989
     19 N          -1.9422  -19.2428   21.7049 N.ar    1  UNL1       -0.2423
     20 C          -3.3601  -19.7279   21.6423 C.ar    1  UNL1        0.0988
@<TRIPOS>BOND
     1     1     2    2
     2     2    13    1
     3    13    14    2
     4    14    15    1
     5    15    16   ar
     6    16    17   ar
     7    17    18   ar
     8    18    19   ar
     9    19    20   ar
    10     2     3    1
    11     3     4   ar
    12     4     5   ar
    13     5     6   ar
    14     6     7   ar
    15     7     8   ar
    16     8     9   ar
    17     9    10   ar
    18    10    11   ar
    19    11    12   ar
    20    20    15   ar
    21    12     3   ar
    22    12     7   ar
@<TRIPOS>MOLECULE
*****
 20 22 0 0 0
SMALL
GASTEIGER

@<TRIPOS>ATOM
      1 O          -8.0839  -15.0264   24.2880 O.2     1  UNL1       -0.2866
      2 C          -8.1195  -16.4274   23.7531 C.2     1  UNL1        0.1956
      3 C          -9.4107  -17.1908   23.7353 C.ar    1  UNL1        0.0390
      4 C          -9.7263  -18.1563   24.8390 C.ar    1  UNL1        0.0032
      5 C         -11.0174  -18.9197   24.8212 C.ar    1  UNL1        0.0001
      6 C         -11.9929  -18.7175   23.6998 C.ar    1  UNL1        0.0000
      7 C         -11.6772  -17.7519   22.5961 C.ar    1  UNL1        0.0001
      8 C         -12.6527  -17.5498   21.4747 C.ar    1  UNL1        0.0000
      9 C         -12.3370  -16.5842   20.3710 C.ar    1  UNL1        0.0000
     10 C         -11.0459  -15.8209   20.3888 C.ar    1  UNL1        0.0000
     11 C         -10.0705  -16.0231   21.5102 C.ar    1  UNL1        0.0001
     12 C         -10.3861  -16.9886   22.6138 C.ar    1  UNL1        0.0031
     13 C          -6.8641  -17.0650   23.2360 C.2     1  UNL1        0.0421
     14 C          -6.9469  -18.2562   22.3282 C.2     1  UNL1        0.0048
     15 C          -5.6914  -18.8938   21.8111 C.ar    1  UNL1        0.0193
     16 C          -5.7404  -19.7655   20.5913 C.ar    1  UNL1        0.0031
     17 C          -4.4850  -20.4030   20.0742 C.ar    1  UNL1        0.0207
     18 C          -3.1806  -20.1689   20.7768 C.ar    1  UNL1        0.0989
     19 N          -3.1316  -19.2972   21.9966 N.ar    1  UNL1       -0.2423
     20 C          -4.3870  -18.6596   22.5137 C.ar    1  UNL1        0.0988
@<TRIPOS>BOND
     1     1     2    2
     2     2    13    1
     3    13    14    2
     4    14    15    1
     5    15    16   ar
     6    16    17   ar
     7    17    18   ar
     8    18    19   ar
     9    19    20   ar
    10     2     3    1
    11     3     4   ar
    12     4     5   ar
    13     5     6   ar
    14     6     7   ar
    15     7     8   ar
    16     8     9   ar
    17     9    10   ar
    18    10    11   ar
    19    11    12   ar
    20    20    15   ar
    21    12     3   ar
    22    12     7   ar
@<TRIPOS>MOLECULE
*****
 20 22 0 0 0
SMALL
GASTEIGER

@<TRIPOS>ATOM
      1 O         -11.9951  -18.9222   24.9783 O.2     1  UNL1       -0.2866
      2 C         -10.9266  -18.2387   24.1776 C.2     1  UNL1        0.1956
      3 C         -11.0838  -18.0854   22.6937 C.ar    1  UNL1        0.0390
      4 C         -12.2730  -17.3607   22.1364 C.ar    1  UNL1        0.0032
      5 C         -12.4301  -17.2074   20.6525 C.ar    1  UNL1        0.0001
      6 C         -11.3981  -17.7788   19.7260 C.ar    1  UNL1        0.0000
      7 C         -10.2088  -18.5035   20.2834 C.ar    1  UNL1        0.0001
      8 C          -9.1768  -19.0748   19.3569 C.ar    1  UNL1        0.0000
      9 C          -7.9876  -19.7994   19.9142 C.ar    1  UNL1        0.0000
     10 C          -7.8305  -19.9527   21.3981 C.ar    1  UNL1        0.0000
     11 C          -8.8625  -19.3814   22.3246 C.ar    1  UNL1        0.0001
     12 C         -10.0517  -18.6568   21.7672 C.ar    1  UNL1        0.0031
     13 C          -9.7010  -17.7084   24.8607 C.2     1  UNL1        0.0421
     14 C          -9.1204  -16.3901   24.4425 C.2     1  UNL1        0.0048
     15 C          -7.8947  -15.8599   25.1257 C.ar    1  UNL1        0.0193
     16 C          -7.8253  -15.8289   26.6238 C.ar    1  UNL1        0.0031
     17 C          -6.5997  -15.2988   27.3070 C.ar    1  UNL1        0.0207
     18 C          -5.4436  -14.7995   26.4922 C.ar    1  UNL1        0.0989
     19 N          -5.5130  -14.8305   24.9941 N.ar    1  UNL1       -0.2423
     20 C          -6.7386  -15.3607   24.3109 C.ar    1  UNL1        0.0988
@<TRIPOS>BOND
     1     1     2    2
     2     2    13    1
     3    13    14    2
     4    14    15    1
     5    15    16   ar
     6    16    17   ar
     7    17    18   ar
     8    18    19   ar
     9    19    20   ar
    10     2     3    1
    11     3     4   ar
    12     4     5   ar
    13     5     6   ar
    14     6     7   ar
    15     7     8   ar
    16     8     9   ar
    17     9    10   ar
    18    10    11   ar
    19    11    12   ar
    20    20    15   ar
    21    12     3   ar
    22    12     7   ar
@<TRIPOS>MOLECULE
*****
 20 22 0 0 0
SMALL
GASTEIGER

@<TRIPOS>ATOM
      1 O          -5.3924  -21.1501   20.1534 O.2     1  UNL1       -0.2866
      2 C          -5.6267  -19.7486   20.6342 C.2     1  UNL1        0.1956
      3 C          -4.5490  -19.0228   21.3836 C.ar    1  UNL1        0.0390
      4 C          -4.6897  -18.7865   22.8582 C.ar    1  UNL1        0.0032
      5 C          -3.6119  -18.0607   23.6076 C.ar    1  UNL1        0.0001
      6 C          -2.3935  -17.5712   22.8826 C.ar    1  UNL1        0.0000
      7 C          -2.2528  -17.8074   21.4079 C.ar    1  UNL1        0.0001
      8 C          -1.0344  -17.3179   20.6828 C.ar    1  UNL1        0.0000
      9 C          -0.8937  -17.5542   19.2083 C.ar    1  UNL1        0.0000
     10 C          -1.9714  -18.2800   18.4588 C.ar    1  UNL1        0.0000
     11 C          -3.1899  -18.7696   19.1839 C.ar    1  UNL1        0.0001
     12 C          -3.3305  -18.5333   20.6585 C.ar    1  UNL1        0.0031
     13 C          -6.9387  -19.0730   20.3655 C.2     1  UNL1        0.0421
     14 C          -7.9025  -18.8324   21.4895 C.2     1  UNL1        0.0048
     15 C          -9.2145  -18.1568   21.2207 C.ar    1  UNL1        0.0193
     16 C         -10.1218  -18.6806   20.1471 C.ar    1  UNL1        0.0031
     17 C         -11.4337  -18.0050   19.8784 C.ar    1  UNL1        0.0207
     18 C         -11.8385  -16.8057   20.6832 C.ar    1  UNL1        0.0989
     19 N         -10.9313  -16.2820   21.7568 N.ar    1  UNL1       -0.2423
     20 C          -9.6193  -16.9575   22.0256 C.ar    1  UNL1        0.0988
@<TRIPOS>BOND
     1     1     2    2
     2     2    13    1
     3    13    14    2
     4    14    15    1
     5    15    16   ar
     6    16    17   ar
     7    17    18   ar
     8    18    19   ar
     9    19    20   ar
    10     2     3    1
    11     3     4   ar
    12     4     5   ar
    13     5     6   ar
    14     6     7   ar
    15     7     8   ar
    16     8     9   ar
    17     9    10   ar
    18    10    11   ar
    19    11    12   ar
    20    20    15   ar
    21    12     3   ar
    22    12     7   ar
@<TRIPOS>MOLECULE
*****
 20 22 0 0 0
SMALL
GASTEIGER

@<TRIPOS>ATOM
      1 O          -6.3181  -16.4877   23.1072 O.2     1  UNL1       -0.2866
      2 C          -6.9560  -17.7871   22.7136 C.2     1  UNL1        0.1956
      3 C          -6.1939  -18.7746   21.8806 C.ar    1  UNL1        0.0390
      4 C          -6.9315  -19.7541   21.0166 C.ar    1  UNL1        0.0032
      5 C          -6.1694  -20.7417   20.1835 C.ar    1  UNL1        0.0001
      6 C          -4.6698  -20.7498   20.2145 C.ar    1  UNL1        0.0000
      7 C          -3.9321  -19.7703   21.0786 C.ar    1  UNL1        0.0001
      8 C          -2.4325  -19.7785   21.1097 C.ar    1  UNL1        0.0000
      9 C          -1.6949  -18.7990   21.9737 C.ar    1  UNL1        0.0000
     10 C          -2.4570  -17.8114   22.8067 C.ar    1  UNL1        0.0000
     11 C          -3.9566  -17.8033   22.7757 C.ar    1  UNL1        0.0001
     12 C          -4.6942  -18.7827   21.9117 C.ar    1  UNL1        0.0031
     13 C          -8.3558  -18.0988   23.1531 C.2     1  UNL1        0.0421
     14 C          -9.4848  -17.1930   22.7593 C.2     1  UNL1        0.0048
     15 C         -10.8847  -17.5048   23.1988 C.ar    1  UNL1        0.0193
     16 C         -12.0488  -16.8547   22.5116 C.ar    1  UNL1        0.0031
     17 C         -13.4487  -17.1664   22.9511 C.ar    1  UNL1        0.0207
     18 C         -13.6845  -18.1283   24.0776 C.ar    1  UNL1        0.0989
     19 N         -12.5203  -18.7784   24.7648 N.ar    1  UNL1       -0.2423
     20 C         -11.1205  -18.4666   24.3254 C.ar    1  UNL1        0.0988
@<TRIPOS>BOND
     1     1     2    2
     2     2    13    1
     3    13    14    2
     4    14    15    1
     5    15    16   ar
     6    16    17   ar
     7    17    18   ar
     8    18    19   ar
     9    19    20   ar
    10     2     3    1
    11     3     4   ar
    12     4     5   ar
    13     5     6   ar
    14     6     7   ar
    15     7     8   ar
    16     8     9   ar
    17     9    10   ar
    18    10    11   ar
    19    11    12   ar
    20    20    15   ar
    21    12     3   ar
    22    12     7   ar
@<TRIPOS>MOLECULE
*****
 20 22 0 0 0
SMALL
GASTEIGER

@<TRIPOS>ATOM
      1 O          -7.0529  -21.1324   23.0696 O.2     1  UNL1       -0.2866
      2 C          -6.8746  -20.0571   22.0390 C.2     1  UNL1        0.1956
      3 C          -5.5565  -19.8986   21.3408 C.ar    1  UNL1        0.0390
      4 C          -5.2105  -20.7852   20.1814 C.ar    1  UNL1        0.0032
      5 C          -3.8924  -20.6267   19.4832 C.ar    1  UNL1        0.0001
      6 C          -2.9203  -19.5816   19.9444 C.ar    1  UNL1        0.0000
      7 C          -3.2662  -18.6950   21.1039 C.ar    1  UNL1        0.0001
      8 C          -2.2941  -17.6500   21.5651 C.ar    1  UNL1        0.0000
      9 C          -2.6400  -16.7634   22.7245 C.ar    1  UNL1        0.0000
     10 C          -3.9581  -16.9219   23.4227 C.ar    1  UNL1        0.0000
     11 C          -4.9303  -17.9670   22.9615 C.ar    1  UNL1        0.0001
     12 C          -4.5843  -18.8535   21.8021 C.ar    1  UNL1        0.0031
     13 C          -8.0144  -19.1404   21.7067 C.2     1  UNL1        0.0421
     14 C          -9.3989  -19.4605   22.1870 C.2     1  UNL1        0.0048
     15 C         -10.5387  -18.5437   21.8546 C.ar    1  UNL1        0.0193
     16 C         -11.4739  -18.0876   22.9351 C.ar    1  UNL1        0.0031
     17 C         -12.6137  -17.1709   22.6027 C.ar    1  UNL1        0.0207
     18 C         -12.8182  -16.7102   21.1900 C.ar    1  UNL1        0.0989
     19 N         -11.8829  -17.1663   20.1096 N.ar    1  UNL1       -0.2423
     20 C         -10.7432  -18.0830   20.4419 C.ar    1  UNL1        0.0988
@<TRIPOS>BOND
     1     1     2    2
     2     2    13    1
     3    13    14    2
     4    14    15    1
     5    15    16   ar
     6    16    17   ar
     7    17    18   ar
     8    18    19   ar
     9    19    20   ar
    10     2     3    1
    11     3     4   ar
    12     4     5   ar
    13     5     6   ar
    14     6     7   ar
    15     7     8   ar
    16     8     9   ar
    17     9    10   ar
    18    10    11   ar
    19    11    12   ar
    20    20    15   ar
    21    12     3   ar
    22    12     7   ar
@<TRIPOS>MOLECULE
*****
 20 22 0 0 0
SMALL
GASTEIGER

@<TRIPOS>ATOM
      1 O          -6.0394  -15.9504   24.7373 O.2     1  UNL1       -0.2866
      2 C          -6.1818  -16.8399   23.5379 C.2     1  UNL1        0.1956
      3 C          -4.9789  -17.5353   22.9728 C.ar    1  UNL1        0.0390
      4 C          -3.6015  -17.0799   23.3538 C.ar    1  UNL1        0.0032
      5 C          -2.3985  -17.7753   22.7887 C.ar    1  UNL1        0.0001
      6 C          -2.5730  -18.9262   21.8427 C.ar    1  UNL1        0.0000
      7 C          -3.9505  -19.3817   21.4617 C.ar    1  UNL1        0.0001
      8 C          -4.1250  -20.5325   20.5156 C.ar    1  UNL1        0.0000
      9 C          -5.5024  -20.9879   20.1346 C.ar    1  UNL1        0.0000
     10 C          -6.7054  -20.2925   20.6997 C.ar    1  UNL1        0.0000
     11 C          -6.5309  -19.1416   21.6457 C.ar    1  UNL1        0.0001
     12 C          -5.1534  -18.6862   22.0267 C.ar    1  UNL1        0.0031
     13 C          -7.5272  -17.0339   22.9035 C.2     1  UNL1        0.0421
     14 C          -8.7739  -16.8411   23.7150 C.2     1  UNL1        0.0048
     15 C         -10.1192  -17.0351   23.0806 C.ar    1  UNL1        0.0193
     16 C         -11.1413  -17.9110   23.7426 C.ar    1  UNL1        0.0031
     17 C         -12.4866  -18.1050   23.1082 C.ar    1  UNL1        0.0207
     18 C         -12.8098  -17.4232   21.8119 C.ar    1  UNL1        0.0989
     19 N         -11.7878  -16.5473   21.1499 N.ar    1  UNL1       -0.2423
     20 C         -10.4425  -16.3532   21.7843 C.ar    1  UNL1        0.0988
@<TRIPOS>BOND
     1     1     2    2
     2     2    13    1
     3    13    14    2
     4    14    15    1
     5    15    16   ar
     6    16    17   ar
     7    17    18   ar
     8    18    19   ar
     9    19    20   ar
    10     2     3    1
    11     3     4   ar
    12     4     5   ar
    13     5     6   ar
    14     6     7   ar
    15     7     8   ar
    16     8     9   ar
    17     9    10   ar
    18    10    11   ar
    19    11    12   ar
    20    20    15   ar
    21    12     3   ar
    22    12     7   ar
@<TRIPOS>MOLECULE
*****
 20 22 0 0 0
SMALL
GASTEIGER

@<TRIPOS>ATOM
      1 O         -13.3306   -3.3262   20.6042 O.2     1  UNL1       -0.2866
      2 C         -12.9741   -4.5616   19.8315 C.2     1  UNL1        0.1956
      3 C         -11.7600   -4.5709   18.9507 C.ar    1  UNL1        0.0390
      4 C         -10.8229   -5.7419   18.9775 C.ar    1  UNL1        0.0032
      5 C          -9.6088   -5.7512   18.0967 C.ar    1  UNL1        0.0001
      6 C          -9.3318   -4.5897   17.1890 C.ar    1  UNL1        0.0000
      7 C         -10.2689   -3.4186   17.1621 C.ar    1  UNL1        0.0001
      8 C          -9.9919   -2.2571   16.2544 C.ar    1  UNL1        0.0000
      9 C         -10.9290   -1.0862   16.2275 C.ar    1  UNL1        0.0000
     10 C         -12.1430   -1.0768   17.1084 C.ar    1  UNL1        0.0000
     11 C         -12.4201   -2.2384   18.0161 C.ar    1  UNL1        0.0001
     12 C         -11.4830   -3.4093   18.0429 C.ar    1  UNL1        0.0031
     13 C         -13.8316   -5.7875   19.9397 C.2     1  UNL1        0.0421
     14 C         -14.2757   -6.5040   18.6990 C.2     1  UNL1        0.0048
     15 C         -15.1333   -7.7299   18.8073 C.ar    1  UNL1        0.0193
     16 C         -16.4283   -7.6750   19.5623 C.ar    1  UNL1        0.0031
     17 C         -17.2859   -8.9009   19.6705 C.ar    1  UNL1        0.0207
     18 C         -16.8485  -10.1816   19.0239 C.ar    1  UNL1        0.0989
     19 N         -15.5536  -10.2366   18.2689 N.ar    1  UNL1       -0.2423
     20 C         -14.6960   -9.0107   18.1606 C.ar    1  UNL1        0.0988
@<TRIPOS>BOND
     1     1     2    2
     2     2    13    1
     3    13    14    2
     4    14    15    1
     5    15    16   ar
     6    16    17   ar
     7    17    18   ar
     8    18    19   ar
     9    19    20   ar
    10     2     3    1
    11     3     4   ar
    12     4     5   ar
    13     5     6   ar
    14     6     7   ar
    15     7     8   ar
    16     8     9   ar
    17     9    10   ar
    18    10    11   ar
    19    11    12   ar
    20    20    15   ar
    21    12     3   ar
    22    12     7   ar
