@<TRIPOS>MOLECULE
*****
 23 25 0 0 0
SMALL
GASTEIGER

@<TRIPOS>ATOM
      1 C          -8.6235  -17.0585   22.5971 C.ar    1  UNL1       -0.0158
      2 C          -8.0144  -18.3847   22.2505 C.ar    1  UNL1        0.0050
      3 S          -9.1228  -19.3140   21.8531 S.2     1  UNL1       -0.0915
      4 C         -10.4168  -18.5621   21.9540 C.ar    1  UNL1        0.0288
      5 C         -11.8362  -18.9667   21.6867 C.ar    1  UNL1        0.0065
      6 C         -12.9470  -17.9773   21.8791 C.ar    1  UNL1        0.0005
      7 C         -12.6384  -16.5833   22.3389 C.ar    1  UNL1        0.0000
      8 C         -11.2190  -16.1787   22.6063 C.ar    1  UNL1        0.0002
      9 C         -10.1082  -17.1681   22.4139 C.ar    1  UNL1        0.0025
     10 C          -7.5334  -14.7620   22.0601 C.3     1  UNL1        0.0095
     11 C          -7.8786  -15.8370   23.0478 C.3     1  UNL1        0.0485
     12 C          -7.4788  -15.6904   24.4860 C.ar    1  UNL1        0.0275
     13 C          -8.5302  -15.6262   25.5540 C.ar    1  UNL1        0.0014
     14 C          -8.1305  -15.4796   26.9923 C.ar    1  UNL1        0.0205
     15 C          -6.6792  -15.3972   27.3627 C.ar    1  UNL1        0.1013
     16 N          -5.6278  -15.4615   26.2948 N.ar    1  UNL1       -0.2167
     17 C          -6.0276  -15.6081   24.8565 C.ar    1  UNL1        0.2185
     18 F          -4.9761  -15.6723   23.7887 F       1  UNL1       -0.1835
     19 C          -6.5536  -18.7224   22.2938 C.3     1  UNL1        0.0499
     20 C          -5.8383  -19.1208   21.0370 C.3     1  UNL1        0.0774
     21 N          -4.3865  -18.7868   20.8622 N.3     1  UNL1       -0.2700
     22 C          -3.5562  -18.4053   22.0518 C.3     1  UNL1        0.0897
     23 C          -3.7650  -18.8341   19.4978 C.3     1  UNL1        0.0897
@<TRIPOS>BOND
     1    11    10    1
     2    11    12    1
     3    12    13   ar
     4    13    14   ar
     5    14    15   ar
     6    15    16   ar
     7    16    17   ar
     8    17    18    1
     9    11     1    1
    10     1     2   ar
    11     2    19    1
    12    19    20    1
    13    20    21    1
    14    21    22    1
    15    21    23    1
    16     2     3   ar
    17     3     4   ar
    18     4     5   ar
    19     5     6   ar
    20     6     7   ar
    21     7     8   ar
    22     8     9   ar
    23    17    12   ar
    24     9     1   ar
    25     9     4   ar
@<TRIPOS>MOLECULE
*****
 23 25 0 0 0
SMALL
GASTEIGER

@<TRIPOS>ATOM
      1 C          -8.0831  -18.5310   22.4918 C.ar    1  UNL1       -0.0158
      2 C          -7.4939  -17.3636   23.2266 C.ar    1  UNL1        0.0050
      3 S          -6.0176  -17.3463   22.9614 S.2     1  UNL1       -0.0915
      4 C          -5.6945  -18.5029   22.0626 C.ar    1  UNL1        0.0288
      5 C          -4.4028  -18.9840   21.4710 C.ar    1  UNL1        0.0065
      6 C          -4.3876  -20.1973   20.5892 C.ar    1  UNL1        0.0005
      7 C          -5.6642  -20.9295   20.2990 C.ar    1  UNL1        0.0000
      8 C          -6.9559  -20.4485   20.8906 C.ar    1  UNL1        0.0002
      9 C          -6.9710  -19.2352   21.7724 C.ar    1  UNL1        0.0025
     10 C          -9.9646  -20.2065   23.1264 C.3     1  UNL1        0.0095
     11 C          -9.5303  -18.9251   22.4787 C.3     1  UNL1        0.0485
     12 C         -10.5433  -18.0380   21.8178 C.ar    1  UNL1        0.0275
     13 C         -11.4118  -17.1417   22.6500 C.ar    1  UNL1        0.0014
     14 C         -12.4248  -16.2545   21.9892 C.ar    1  UNL1        0.0205
     15 C         -12.5694  -16.2636   20.4961 C.ar    1  UNL1        0.1013
     16 N         -11.7009  -17.1599   19.6640 N.ar    1  UNL1       -0.2167
     17 C         -10.6879  -18.0471   20.3248 C.ar    1  UNL1        0.2185
     18 F          -9.8195  -18.9433   19.4926 F       1  UNL1       -0.1835
     19 C          -8.2484  -16.3853   24.0773 C.3     1  UNL1        0.0499
     20 C          -7.5352  -15.2145   24.6858 C.3     1  UNL1        0.0774
     21 N          -6.8583  -15.3576   26.0167 N.3     1  UNL1       -0.2700
     22 C          -7.6753  -15.5978   27.2517 C.3     1  UNL1        0.0897
     23 C          -5.3646  -15.2607   26.1128 C.3     1  UNL1        0.0897
@<TRIPOS>BOND
     1    11    10    1
     2    11    12    1
     3    12    13   ar
     4    13    14   ar
     5    14    15   ar
     6    15    16   ar
     7    16    17   ar
     8    17    18    1
     9    11     1    1
    10     1     2   ar
    11     2    19    1
    12    19    20    1
    13    20    21    1
    14    21    22    1
    15    21    23    1
    16     2     3   ar
    17     3     4   ar
    18     4     5   ar
    19     5     6   ar
    20     6     7   ar
    21     7     8   ar
    22     8     9   ar
    23    17    12   ar
    24     9     1   ar
    25     9     4   ar
@<TRIPOS>MOLECULE
*****
 23 25 0 0 0
SMALL
GASTEIGER

@<TRIPOS>ATOM
      1 C          -7.8949  -17.3662   22.2768 C.ar    1  UNL1       -0.0158
      2 C          -9.1324  -18.0068   21.7215 C.ar    1  UNL1        0.0050
      3 S          -8.7475  -19.3383   21.1479 S.2     1  UNL1       -0.0915
      4 C          -7.2722  -19.5206   21.3486 C.ar    1  UNL1        0.0288
      5 C          -6.3407  -20.6389   20.9863 C.ar    1  UNL1        0.0065
      6 C          -4.8821  -20.5385   21.3216 C.ar    1  UNL1        0.0005
      7 C          -4.3552  -19.3197   22.0193 C.ar    1  UNL1        0.0000
      8 C          -5.2868  -18.2013   22.3817 C.ar    1  UNL1        0.0002
      9 C          -6.7453  -18.3018   22.0464 C.ar    1  UNL1        0.0025
     10 C          -8.0655  -14.7767   22.1510 C.3     1  UNL1        0.0095
     11 C          -7.8202  -16.0255   22.9452 C.3     1  UNL1        0.0485
     12 C          -7.5001  -15.9333   24.4077 C.ar    1  UNL1        0.0275
     13 C          -8.5455  -16.2763   25.4273 C.ar    1  UNL1        0.0014
     14 C          -8.2255  -16.1841   26.8899 C.ar    1  UNL1        0.0205
     15 C          -6.8601  -15.7489   27.3329 C.ar    1  UNL1        0.1013
     16 N          -5.8147  -15.4059   26.3133 N.ar    1  UNL1       -0.2167
     17 C          -6.1347  -15.4981   24.8507 C.ar    1  UNL1        0.2185
     18 F          -5.0893  -15.1551   23.8312 F       1  UNL1       -0.1835
     19 C         -10.5124  -17.4191   21.7371 C.3     1  UNL1        0.0499
     20 C         -11.6942  -18.2882   22.0500 C.3     1  UNL1        0.0774
     21 N         -12.2068  -18.3791   23.4568 N.3     1  UNL1       -0.2700
     22 C         -13.6182  -17.9776   23.7682 C.3     1  UNL1        0.0897
     23 C         -11.3081  -18.8715   24.5521 C.3     1  UNL1        0.0897
@<TRIPOS>BOND
     1    11    10    1
     2    11    12    1
     3    12    13   ar
     4    13    14   ar
     5    14    15   ar
     6    15    16   ar
     7    16    17   ar
     8    17    18    1
     9    11     1    1
    10     1     2   ar
    11     2    19    1
    12    19    20    1
    13    20    21    1
    14    21    22    1
    15    21    23    1
    16     2     3   ar
    17     3     4   ar
    18     4     5   ar
    19     5     6   ar
    20     6     7   ar
    21     7     8   ar
    22     8     9   ar
    23    17    12   ar
    24     9     1   ar
    25     9     4   ar
@<TRIPOS>MOLECULE
*****
 23 25 0 0 0
SMALL
GASTEIGER

@<TRIPOS>ATOM
      1 C          -7.2854  -18.5736   21.8569 C.ar    1  UNL1       -0.0158
      2 C          -6.9032  -17.5102   22.8433 C.ar    1  UNL1        0.0050
      3 S          -5.4084  -17.5095   22.9682 S.2     1  UNL1       -0.0915
      4 C          -4.8668  -18.5724   22.0589 C.ar    1  UNL1        0.0288
      5 C          -3.4671  -19.0264   21.7676 C.ar    1  UNL1        0.0065
      6 C          -3.2276  -20.1381   20.7895 C.ar    1  UNL1        0.0005
      7 C          -4.3876  -20.7957   20.1026 C.ar    1  UNL1        0.0000
      8 C          -5.7872  -20.3417   20.3939 C.ar    1  UNL1        0.0002
      9 C          -6.0268  -19.2301   21.3721 C.ar    1  UNL1        0.0025
     10 C          -8.9548  -19.3141   20.0089 C.3     1  UNL1        0.0095
     11 C          -8.6811  -18.9197   21.4301 C.3     1  UNL1        0.0485
     12 C          -9.8031  -18.8715   22.4243 C.ar    1  UNL1        0.0275
     13 C         -10.9227  -17.8894   22.2448 C.ar    1  UNL1        0.0014
     14 C         -12.0448  -17.8411   23.2391 C.ar    1  UNL1        0.0205
     15 C         -12.0474  -18.7751   24.4129 C.ar    1  UNL1        0.1013
     16 N         -10.9279  -19.7571   24.5924 N.ar    1  UNL1       -0.2167
     17 C          -9.8058  -19.8054   23.5982 C.ar    1  UNL1        0.2185
     18 F          -8.6864  -20.7875   23.7778 F       1  UNL1       -0.1835
     19 C          -7.8496  -16.6062   23.5763 C.3     1  UNL1        0.0499
     20 C          -7.3328  -15.3758   24.2609 C.3     1  UNL1        0.0774
     21 N          -6.9592  -15.4262   25.7128 N.3     1  UNL1       -0.2700
     22 C          -5.5160  -15.3722   26.1182 C.3     1  UNL1        0.0897
     23 C          -8.0288  -15.5307   26.7592 C.3     1  UNL1        0.0897
@<TRIPOS>BOND
     1    11    10    1
     2    11    12    1
     3    12    13   ar
     4    13    14   ar
     5    14    15   ar
     6    15    16   ar
     7    16    17   ar
     8    17    18    1
     9    11     1    1
    10     1     2   ar
    11     2    19    1
    12    19    20    1
    13    20    21    1
    14    21    22    1
    15    21    23    1
    16     2     3   ar
    17     3     4   ar
    18     4     5   ar
    19     5     6   ar
    20     6     7   ar
    21     7     8   ar
    22     8     9   ar
    23    17    12   ar
    24     9     1   ar
    25     9     4   ar
@<TRIPOS>MOLECULE
*****
 23 25 0 0 0
SMALL
GASTEIGER

@<TRIPOS>ATOM
      1 C          -7.1535  -17.5451   22.6377 C.ar    1  UNL1       -0.0158
      2 C          -8.1081  -18.5809   22.1221 C.ar    1  UNL1        0.0050
      3 S          -7.3051  -19.7545   21.6448 S.2     1  UNL1       -0.0915
      4 C          -5.8543  -19.4440   21.8653 C.ar    1  UNL1        0.0288
      5 C          -4.6064  -20.2282   21.5866 C.ar    1  UNL1        0.0065
      6 C          -3.2648  -19.6470   21.9215 C.ar    1  UNL1        0.0005
      7 C          -3.1711  -18.2814   22.5352 C.ar    1  UNL1        0.0000
      8 C          -4.4190  -17.4972   22.8139 C.ar    1  UNL1        0.0002
      9 C          -5.7606  -18.0785   22.4789 C.ar    1  UNL1        0.0025
     10 C          -8.0550  -15.1298   22.3148 C.3     1  UNL1        0.0095
     11 C          -7.5264  -16.2102   23.2113 C.3     1  UNL1        0.0485
     12 C          -7.3708  -15.9556   24.6812 C.ar    1  UNL1        0.0275
     13 C          -8.4689  -16.3376   25.6290 C.ar    1  UNL1        0.0014
     14 C          -8.3134  -16.0830   27.0990 C.ar    1  UNL1        0.0205
     15 C          -7.0596  -15.4463   27.6213 C.ar    1  UNL1        0.1013
     16 N          -5.9615  -15.0643   26.6736 N.ar    1  UNL1       -0.2167
     17 C          -6.1171  -15.3189   25.2036 C.ar    1  UNL1        0.2185
     18 F          -5.0189  -14.9369   24.2559 F       1  UNL1       -0.1835
     19 C          -9.6032  -18.4638   22.0897 C.3     1  UNL1        0.0499
     20 C         -10.2873  -17.9312   20.8656 C.3     1  UNL1        0.0774
     21 N         -11.1342  -16.6966   20.9570 N.3     1  UNL1       -0.2700
     22 C         -11.6409  -16.2316   22.2901 C.3     1  UNL1        0.0897
     23 C         -11.4744  -15.9268   19.7154 C.3     1  UNL1        0.0897
@<TRIPOS>BOND
     1    11    10    1
     2    11    12    1
     3    12    13   ar
     4    13    14   ar
     5    14    15   ar
     6    15    16   ar
     7    16    17   ar
     8    17    18    1
     9    11     1    1
    10     1     2   ar
    11     2    19    1
    12    19    20    1
    13    20    21    1
    14    21    22    1
    15    21    23    1
    16     2     3   ar
    17     3     4   ar
    18     4     5   ar
    19     5     6   ar
    20     6     7   ar
    21     7     8   ar
    22     8     9   ar
    23    17    12   ar
    24     9     1   ar
    25     9     4   ar
@<TRIPOS>MOLECULE
*****
 23 25 0 0 0
SMALL
GASTEIGER

@<TRIPOS>ATOM
      1 C          -5.8609  -18.5813   22.3000 C.ar    1  UNL1       -0.0158
      2 C          -4.3819  -18.6828   22.5285 C.ar    1  UNL1        0.0050
      3 S          -3.9671  -17.5326   23.3974 S.2     1  UNL1       -0.0915
      4 C          -5.1898  -16.7203   23.7060 C.ar    1  UNL1        0.0288
      5 C          -5.3885  -15.4742   24.5169 C.ar    1  UNL1        0.0065
      6 C          -6.7577  -14.8762   24.6496 C.ar    1  UNL1        0.0005
      7 C          -7.9282  -15.5243   23.9713 C.ar    1  UNL1        0.0000
      8 C          -7.7294  -16.7704   23.1604 C.ar    1  UNL1        0.0002
      9 C          -6.3602  -17.3684   23.0277 C.ar    1  UNL1        0.0025
     10 C          -6.0597  -20.3375   20.3957 C.3     1  UNL1        0.0095
     11 C          -6.6943  -19.5267   21.4866 C.3     1  UNL1        0.0485
     12 C          -8.1622  -19.6614   21.7640 C.ar    1  UNL1        0.0275
     13 C          -8.6326  -20.0904   23.1223 C.ar    1  UNL1        0.0014
     14 C         -10.1005  -20.2251   23.3998 C.ar    1  UNL1        0.0205
     15 C         -11.0981  -19.9308   22.3189 C.ar    1  UNL1        0.1013
     16 N         -10.6278  -19.5019   20.9607 N.ar    1  UNL1       -0.2167
     17 C          -9.1599  -19.3671   20.6832 C.ar    1  UNL1        0.2185
     18 F          -8.6896  -18.9382   19.3250 F       1  UNL1       -0.1835
     19 C          -3.4766  -19.7475   21.9837 C.3     1  UNL1        0.0499
     20 C          -2.1794  -19.3683   21.3330 C.3     1  UNL1        0.0774
     21 N          -2.1460  -18.2719   20.3098 N.3     1  UNL1       -0.2700
     22 C          -3.0095  -18.3610   19.0865 C.3     1  UNL1        0.0897
     23 C          -1.2490  -17.0864   20.5100 C.3     1  UNL1        0.0897
@<TRIPOS>BOND
     1    11    10    1
     2    11    12    1
     3    12    13   ar
     4    13    14   ar
     5    14    15   ar
     6    15    16   ar
     7    16    17   ar
     8    17    18    1
     9    11     1    1
    10     1     2   ar
    11     2    19    1
    12    19    20    1
    13    20    21    1
    14    21    22    1
    15    21    23    1
    16     2     3   ar
    17     3     4   ar
    18     4     5   ar
    19     5     6   ar
    20     6     7   ar
    21     7     8   ar
    22     8     9   ar
    23    17    12   ar
    24     9     1   ar
    25     9     4   ar
@<TRIPOS>MOLECULE
*****
 23 25 0 0 0
SMALL
GASTEIGER

@<TRIPOS>ATOM
      1 C          -8.0106  -18.0652   22.9212 C.ar    1  UNL1       -0.0158
      2 C          -6.7647  -18.4024   22.1570 C.ar    1  UNL1        0.0050
      3 S          -5.6434  -17.5735   22.7097 S.2     1  UNL1       -0.0915
      4 C          -6.1963  -16.7240   23.8155 C.ar    1  UNL1        0.0288
      5 C          -5.5566  -15.7130   24.7202 C.ar    1  UNL1        0.0065
      6 C          -6.3799  -15.0059   25.7556 C.ar    1  UNL1        0.0005
      7 C          -7.8430  -15.3099   25.8863 C.ar    1  UNL1        0.0000
      8 C          -8.4827  -16.3209   24.9816 C.ar    1  UNL1        0.0002
      9 C          -7.6594  -17.0279   23.9462 C.ar    1  UNL1        0.0025
     10 C          -9.6663  -20.0509   23.1787 C.3     1  UNL1        0.0095
     11 C          -9.3694  -18.6608   22.6994 C.3     1  UNL1        0.0485
     12 C         -10.4311  -17.8665   21.9983 C.ar    1  UNL1        0.0275
     13 C         -11.3050  -16.9296   22.7785 C.ar    1  UNL1        0.0014
     14 C         -12.3668  -16.1353   22.0774 C.ar    1  UNL1        0.0205
     15 C         -12.5548  -16.2778   20.5961 C.ar    1  UNL1        0.1013
     16 N         -11.6810  -17.2146   19.8159 N.ar    1  UNL1       -0.2167
     17 C         -10.6191  -18.0090   20.5169 C.ar    1  UNL1        0.2185
     18 F          -9.7454  -18.9458   19.7367 F       1  UNL1       -0.1835
     19 C          -6.6587  -19.3944   21.0368 C.3     1  UNL1        0.0499
     20 C          -5.8509  -19.0644   19.8168 C.3     1  UNL1        0.0774
     21 N          -4.3839  -19.3756   19.7819 N.3     1  UNL1       -0.2700
     22 C          -3.8992  -20.7467   20.1498 C.3     1  UNL1        0.0897
     23 C          -3.4018  -18.3159   19.3791 C.3     1  UNL1        0.0897
@<TRIPOS>BOND
     1    11    10    1
     2    11    12    1
     3    12    13   ar
     4    13    14   ar
     5    14    15   ar
     6    15    16   ar
     7    16    17   ar
     8    17    18    1
     9    11     1    1
    10     1     2   ar
    11     2    19    1
    12    19    20    1
    13    20    21    1
    14    21    22    1
    15    21    23    1
    16     2     3   ar
    17     3     4   ar
    18     4     5   ar
    19     5     6   ar
    20     6     7   ar
    21     7     8   ar
    22     8     9   ar
    23    17    12   ar
    24     9     1   ar
    25     9     4   ar
@<TRIPOS>MOLECULE
*****
 23 25 0 0 0
SMALL
GASTEIGER

@<TRIPOS>ATOM
      1 C          -8.5755  -17.1691   23.8169 C.ar    1  UNL1       -0.0158
      2 C          -9.6578  -18.0071   24.4302 C.ar    1  UNL1        0.0050
      3 S          -9.6243  -17.7936   25.9146 S.2     1  UNL1       -0.0915
      4 C          -8.5212  -16.8236   26.2186 C.ar    1  UNL1        0.0288
      5 C          -8.0233  -16.2419   27.5084 C.ar    1  UNL1        0.0065
      6 C          -6.8772  -15.2743   27.5017 C.ar    1  UNL1        0.0005
      7 C          -6.2290  -14.8884   26.2052 C.ar    1  UNL1        0.0000
      8 C          -6.7269  -15.4701   24.9154 C.ar    1  UNL1        0.0002
      9 C          -7.8730  -16.4377   24.9221 C.ar    1  UNL1        0.0025
     10 C          -8.6356  -15.8548   21.5765 C.3     1  UNL1        0.0095
     11 C          -8.2523  -17.0785   22.3549 C.3     1  UNL1        0.0485
     12 C          -7.5458  -18.2114   21.6713 C.ar    1  UNL1        0.0275
     13 C          -8.2587  -19.0190   20.6274 C.ar    1  UNL1        0.0014
     14 C          -7.5523  -20.1519   19.9437 C.ar    1  UNL1        0.0205
     15 C          -6.1329  -20.4773   20.3039 C.ar    1  UNL1        0.1013
     16 N          -5.4201  -19.6697   21.3477 N.ar    1  UNL1       -0.2167
     17 C          -6.1265  -18.5367   22.0314 C.ar    1  UNL1        0.2185
     18 F          -5.4136  -17.7292   23.0752 F       1  UNL1       -0.1835
     19 C         -10.6070  -18.9016   23.6894 C.3     1  UNL1        0.0499
     20 C         -11.9387  -18.3757   23.2420 C.3     1  UNL1        0.0774
     21 N         -12.0122  -17.3587   22.1419 N.3     1  UNL1       -0.2700
     22 C         -12.2804  -15.9193   22.4679 C.3     1  UNL1        0.0897
     23 C         -11.8177  -17.7811   20.7158 C.3     1  UNL1        0.0897
@<TRIPOS>BOND
     1    11    10    1
     2    11    12    1
     3    12    13   ar
     4    13    14   ar
     5    14    15   ar
     6    15    16   ar
     7    16    17   ar
     8    17    18    1
     9    11     1    1
    10     1     2   ar
    11     2    19    1
    12    19    20    1
    13    20    21    1
    14    21    22    1
    15    21    23    1
    16     2     3   ar
    17     3     4   ar
    18     4     5   ar
    19     5     6   ar
    20     6     7   ar
    21     7     8   ar
    22     8     9   ar
    23    17    12   ar
    24     9     1   ar
    25     9     4   ar
@<TRIPOS>MOLECULE
*****
 23 25 0 0 0
SMALL
GASTEIGER

@<TRIPOS>ATOM
      1 C          -6.4520  -18.5968   21.6853 C.ar    1  UNL1       -0.0158
      2 C          -7.9176  -18.4124   21.4243 C.ar    1  UNL1        0.0050
      3 S          -8.4120  -17.3112   22.3148 S.2     1  UNL1       -0.0915
      4 C          -7.2520  -16.8150   23.1261 C.ar    1  UNL1        0.0288
      5 C          -7.1422  -15.7424   24.1688 C.ar    1  UNL1        0.0065
      6 C          -5.8211  -15.4643   24.8225 C.ar    1  UNL1        0.0005
      7 C          -4.6098  -16.2588   24.4334 C.ar    1  UNL1        0.0000
      8 C          -4.7195  -17.3314   23.3907 C.ar    1  UNL1        0.0002
      9 C          -6.0406  -17.6095   22.7370 C.ar    1  UNL1        0.0025
     10 C          -6.0520  -20.9811   20.7339 C.3     1  UNL1        0.0095
     11 C          -5.5552  -19.5934   21.0126 C.3     1  UNL1        0.0485
     12 C          -4.1618  -19.2024   20.6185 C.ar    1  UNL1        0.0275
     13 C          -3.9230  -18.4780   19.3269 C.ar    1  UNL1        0.0014
     14 C          -2.5295  -18.0870   18.9327 C.ar    1  UNL1        0.0205
     15 C          -1.3748  -18.4205   19.8303 C.ar    1  UNL1        0.1013
     16 N          -1.6136  -19.1449   21.1218 N.ar    1  UNL1       -0.2167
     17 C          -3.0071  -19.5359   21.5160 C.ar    1  UNL1        0.2185
     18 F          -3.2458  -20.2603   22.8076 F       1  UNL1       -0.1835
     19 C          -8.7437  -19.1923   20.4449 C.3     1  UNL1        0.0499
     20 C         -10.1766  -19.5080   20.7563 C.3     1  UNL1        0.0774
     21 N         -11.1856  -18.4019   20.8479 N.3     1  UNL1       -0.2700
     22 C         -11.2816  -17.3817   19.7524 C.3     1  UNL1        0.0897
     23 C         -12.0986  -18.3159   22.0349 C.3     1  UNL1        0.0897
@<TRIPOS>BOND
     1    11    10    1
     2    11    12    1
     3    12    13   ar
     4    13    14   ar
     5    14    15   ar
     6    15    16   ar
     7    16    17   ar
     8    17    18    1
     9    11     1    1
    10     1     2   ar
    11     2    19    1
    12    19    20    1
    13    20    21    1
    14    21    22    1
    15    21    23    1
    16     2     3   ar
    17     3     4   ar
    18     4     5   ar
    19     5     6   ar
    20     6     7   ar
    21     7     8   ar
    22     8     9   ar
    23    17    12   ar
    24     9     1   ar
    25     9     4   ar
