@<TRIPOS>MOLECULE
*****
 30 34 0 0 0
SMALL
GASTEIGER

@<TRIPOS>ATOM
      1 C          -9.2795  -18.5041   21.2440 C.2     1  UNL1        0.3810
      2 N          -8.8681  -19.6122   20.3205 N.2     1  UNL1       -0.0328
      3 C          -7.3938  -19.8318   20.4878 C.2     1  UNL1        0.2318
      4 C          -6.4419  -20.7916   19.8377 C.2     1  UNL1        0.0495
      5 C          -4.9901  -20.7790   20.2146 C.2     1  UNL1       -0.0028
      6 C          -4.4902  -19.8067   21.2415 C.2     1  UNL1       -0.0198
      7 C          -5.4421  -18.8469   21.8916 C.3     1  UNL1        0.1011
      8 C          -6.8939  -18.8595   21.5147 C.2     1  UNL1        0.2172
      9 N          -8.0593  -18.0389   21.9821 N.2     1  UNL1       -0.0367
     10 C         -11.0420  -16.6991   22.1275 C.2     1  UNL1        0.0863
     11 C         -12.5304  -16.5367   22.0358 C.2     1  UNL1        0.1346
     12 N         -13.0756  -17.6945   21.2533 N.2     1  UNL1       -0.1491
     13 N         -11.9241  -18.5724   20.8615 N.2     1  UNL1       -0.1576
     14 C         -10.6673  -17.9572   21.4018 C.3     1  UNL1        0.2726
     15 O          -9.9140  -17.4321   24.8091 O.2     1  UNL1       -0.2525
     16 C          -9.5307  -16.1333   24.1637 C.2     1  UNL1        0.3043
     17 N         -10.0947  -15.7669   22.8230 N.am    1  UNL1       -0.2682
     18 N          -8.5833  -15.2012   24.8591 N.am    1  UNL1       -0.2903
     19 H          -9.8430  -14.9145   22.3994 H       1  UNL1        0.1562
     20 H          -8.3317  -14.3488   24.4356 H       1  UNL1        0.1509
     21 C          -8.0194  -15.5677   26.1998 C.3     1  UNL1        0.0732
     22 C          -6.9041  -15.5056   27.2011 C.3     1  UNL1        0.0213
     23 C          -8.1577  -16.2646   27.5210 C.3     1  UNL1        0.0213
     24 C          -3.0383  -19.7941   21.6184 C.3     1  UNL1        0.0954
     25 N          -2.1680  -18.6418   21.2125 N.3     1  UNL1       -0.2649
     26 C          -1.1050  -18.8349   20.1719 C.3     1  UNL1        0.1049
     27 C          -0.2347  -17.6825   19.7661 C.3     1  UNL1        0.1595
     28 O          -0.4274  -16.3371   20.4007 O.3     1  UNL1       -0.3508
     29 C          -1.4905  -16.1441   21.4412 C.3     1  UNL1        0.1595
     30 C          -2.3607  -17.2964   21.8471 C.3     1  UNL1        0.1049
@<TRIPOS>BOND
     1    15    16    2
     2    16    17   am
     3    17    10    1
     4    10    11    2
     5    11    12    1
     6    12    13    2
     7    13    14    1
     8    14     1    1
     9     1     2    2
    10     2     3    1
    11     3     4    2
    12     4     5    1
    13     5     6    2
    14     6    24    1
    15    24    25    1
    16    25    26    1
    17    26    27    1
    18    27    28    1
    19    28    29    1
    20    29    30    1
    21     6     7    1
    22     7     8    1
    23     8     9    2
    24    16    18   am
    25    18    21    1
    26    21    22    1
    27    22    23    1
    28    14    10    1
    29     9     1    1
    30    23    21    1
    31     8     3    1
    32    30    25    1
    33    17    19    1
    34    18    20    1
@<TRIPOS>MOLECULE
*****
 30 34 0 0 0
SMALL
GASTEIGER

@<TRIPOS>ATOM
      1 C          -5.2895  -19.1768   20.8876 C.2     1  UNL1        0.3810
      2 N          -5.9803  -19.8931   19.7652 N.2     1  UNL1       -0.0328
      3 C          -7.4481  -19.5994   19.8617 C.2     1  UNL1        0.2318
      4 C          -8.6156  -20.0336   19.0260 C.2     1  UNL1        0.0495
      5 C          -9.9994  -19.5699   19.3723 C.2     1  UNL1       -0.0028
      6 C         -10.2158  -18.6721   20.5543 C.2     1  UNL1       -0.0198
      7 C          -9.0483  -18.2380   21.3900 C.3     1  UNL1        0.1011
      8 C          -7.6645  -18.7017   21.0437 C.2     1  UNL1        0.2172
      9 N          -6.3304  -18.4405   21.6777 N.2     1  UNL1       -0.0367
     10 C          -3.0298  -18.0921   21.8161 C.2     1  UNL1        0.0863
     11 C          -1.5985  -18.5329   21.9016 C.2     1  UNL1        0.1346
     12 N          -1.5007  -19.9072   21.3085 N.2     1  UNL1       -0.1491
     13 N          -2.8714  -20.3157   20.8564 N.2     1  UNL1       -0.1576
     14 C          -3.8164  -19.1938   21.1702 C.3     1  UNL1        0.2726
     15 O          -4.6202  -17.9649   24.3567 O.2     1  UNL1       -0.2525
     16 C          -4.3732  -16.7162   23.5631 C.2     1  UNL1        0.3043
     17 N          -3.5780  -16.7798   22.2929 N.am    1  UNL1       -0.2682
     18 N          -4.9214  -15.4039   24.0399 N.am    1  UNL1       -0.2903
     19 H          -3.4159  -15.9602   21.7721 H       1  UNL1        0.1562
     20 H          -4.7594  -14.5843   23.5191 H       1  UNL1        0.1509
     21 C          -5.7166  -15.3403   25.3102 C.3     1  UNL1        0.0732
     22 C          -7.0223  -15.4864   26.0342 C.3     1  UNL1        0.0213
     23 C          -5.7885  -15.0841   26.7864 C.3     1  UNL1        0.0213
     24 C         -11.5997  -18.2085   20.9005 C.3     1  UNL1        0.0954
     25 N         -12.1047  -18.3396   22.3068 N.3     1  UNL1       -0.2649
     26 C         -13.4602  -17.8094   22.6695 C.3     1  UNL1        0.1049
     27 C         -13.9652  -17.9406   24.0759 C.3     1  UNL1        0.1595
     28 O         -13.1147  -18.6020   25.1195 O.3     1  UNL1       -0.3508
     29 C         -11.7592  -19.1322   24.7569 C.3     1  UNL1        0.1595
     30 C         -11.2542  -19.0010   23.3506 C.3     1  UNL1        0.1049
@<TRIPOS>BOND
     1    15    16    2
     2    16    17   am
     3    17    10    1
     4    10    11    2
     5    11    12    1
     6    12    13    2
     7    13    14    1
     8    14     1    1
     9     1     2    2
    10     2     3    1
    11     3     4    2
    12     4     5    1
    13     5     6    2
    14     6    24    1
    15    24    25    1
    16    25    26    1
    17    26    27    1
    18    27    28    1
    19    28    29    1
    20    29    30    1
    21     6     7    1
    22     7     8    1
    23     8     9    2
    24    16    18   am
    25    18    21    1
    26    21    22    1
    27    22    23    1
    28    14    10    1
    29     9     1    1
    30    23    21    1
    31     8     3    1
    32    30    25    1
    33    17    19    1
    34    18    20    1
@<TRIPOS>MOLECULE
*****
 30 34 0 0 0
SMALL
GASTEIGER

@<TRIPOS>ATOM
      1 C           8.1332   -9.1456   27.6008 C.2     1  UNL1        0.3810
      2 N           8.7931   -8.0473   28.3806 N.2     1  UNL1       -0.0328
      3 C           8.3990   -6.7386   27.7626 C.2     1  UNL1        0.2318
      4 C           8.7461   -5.3207   28.1078 C.2     1  UNL1        0.0495
      5 C           8.1897   -4.1923   27.2910 C.2     1  UNL1       -0.0028
      6 C           7.2863   -4.4818   26.1291 C.2     1  UNL1       -0.0198
      7 C           6.9392   -5.8997   25.7840 C.3     1  UNL1        0.1011
      8 C           7.4956   -7.0280   26.6008 C.2     1  UNL1        0.2172
      9 N           7.3313   -8.5157   26.5007 N.2     1  UNL1       -0.0367
     10 C           7.1156  -11.5762   28.0496 C.2     1  UNL1        0.0863
     11 C           7.6925  -12.9376   28.3023 C.2     1  UNL1        0.1346
     12 N           9.1876  -12.8185   28.2819 N.2     1  UNL1       -0.1491
     13 N           9.5347  -11.3835   28.0166 N.2     1  UNL1       -0.1576
     14 C           8.2541  -10.6157   27.8731 C.3     1  UNL1        0.2726
     15 O           5.0644  -13.5945   28.8978 O.2     1  UNL1       -0.2525
     16 C           4.6307  -12.2443   28.4089 C.2     1  UNL1        0.3043
     17 N           5.6563  -11.2353   27.9849 N.am    1  UNL1       -0.2682
     18 N           3.1714  -11.9033   28.3441 N.am    1  UNL1       -0.2903
     19 H           5.3716  -10.3491   27.6640 H       1  UNL1        0.1562
     20 H           2.8867  -11.0172   28.0233 H       1  UNL1        0.1509
     21 C           2.1459  -12.9125   28.7682 C.3     1  UNL1        0.0732
     22 C           1.1644  -13.9923   28.4203 C.3     1  UNL1        0.0213
     23 C           1.3509  -13.5807   29.8506 C.3     1  UNL1        0.0213
     24 C           6.7299   -3.3533   25.3124 C.3     1  UNL1        0.0954
     25 N           6.4500   -3.5513   23.8521 N.3     1  UNL1       -0.2649
     26 C           7.5738   -3.8619   22.9084 C.3     1  UNL1        0.1049
     27 C           7.2938   -4.0599   21.4481 C.3     1  UNL1        0.1595
     28 O           5.8901   -3.9472   20.9315 O.3     1  UNL1       -0.3508
     29 C           4.7663   -3.6366   21.8752 C.3     1  UNL1        0.1595
     30 C           5.0462   -3.4386   23.3355 C.3     1  UNL1        0.1049
@<TRIPOS>BOND
     1    15    16    2
     2    16    17   am
     3    17    10    1
     4    10    11    2
     5    11    12    1
     6    12    13    2
     7    13    14    1
     8    14     1    1
     9     1     2    2
    10     2     3    1
    11     3     4    2
    12     4     5    1
    13     5     6    2
    14     6    24    1
    15    24    25    1
    16    25    26    1
    17    26    27    1
    18    27    28    1
    19    28    29    1
    20    29    30    1
    21     6     7    1
    22     7     8    1
    23     8     9    2
    24    16    18   am
    25    18    21    1
    26    21    22    1
    27    22    23    1
    28    14    10    1
    29     9     1    1
    30    23    21    1
    31     8     3    1
    32    30    25    1
    33    17    19    1
    34    18    20    1
@<TRIPOS>MOLECULE
*****
 30 34 0 0 0
SMALL
GASTEIGER

@<TRIPOS>ATOM
      1 C           5.1633   -1.8521   26.2398 C.2     1  UNL1        0.3810
      2 N           4.1021   -0.8645   25.8544 N.2     1  UNL1       -0.0328
      3 C           3.7948   -1.0585   24.3991 C.2     1  UNL1        0.2318
      4 C           2.8342   -0.3697   23.4756 C.2     1  UNL1        0.0495
      5 C           2.7449   -0.7885   22.0380 C.2     1  UNL1       -0.0028
      6 C           3.6162   -1.8960   21.5239 C.2     1  UNL1       -0.0198
      7 C           4.5768   -2.5848   22.4474 C.3     1  UNL1        0.1011
      8 C           4.6661   -2.1660   23.8850 C.2     1  UNL1        0.2172
      9 N           5.5118   -2.6565   25.0226 N.2     1  UNL1       -0.0367
     10 C           6.1490   -3.3039   28.2562 C.2     1  UNL1        0.0863
     11 C           6.7166   -2.9922   29.6092 C.2     1  UNL1        0.1346
     12 N           6.6879   -1.5036   29.7922 N.2     1  UNL1       -0.1491
     13 N           6.1025   -0.8954   28.5523 N.2     1  UNL1       -0.1576
     14 C           5.7694   -2.0080   27.6030 C.3     1  UNL1        0.2726
     15 O           8.2780   -4.4160   26.4589 O.2     1  UNL1       -0.2525
     16 C           7.0534   -5.2275   26.7623 C.2     1  UNL1        0.3043
     17 N           5.9890   -4.6714   27.6609 N.am    1  UNL1       -0.2682
     18 N           6.8934   -6.5950   26.1671 N.am    1  UNL1       -0.2903
     19 H           5.1853   -5.2039   27.8601 H       1  UNL1        0.1562
     20 H           6.0897   -7.1276   26.3662 H       1  UNL1        0.1509
     21 C           7.9579   -7.1510   25.2684 C.3     1  UNL1        0.0732
     22 C           8.5024   -7.3863   23.8906 C.3     1  UNL1        0.0213
     23 C           9.2573   -7.8789   25.0896 C.3     1  UNL1        0.0213
     24 C           3.5269   -2.3147   20.0863 C.3     1  UNL1        0.0954
     25 N           4.5738   -1.8692   19.1089 N.3     1  UNL1       -0.2649
     26 C           4.3147   -0.6910   18.2175 C.3     1  UNL1        0.1049
     27 C           5.3618   -0.2454   17.2400 C.3     1  UNL1        0.1595
     28 O           6.6678   -0.9780   17.1541 O.3     1  UNL1       -0.3508
     29 C           6.9269   -2.1562   18.0455 C.3     1  UNL1        0.1595
     30 C           5.8800   -2.6018   19.0229 C.3     1  UNL1        0.1049
@<TRIPOS>BOND
     1    15    16    2
     2    16    17   am
     3    17    10    1
     4    10    11    2
     5    11    12    1
     6    12    13    2
     7    13    14    1
     8    14     1    1
     9     1     2    2
    10     2     3    1
    11     3     4    2
    12     4     5    1
    13     5     6    2
    14     6    24    1
    15    24    25    1
    16    25    26    1
    17    26    27    1
    18    27    28    1
    19    28    29    1
    20    29    30    1
    21     6     7    1
    22     7     8    1
    23     8     9    2
    24    16    18   am
    25    18    21    1
    26    21    22    1
    27    22    23    1
    28    14    10    1
    29     9     1    1
    30    23    21    1
    31     8     3    1
    32    30    25    1
    33    17    19    1
    34    18    20    1
