@<TRIPOS>MOLECULE
*****
 29 32 0 0 0
SMALL
GASTEIGER

@<TRIPOS>ATOM
      1 N          -8.2598  -18.4006   22.3255 N.pl3   1  UNL1       -0.2860
      2 C          -9.6942  -17.9617   22.3315 C.ar    1  UNL1        0.0576
      3 C         -10.7567  -18.8631   21.7760 C.ar    1  UNL1        0.0153
      4 C         -12.1910  -18.4241   21.7820 C.ar    1  UNL1        0.0013
      5 C         -12.5628  -17.0838   22.3435 C.ar    1  UNL1        0.0006
      6 C         -11.5003  -16.1824   22.8990 C.ar    1  UNL1        0.0077
      7 C         -10.0660  -16.6214   22.8930 C.ar    1  UNL1        0.0431
      8 S          -9.0034  -15.7199   23.4485 S.3     1  UNL1       -0.0844
      9 C          -7.5692  -16.1589   23.4425 C.ar    1  UNL1        0.0431
     10 C          -6.5066  -15.2575   23.9980 C.ar    1  UNL1        0.0086
     11 C          -5.0723  -15.6964   23.9920 C.ar    1  UNL1        0.0120
     12 C          -4.7005  -17.0367   23.4305 C.ar    1  UNL1        0.0589
     13 CL         -3.2662  -17.4757   23.4245 Cl      1  UNL1       -0.0822
     14 C          -5.7629  -17.9381   22.8750 C.ar    1  UNL1        0.0267
     15 C          -7.1973  -17.4992   22.8810 C.ar    1  UNL1        0.0585
     16 C          -7.8880  -19.7409   21.7641 C.3     1  UNL1        0.0970
     17 C          -7.3056  -19.8412   20.3854 C.3     1  UNL1        0.0391
     18 C          -6.0567  -20.6396   20.1550 C.3     1  UNL1        0.0739
     19 C          -2.0431  -18.6055   20.2142 C.3     1  UNL1        0.0790
     20 C          -2.3104  -19.7639   21.1288 C.3     1  UNL1        0.0264
     21 C          -3.6483  -20.4419   21.1091 C.3     1  UNL1        0.0726
     22 N          -4.7188  -19.9615   20.1748 N.3     1  UNL1       -0.2726
     23 C          -4.4515  -18.8031   19.2601 C.3     1  UNL1        0.0726
     24 C          -3.1137  -18.1251   19.2798 C.3     1  UNL1        0.0264
     25 N          -0.5842  -16.5218   20.7431 N.am    1  UNL1       -0.3288
     26 C          -0.7052  -17.9275   20.2339 C.2     1  UNL1        0.2190
     27 O           0.5117  -18.6552   19.7444 O.2     1  UNL1       -0.2753
     28 H           0.2939  -16.0768   20.7560 H       1  UNL1        0.1449
     29 H          -1.3829  -16.0441   21.0644 H       1  UNL1        0.1449
@<TRIPOS>BOND
     1    25    26   am
     2    26    27    2
     3    26    19    1
     4    19    20    1
     5    20    21    1
     6    21    22    1
     7    22    18    1
     8    18    17    1
     9    17    16    1
    10    16     1    1
    11     1     2    1
    12     2     3   ar
    13     3     4   ar
    14     4     5   ar
    15     5     6   ar
    16     6     7   ar
    17     7     8    1
    18     8     9    1
    19     9    10   ar
    20    10    11   ar
    21    11    12   ar
    22    12    13    1
    23    12    14   ar
    24    14    15   ar
    25    22    23    1
    26    23    24    1
    27    24    19    1
    28    15     1    1
    29     7     2   ar
    30    15     9   ar
    31    25    28    1
    32    25    29    1
@<TRIPOS>MOLECULE
*****
 29 32 0 0 0
SMALL
GASTEIGER

@<TRIPOS>ATOM
      1 N         -12.6959   -3.0192   19.1676 N.pl3   1  UNL1       -0.2860
      2 C         -11.4833   -3.5548   18.4657 C.ar    1  UNL1        0.0576
      3 C         -10.8949   -4.8700   18.8829 C.ar    1  UNL1        0.0153
      4 C          -9.6824   -5.4056   18.1809 C.ar    1  UNL1        0.0013
      5 C          -9.0582   -4.6260   17.0617 C.ar    1  UNL1        0.0006
      6 C          -9.6465   -3.3109   16.6445 C.ar    1  UNL1        0.0077
      7 C         -10.8590   -2.7753   17.3465 C.ar    1  UNL1        0.0431
      8 S         -11.4474   -1.4600   16.9292 S.3     1  UNL1       -0.0844
      9 C         -12.6600   -0.9244   17.6312 C.ar    1  UNL1        0.0431
     10 C         -13.2484    0.3908   17.2140 C.ar    1  UNL1        0.0086
     11 C         -14.4610    0.9264   17.9159 C.ar    1  UNL1        0.0120
     12 C         -15.0852    0.1468   19.0351 C.ar    1  UNL1        0.0589
     13 CL        -16.2977    0.6824   19.7371 Cl      1  UNL1       -0.0822
     14 C         -14.4969   -1.1683   19.4524 C.ar    1  UNL1        0.0267
     15 C         -13.2842   -1.7040   18.7504 C.ar    1  UNL1        0.0585
     16 C         -13.3201   -3.7988   20.2868 C.3     1  UNL1        0.0970
     17 C         -14.4376   -4.7576   20.0009 C.3     1  UNL1        0.0391
     18 C         -14.4125   -5.5876   18.7517 C.3     1  UNL1        0.0739
     19 C         -16.4723   -9.5876   18.6664 C.3     1  UNL1        0.0790
     20 C         -17.1651   -8.3999   19.2658 C.3     1  UNL1        0.0264
     21 C         -16.4785   -7.0666   19.2943 C.3     1  UNL1        0.0726
     22 N         -15.0992   -6.9210   18.7233 N.3     1  UNL1       -0.2726
     23 C         -14.4064   -8.1087   18.1238 C.3     1  UNL1        0.0726
     24 C         -15.0929   -9.4420   18.0954 C.3     1  UNL1        0.0264
     25 N         -18.6118  -11.0088   18.2754 N.am    1  UNL1       -0.3288
     26 C         -17.1590  -10.9210   18.6379 C.2     1  UNL1        0.2190
     27 O         -16.3927  -12.1664   18.9721 O.2     1  UNL1       -0.2753
     28 H         -19.0624  -11.8839   18.2567 H       1  UNL1        0.1449
     29 H         -19.1147  -10.1914   18.0561 H       1  UNL1        0.1449
@<TRIPOS>BOND
     1    25    26   am
     2    26    27    2
     3    26    19    1
     4    19    20    1
     5    20    21    1
     6    21    22    1
     7    22    18    1
     8    18    17    1
     9    17    16    1
    10    16     1    1
    11     1     2    1
    12     2     3   ar
    13     3     4   ar
    14     4     5   ar
    15     5     6   ar
    16     6     7   ar
    17     7     8    1
    18     8     9    1
    19     9    10   ar
    20    10    11   ar
    21    11    12   ar
    22    12    13    1
    23    12    14   ar
    24    14    15   ar
    25    22    23    1
    26    23    24    1
    27    24    19    1
    28    15     1    1
    29     7     2   ar
    30    15     9   ar
    31    25    28    1
    32    25    29    1
@<TRIPOS>MOLECULE
*****
 29 32 0 0 0
SMALL
GASTEIGER

@<TRIPOS>ATOM
      1 N         -14.8177   -6.2248   19.5188 N.pl3   1  UNL1       -0.2860
      2 C         -15.8811   -7.2225   19.1665 C.ar    1  UNL1        0.0576
      3 C         -17.2724   -7.0561   19.7016 C.ar    1  UNL1        0.0153
      4 C         -18.3357   -8.0538   19.3493 C.ar    1  UNL1        0.0013
      5 C         -18.0076   -9.2177   18.4619 C.ar    1  UNL1        0.0006
      6 C         -16.6163   -9.3840   17.9267 C.ar    1  UNL1        0.0077
      7 C         -15.5530   -8.3864   18.2790 C.ar    1  UNL1        0.0431
      8 S         -14.1616   -8.5527   17.7439 S.3     1  UNL1       -0.0844
      9 C         -13.0983   -7.5551   18.0962 C.ar    1  UNL1        0.0431
     10 C         -11.7069   -7.7214   17.5610 C.ar    1  UNL1        0.0086
     11 C         -10.6436   -6.7238   17.9133 C.ar    1  UNL1        0.0120
     12 C         -10.9717   -5.5598   18.8008 C.ar    1  UNL1        0.0589
     13 CL         -9.9084   -4.5622   19.1531 Cl      1  UNL1       -0.0822
     14 C         -12.3630   -5.3935   19.3359 C.ar    1  UNL1        0.0267
     15 C         -13.4264   -6.3912   18.9836 C.ar    1  UNL1        0.0585
     16 C         -15.1458   -5.0609   20.4062 C.3     1  UNL1        0.0970
     17 C         -16.2358   -4.1061   20.0187 C.3     1  UNL1        0.0391
     18 C         -16.0728   -3.2321   18.8106 C.3     1  UNL1        0.0739
     19 C         -11.9552   -2.1001   17.3916 C.3     1  UNL1        0.0790
     20 C         -12.8376   -2.9531   16.5292 C.3     1  UNL1        0.0264
     21 C         -14.2101   -3.3304   17.0021 C.3     1  UNL1        0.0726
     22 N         -14.7002   -2.8547   18.3376 N.3     1  UNL1       -0.2726
     23 C         -13.8178   -2.0018   19.2001 C.3     1  UNL1        0.0726
     24 C         -12.4453   -1.6245   18.7271 C.3     1  UNL1        0.0264
     25 N         -10.0766   -0.3256   17.1228 N.am    1  UNL1       -0.3288
     26 C         -10.5826   -1.7228   16.9186 C.2     1  UNL1        0.2190
     27 O          -9.7160   -2.7428   16.2413 O.2     1  UNL1       -0.2753
     28 H          -9.1758   -0.0780   16.8124 H       1  UNL1        0.1449
     29 H         -10.6454    0.3438   17.5674 H       1  UNL1        0.1449
@<TRIPOS>BOND
     1    25    26   am
     2    26    27    2
     3    26    19    1
     4    19    20    1
     5    20    21    1
     6    21    22    1
     7    22    18    1
     8    18    17    1
     9    17    16    1
    10    16     1    1
    11     1     2    1
    12     2     3   ar
    13     3     4   ar
    14     4     5   ar
    15     5     6   ar
    16     6     7   ar
    17     7     8    1
    18     8     9    1
    19     9    10   ar
    20    10    11   ar
    21    11    12   ar
    22    12    13    1
    23    12    14   ar
    24    14    15   ar
    25    22    23    1
    26    23    24    1
    27    24    19    1
    28    15     1    1
    29     7     2   ar
    30    15     9   ar
    31    25    28    1
    32    25    29    1
@<TRIPOS>MOLECULE
*****
 29 32 0 0 0
SMALL
GASTEIGER

@<TRIPOS>ATOM
      1 N         -13.5131   -5.7235   19.4349 N.pl3   1  UNL1       -0.2860
      2 C         -12.1790   -5.5367   18.7750 C.ar    1  UNL1        0.0576
      3 C         -11.3001   -4.3880   19.1723 C.ar    1  UNL1        0.0153
      4 C          -9.9661   -4.2012   18.5124 C.ar    1  UNL1        0.0013
      5 C          -9.5110   -5.1630   17.4552 C.ar    1  UNL1        0.0006
      6 C         -10.3900   -6.3117   17.0579 C.ar    1  UNL1        0.0077
      7 C         -11.7240   -6.4985   17.7177 C.ar    1  UNL1        0.0431
      8 S         -12.6030   -7.6472   17.3204 S.3     1  UNL1       -0.0844
      9 C         -13.9370   -7.8340   17.9803 C.ar    1  UNL1        0.0431
     10 C         -14.8161   -8.9828   17.5829 C.ar    1  UNL1        0.0086
     11 C         -16.1501   -9.1696   18.2428 C.ar    1  UNL1        0.0120
     12 C         -16.6051   -8.2077   19.3001 C.ar    1  UNL1        0.0589
     13 CL        -17.9391   -8.3945   19.9600 Cl      1  UNL1       -0.0822
     14 C         -15.7262   -7.0590   19.6974 C.ar    1  UNL1        0.0267
     15 C         -14.3921   -6.8722   19.0375 C.ar    1  UNL1        0.0585
     16 C         -13.9682   -4.7617   20.4921 C.3     1  UNL1        0.0970
     17 C         -14.8406   -3.5988   20.1227 C.3     1  UNL1        0.0391
     18 C         -14.9426   -3.1626   18.6912 C.3     1  UNL1        0.0739
     19 C         -13.7444    1.0142   17.5211 C.3     1  UNL1        0.0790
     20 C         -15.1398    0.5320   17.2555 C.3     1  UNL1        0.0264
     21 C         -15.5392   -0.8602   17.6455 C.3     1  UNL1        0.0726
     22 N         -14.5432   -1.7703   18.3011 N.3     1  UNL1       -0.2726
     23 C         -13.1479   -1.2881   18.5667 C.3     1  UNL1        0.0726
     24 C         -12.7485    0.1041   18.1767 C.3     1  UNL1        0.0264
     25 N         -12.3157    2.6195   16.0610 N.am    1  UNL1       -0.3288
     26 C         -13.3451    2.4065   17.1310 C.2     1  UNL1        0.2190
     27 O         -13.9751    3.5857   17.8110 O.2     1  UNL1       -0.2753
     28 H         -12.0536    3.5333   15.8050 H       1  UNL1        0.1449
     29 H         -11.9022    1.8455   15.6147 H       1  UNL1        0.1449
@<TRIPOS>BOND
     1    25    26   am
     2    26    27    2
     3    26    19    1
     4    19    20    1
     5    20    21    1
     6    21    22    1
     7    22    18    1
     8    18    17    1
     9    17    16    1
    10    16     1    1
    11     1     2    1
    12     2     3   ar
    13     3     4   ar
    14     4     5   ar
    15     5     6   ar
    16     6     7   ar
    17     7     8    1
    18     8     9    1
    19     9    10   ar
    20    10    11   ar
    21    11    12   ar
    22    12    13    1
    23    12    14   ar
    24    14    15   ar
    25    22    23    1
    26    23    24    1
    27    24    19    1
    28    15     1    1
    29     7     2   ar
    30    15     9   ar
    31    25    28    1
    32    25    29    1
@<TRIPOS>MOLECULE
*****
 29 32 0 0 0
SMALL
GASTEIGER

@<TRIPOS>ATOM
      1 N          -1.8879    3.7203   20.8980 N.pl3   1  UNL1       -0.2860
      2 C          -2.4709    3.7653   19.5166 C.ar    1  UNL1        0.0576
      3 C          -1.5664    3.8574   18.3236 C.ar    1  UNL1        0.0153
      4 C          -2.1493    3.9024   16.9422 C.ar    1  UNL1        0.0013
      5 C          -3.6367    3.8553   16.7539 C.ar    1  UNL1        0.0006
      6 C          -4.5412    3.7632   17.9470 C.ar    1  UNL1        0.0077
      7 C          -3.9583    3.7182   19.3283 C.ar    1  UNL1        0.0431
      8 S          -4.8627    3.6261   20.5215 S.3     1  UNL1       -0.0844
      9 C          -4.2798    3.5811   21.9028 C.ar    1  UNL1        0.0431
     10 C          -5.1843    3.4890   23.0960 C.ar    1  UNL1        0.0086
     11 C          -4.6013    3.4440   24.4773 C.ar    1  UNL1        0.0120
     12 C          -3.1139    3.4910   24.6656 C.ar    1  UNL1        0.0589
     13 CL         -2.5310    3.4460   26.0469 Cl      1  UNL1       -0.0822
     14 C          -2.2095    3.5831   23.4725 C.ar    1  UNL1        0.0267
     15 C          -2.7924    3.6282   22.0911 C.ar    1  UNL1        0.0585
     16 C          -0.4005    3.7673   21.0863 C.3     1  UNL1        0.0970
     17 C           0.3744    2.4946   21.2576 C.3     1  UNL1        0.0391
     18 C           0.0713    1.3093   20.3897 C.3     1  UNL1        0.0739
     19 C           3.4333   -1.1014   18.6190 C.3     1  UNL1        0.0790
     20 C           2.7790   -1.5492   19.8923 C.3     1  UNL1        0.0264
     21 C           1.6583   -0.7456   20.4826 C.3     1  UNL1        0.0726
     22 N           1.1920    0.5057   19.7995 N.3     1  UNL1       -0.2726
     23 C           1.8464    0.9535   18.5261 C.3     1  UNL1        0.0726
     24 C           2.9670    0.1500   17.9359 C.3     1  UNL1        0.0264
     25 N           4.5688   -3.3970   18.1821 N.am    1  UNL1       -0.3288
     26 C           4.5541   -1.9050   18.0288 C.2     1  UNL1        0.2190
     27 O           5.6600   -1.2165   17.2854 O.2     1  UNL1       -0.2753
     28 H           5.3043   -3.9244   17.7947 H       1  UNL1        0.1449
     29 H           3.8429   -3.8489   18.6701 H       1  UNL1        0.1449
@<TRIPOS>BOND
     1    25    26   am
     2    26    27    2
     3    26    19    1
     4    19    20    1
     5    20    21    1
     6    21    22    1
     7    22    18    1
     8    18    17    1
     9    17    16    1
    10    16     1    1
    11     1     2    1
    12     2     3   ar
    13     3     4   ar
    14     4     5   ar
    15     5     6   ar
    16     6     7   ar
    17     7     8    1
    18     8     9    1
    19     9    10   ar
    20    10    11   ar
    21    11    12   ar
    22    12    13    1
    23    12    14   ar
    24    14    15   ar
    25    22    23    1
    26    23    24    1
    27    24    19    1
    28    15     1    1
    29     7     2   ar
    30    15     9   ar
    31    25    28    1
    32    25    29    1
@<TRIPOS>MOLECULE
*****
 29 32 0 0 0
SMALL
GASTEIGER

@<TRIPOS>ATOM
      1 N         -13.7297   -5.3723   19.3740 N.pl3   1  UNL1       -0.2860
      2 C         -12.3325   -5.2510   18.8417 C.ar    1  UNL1        0.0576
      3 C         -11.5475   -3.9944   19.0751 C.ar    1  UNL1        0.0153
      4 C         -10.1504   -3.8731   18.5428 C.ar    1  UNL1        0.0013
      5 C          -9.5384   -5.0085   17.7771 C.ar    1  UNL1        0.0006
      6 C         -10.3234   -6.2651   17.5437 C.ar    1  UNL1        0.0077
      7 C         -11.7205   -6.3864   18.0759 C.ar    1  UNL1        0.0431
      8 S         -12.5056   -7.6431   17.8425 S.3     1  UNL1       -0.0844
      9 C         -13.9027   -7.7643   18.3748 C.ar    1  UNL1        0.0431
     10 C         -14.6878   -9.0210   18.1414 C.ar    1  UNL1        0.0086
     11 C         -16.0849   -9.1423   18.6737 C.ar    1  UNL1        0.0120
     12 C         -16.6969   -8.0069   19.4394 C.ar    1  UNL1        0.0589
     13 CL        -18.0940   -8.1282   19.9717 Cl      1  UNL1       -0.0822
     14 C         -15.9119   -6.7503   19.6728 C.ar    1  UNL1        0.0267
     15 C         -14.5147   -6.6290   19.1405 C.ar    1  UNL1        0.0585
     16 C         -14.3418   -4.2370   20.1397 C.3     1  UNL1        0.0970
     17 C         -15.2137   -3.2407   19.4346 C.3     1  UNL1        0.0391
     18 C         -14.6141   -1.9884   18.8670 C.3     1  UNL1        0.0739
     19 C         -16.2829    2.0285   20.0200 C.3     1  UNL1        0.0790
     20 C         -16.8917    0.7756   20.5764 C.3     1  UNL1        0.0264
     21 C         -16.3355   -0.5633   20.1921 C.3     1  UNL1        0.0726
     22 N         -15.1704   -0.6494   19.2513 N.3     1  UNL1       -0.2726
     23 C         -14.5615    0.6035   18.6949 C.3     1  UNL1        0.0726
     24 C         -15.1178    1.9424   19.0792 C.3     1  UNL1        0.0264
     25 N         -16.0814    4.2510   21.3504 N.am    1  UNL1       -0.3288
     26 C         -16.8392    3.3675   20.4043 C.2     1  UNL1        0.2190
     27 O         -18.1534    3.8229   19.8426 O.2     1  UNL1       -0.2753
     28 H         -16.4465    5.1298   21.6027 H       1  UNL1        0.1449
     29 H         -15.2189    3.9521   21.7191 H       1  UNL1        0.1449
@<TRIPOS>BOND
     1    25    26   am
     2    26    27    2
     3    26    19    1
     4    19    20    1
     5    20    21    1
     6    21    22    1
     7    22    18    1
     8    18    17    1
     9    17    16    1
    10    16     1    1
    11     1     2    1
    12     2     3   ar
    13     3     4   ar
    14     4     5   ar
    15     5     6   ar
    16     6     7   ar
    17     7     8    1
    18     8     9    1
    19     9    10   ar
    20    10    11   ar
    21    11    12   ar
    22    12    13    1
    23    12    14   ar
    24    14    15   ar
    25    22    23    1
    26    23    24    1
    27    24    19    1
    28    15     1    1
    29     7     2   ar
    30    15     9   ar
    31    25    28    1
    32    25    29    1
@<TRIPOS>MOLECULE
*****
 29 32 0 0 0
SMALL
GASTEIGER

@<TRIPOS>ATOM
      1 N          -2.6014    3.6768   21.7948 N.pl3   1  UNL1       -0.2860
      2 C          -2.9976    3.6593   23.2414 C.ar    1  UNL1        0.0576
      3 C          -1.9431    3.6222   24.3075 C.ar    1  UNL1        0.0153
      4 C          -2.3395    3.6047   25.7541 C.ar    1  UNL1        0.0013
      5 C          -3.7903    3.6244   26.1345 C.ar    1  UNL1        0.0006
      6 C          -4.8448    3.6615   25.0684 C.ar    1  UNL1        0.0077
      7 C          -4.4485    3.6790   23.6219 C.ar    1  UNL1        0.0431
      8 S          -5.5030    3.7162   22.5557 S.3     1  UNL1       -0.0844
      9 C          -5.1067    3.7336   21.1091 C.ar    1  UNL1        0.0431
     10 C          -6.1612    3.7708   20.0430 C.ar    1  UNL1        0.0086
     11 C          -5.7649    3.7883   18.5964 C.ar    1  UNL1        0.0120
     12 C          -4.3141    3.7686   18.2159 C.ar    1  UNL1        0.0589
     13 CL         -3.9177    3.7861   16.7694 Cl      1  UNL1       -0.0822
     14 C          -3.2596    3.7314   19.2820 C.ar    1  UNL1        0.0267
     15 C          -3.6559    3.7140   20.7287 C.ar    1  UNL1        0.0585
     16 C          -1.1505    3.6571   21.4143 C.3     1  UNL1        0.0970
     17 C          -0.4723    2.3541   21.1112 C.3     1  UNL1        0.0391
     18 C          -0.0020    2.0597   19.7176 C.3     1  UNL1        0.0739
     19 C           3.1715   -1.0546   19.0246 C.3     1  UNL1        0.0790
     20 C           2.1462   -1.2551   20.1010 C.3     1  UNL1        0.0264
     21 C           1.0884   -0.2171   20.3320 C.3     1  UNL1        0.0726
     22 N           1.0559    1.0215   19.4866 N.3     1  UNL1       -0.2726
     23 C           2.0811    1.2221   18.4102 C.3     1  UNL1        0.0726
     24 C           3.1390    0.1840   18.1792 C.3     1  UNL1        0.0264
     25 N           4.4738   -3.1563   19.8227 N.am    1  UNL1       -0.3288
     26 C           4.2294   -2.0927   18.7936 C.2     1  UNL1        0.2190
     27 O           5.0428   -2.0672   17.5336 O.2     1  UNL1       -0.2753
     28 H           5.1680   -3.8377   19.6711 H       1  UNL1        0.1449
     29 H           3.9399   -3.1731   20.6497 H       1  UNL1        0.1449
@<TRIPOS>BOND
     1    25    26   am
     2    26    27    2
     3    26    19    1
     4    19    20    1
     5    20    21    1
     6    21    22    1
     7    22    18    1
     8    18    17    1
     9    17    16    1
    10    16     1    1
    11     1     2    1
    12     2     3   ar
    13     3     4   ar
    14     4     5   ar
    15     5     6   ar
    16     6     7   ar
    17     7     8    1
    18     8     9    1
    19     9    10   ar
    20    10    11   ar
    21    11    12   ar
    22    12    13    1
    23    12    14   ar
    24    14    15   ar
    25    22    23    1
    26    23    24    1
    27    24    19    1
    28    15     1    1
    29     7     2   ar
    30    15     9   ar
    31    25    28    1
    32    25    29    1
@<TRIPOS>MOLECULE
*****
 29 32 0 0 0
SMALL
GASTEIGER

@<TRIPOS>ATOM
      1 N           7.2596   -4.0237   26.8022 N.pl3   1  UNL1       -0.2860
      2 C           7.6518   -5.1674   25.9143 C.ar    1  UNL1        0.0576
      3 C           7.7951   -4.9546   24.4364 C.ar    1  UNL1        0.0153
      4 C           8.1873   -6.0983   23.5486 C.ar    1  UNL1        0.0013
      5 C           8.4361   -7.4547   24.1387 C.ar    1  UNL1        0.0006
      6 C           8.2928   -7.6675   25.6166 C.ar    1  UNL1        0.0077
      7 C           7.9006   -6.5238   26.5043 C.ar    1  UNL1        0.0431
      8 S           7.7573   -6.7366   27.9823 S.3     1  UNL1       -0.0844
      9 C           7.3651   -5.5929   28.8701 C.ar    1  UNL1        0.0431
     10 C           7.2218   -5.8057   30.3481 C.ar    1  UNL1        0.0086
     11 C           6.8296   -4.6620   31.2358 C.ar    1  UNL1        0.0120
     12 C           6.5808   -3.3056   30.6458 C.ar    1  UNL1        0.0589
     13 CL          6.1886   -2.1619   31.5336 Cl      1  UNL1       -0.0822
     14 C           6.7241   -3.0928   29.1679 C.ar    1  UNL1        0.0267
     15 C           7.1163   -4.2365   28.2800 C.ar    1  UNL1        0.0585
     16 C           7.0108   -2.6673   26.2121 C.3     1  UNL1        0.0970
     17 C           5.6604   -2.3285   25.6539 C.3     1  UNL1        0.0391
     18 C           5.5415   -1.3630   24.5121 C.3     1  UNL1        0.0739
     19 C           4.8684   -2.8918   20.3336 C.3     1  UNL1        0.0790
     20 C           5.3683   -1.4941   20.5494 C.3     1  UNL1        0.0264
     21 C           5.5927   -0.9845   21.9422 C.3     1  UNL1        0.0726
     22 N           5.3171   -1.8726   23.1192 N.3     1  UNL1       -0.2726
     23 C           4.8172   -3.2702   22.9034 C.3     1  UNL1        0.0726
     24 C           4.5928   -3.7798   21.5106 C.3     1  UNL1        0.0264
     25 N           3.5143   -4.3478   18.6613 N.am    1  UNL1       -0.3288
     26 C           4.6440   -3.4014   18.9407 C.2     1  UNL1        0.2190
     27 O           5.5493   -2.9645   17.8274 O.2     1  UNL1       -0.2753
     28 H           3.3671   -4.6822   17.7471 H       1  UNL1        0.1449
     29 H           2.9201   -4.6345   19.3920 H       1  UNL1        0.1449
@<TRIPOS>BOND
     1    25    26   am
     2    26    27    2
     3    26    19    1
     4    19    20    1
     5    20    21    1
     6    21    22    1
     7    22    18    1
     8    18    17    1
     9    17    16    1
    10    16     1    1
    11     1     2    1
    12     2     3   ar
    13     3     4   ar
    14     4     5   ar
    15     5     6   ar
    16     6     7   ar
    17     7     8    1
    18     8     9    1
    19     9    10   ar
    20    10    11   ar
    21    11    12   ar
    22    12    13    1
    23    12    14   ar
    24    14    15   ar
    25    22    23    1
    26    23    24    1
    27    24    19    1
    28    15     1    1
    29     7     2   ar
    30    15     9   ar
    31    25    28    1
    32    25    29    1
@<TRIPOS>MOLECULE
*****
 29 32 0 0 0
SMALL
GASTEIGER

@<TRIPOS>ATOM
      1 N          -2.5869    3.6954   21.6817 N.pl3   1  UNL1       -0.2860
      2 C          -3.6124    3.7425   20.5880 C.ar    1  UNL1        0.0576
      3 C          -3.1777    3.7622   19.1526 C.ar    1  UNL1        0.0153
      4 C          -4.2033    3.8093   18.0590 C.ar    1  UNL1        0.0013
      5 C          -5.6635    3.8365   18.4009 C.ar    1  UNL1        0.0006
      6 C          -6.0983    3.8167   19.8363 C.ar    1  UNL1        0.0077
      7 C          -5.0727    3.7697   20.9299 C.ar    1  UNL1        0.0431
      8 S          -5.5074    3.7499   22.3655 S.3     1  UNL1       -0.0844
      9 C          -4.4819    3.7029   23.4590 C.ar    1  UNL1        0.0431
     10 C          -4.9166    3.6831   24.8946 C.ar    1  UNL1        0.0086
     11 C          -3.8910    3.6361   25.9882 C.ar    1  UNL1        0.0120
     12 C          -2.4308    3.6089   25.6463 C.ar    1  UNL1        0.0589
     13 CL         -1.4052    3.5618   26.7399 Cl      1  UNL1       -0.0822
     14 C          -1.9960    3.6286   24.2109 C.ar    1  UNL1        0.0267
     15 C          -3.0216    3.6757   23.1172 C.ar    1  UNL1        0.0585
     16 C          -1.1266    3.6682   21.3399 C.3     1  UNL1        0.0970
     17 C          -0.4414    2.3594   21.0804 C.3     1  UNL1        0.0391
     18 C           0.1009    2.0543   19.7155 C.3     1  UNL1        0.0739
     19 C           3.1932   -1.1728   19.1928 C.3     1  UNL1        0.0790
     20 C           3.0804   -0.0712   18.1810 C.3     1  UNL1        0.0264
     21 C           2.0496    1.0045   18.3552 C.3     1  UNL1        0.0726
     22 N           1.1317    0.9786   19.5412 N.3     1  UNL1       -0.2726
     23 C           1.2446   -0.1230   20.5530 C.3     1  UNL1        0.0726
     24 C           2.2753   -1.1987   20.3788 C.3     1  UNL1        0.0264
     25 N           3.8174   -3.6031   18.5188 N.am    1  UNL1       -0.3288
     26 C           4.2240   -2.2485   19.0185 C.2     1  UNL1        0.2190
     27 O           5.6615   -1.9696   19.3439 O.2     1  UNL1       -0.2753
     28 H           4.4939   -4.3091   18.4045 H       1  UNL1        0.1449
     29 H           2.8739   -3.7862   18.3053 H       1  UNL1        0.1449
@<TRIPOS>BOND
     1    25    26   am
     2    26    27    2
     3    26    19    1
     4    19    20    1
     5    20    21    1
     6    21    22    1
     7    22    18    1
     8    18    17    1
     9    17    16    1
    10    16     1    1
    11     1     2    1
    12     2     3   ar
    13     3     4   ar
    14     4     5   ar
    15     5     6   ar
    16     6     7   ar
    17     7     8    1
    18     8     9    1
    19     9    10   ar
    20    10    11   ar
    21    11    12   ar
    22    12    13    1
    23    12    14   ar
    24    14    15   ar
    25    22    23    1
    26    23    24    1
    27    24    19    1
    28    15     1    1
    29     7     2   ar
    30    15     9   ar
    31    25    28    1
    32    25    29    1
