@<TRIPOS>MOLECULE
*****
 17 18 0 0 0
SMALL
GASTEIGER

@<TRIPOS>ATOM
      1 C         -11.1373  -16.3339   20.8487 C.ar    1  UNL1        0.0968
      2 S         -12.0260  -17.4038   21.4105 S.2     1  UNL1       -0.0622
      3 C         -11.3940  -17.9171   22.6703 C.ar    1  UNL1        0.1120
      4 N         -11.8182  -18.9726   23.6480 N.ar    1  UNL1       -0.2373
      5 C         -10.9630  -19.2755   24.8425 C.ar    1  UNL1        0.0994
      6 C          -9.6837  -18.5230   25.0593 C.ar    1  UNL1        0.0208
      7 C          -9.2596  -17.4675   24.0816 C.ar    1  UNL1        0.0048
      8 C         -10.1147  -17.1646   22.8871 C.ar    1  UNL1        0.0374
      9 C          -9.9561  -16.1861   21.7613 C.ar    1  UNL1        0.0540
     10 N          -8.8163  -15.2280   21.5799 N.pl3   1  UNL1       -0.3564
     11 H          -8.0830  -15.2054   22.2364 H       1  UNL1        0.1424
     12 H          -8.8015  -14.6218   20.8043 H       1  UNL1        0.1424
     13 N         -12.7323  -15.5976   18.9346 N.am    1  UNL1       -0.3249
     14 C         -11.3862  -15.5496   19.5945 C.2     1  UNL1        0.2500
     15 O         -10.2889  -14.7174   19.0003 O.2     1  UNL1       -0.2698
     16 H         -12.8957  -15.0829   18.1115 H       1  UNL1        0.1453
     17 H         -13.4526  -16.1439   19.3246 H       1  UNL1        0.1453
@<TRIPOS>BOND
     1    13    14   am
     2    14    15    2
     3    14     1    1
     4     1     2   ar
     5     2     3   ar
     6     3     4   ar
     7     4     5   ar
     8     5     6   ar
     9     6     7   ar
    10     7     8   ar
    11     8     9   ar
    12     9    10    1
    13     9     1   ar
    14     8     3   ar
    15    13    16    1
    16    13    17    1
    17    10    11    1
    18    10    12    1
@<TRIPOS>MOLECULE
*****
 17 18 0 0 0
SMALL
GASTEIGER

@<TRIPOS>ATOM
      1 C          -8.9248  -16.5534   23.8492 C.ar    1  UNL1        0.0968
      2 S          -8.9070  -16.3959   22.3576 S.2     1  UNL1       -0.0622
      3 C          -9.6004  -17.5831   21.7578 C.ar    1  UNL1        0.1120
      4 N          -9.8830  -17.9677   20.3358 N.ar    1  UNL1       -0.2373
      5 C         -10.6119  -19.2436   20.0346 C.ar    1  UNL1        0.0994
      6 C         -11.0583  -20.1349   21.1555 C.ar    1  UNL1        0.0208
      7 C         -10.7757  -19.7503   22.5776 C.ar    1  UNL1        0.0048
      8 C         -10.0467  -18.4744   22.8787 C.ar    1  UNL1        0.0374
      9 C          -9.6292  -17.8380   24.1712 C.ar    1  UNL1        0.0540
     10 N          -9.8733  -18.3894   25.5447 N.pl3   1  UNL1       -0.3564
     11 H         -10.3474  -19.2452   25.6545 H       1  UNL1        0.1424
     12 H          -9.5592  -17.8956   26.3364 H       1  UNL1        0.1424
     13 N          -7.6613  -14.3440   24.3708 N.am    1  UNL1       -0.3249
     14 C          -8.3408  -15.5947   24.8441 C.2     1  UNL1        0.2500
     15 O          -8.4363  -15.8867   26.3123 O.2     1  UNL1       -0.2698
     16 H          -7.2780  -13.7148   25.0238 H       1  UNL1        0.1453
     17 H          -7.5986  -14.1524   23.4072 H       1  UNL1        0.1453
@<TRIPOS>BOND
     1    13    14   am
     2    14    15    2
     3    14     1    1
     4     1     2   ar
     5     2     3   ar
     6     3     4   ar
     7     4     5   ar
     8     5     6   ar
     9     6     7   ar
    10     7     8   ar
    11     8     9   ar
    12     9    10    1
    13     9     1   ar
    14     8     3   ar
    15    13    16    1
    16    13    17    1
    17    10    11    1
    18    10    12    1
@<TRIPOS>MOLECULE
*****
 17 18 0 0 0
SMALL
GASTEIGER

@<TRIPOS>ATOM
      1 C         -11.0413  -16.6320   20.8135 C.ar    1  UNL1        0.0968
      2 S         -10.9361  -16.2744   22.2664 S.2     1  UNL1       -0.0622
      3 C         -10.5960  -17.5216   23.0273 C.ar    1  UNL1        0.1120
      4 N         -10.3683  -17.7755   24.4880 N.ar    1  UNL1       -0.2373
      5 C         -10.0357  -19.1578   24.9660 C.ar    1  UNL1        0.0994
      6 C          -9.9307  -20.2862   23.9833 C.ar    1  UNL1        0.0208
      7 C         -10.1584  -20.0323   22.5226 C.ar    1  UNL1        0.0048
      8 C         -10.4910  -18.6500   22.0446 C.ar    1  UNL1        0.0374
      9 C         -10.7663  -18.1001   20.6764 C.ar    1  UNL1        0.0540
     10 N         -10.7665  -18.8814   19.3959 N.pl3   1  UNL1       -0.3564
     11 H         -10.5732  -19.8467   19.4082 H       1  UNL1        0.1424
     12 H         -10.9598  -18.4289   18.5432 H       1  UNL1        0.1424
     13 N         -12.7500  -15.6514   19.1197 N.am    1  UNL1       -0.3249
     14 C         -11.3648  -15.6873   19.6942 C.2     1  UNL1        0.2500
     15 O         -10.3032  -14.7784   19.1494 O.2     1  UNL1       -0.2698
     16 H         -12.9623  -15.0314   18.3850 H       1  UNL1        0.1453
     17 H         -13.4468  -16.2479   19.4772 H       1  UNL1        0.1453
@<TRIPOS>BOND
     1    13    14   am
     2    14    15    2
     3    14     1    1
     4     1     2   ar
     5     2     3   ar
     6     3     4   ar
     7     4     5   ar
     8     5     6   ar
     9     6     7   ar
    10     7     8   ar
    11     8     9   ar
    12     9    10    1
    13     9     1   ar
    14     8     3   ar
    15    13    16    1
    16    13    17    1
    17    10    11    1
    18    10    12    1
@<TRIPOS>MOLECULE
*****
 17 18 0 0 0
SMALL
GASTEIGER

@<TRIPOS>ATOM
      1 C          -8.1513  -15.8902   23.6817 C.ar    1  UNL1        0.0968
      2 S          -9.1350  -16.7836   24.3776 S.2     1  UNL1       -0.0622
      3 C         -10.2745  -17.0401   23.4365 C.ar    1  UNL1        0.1120
      4 N         -11.5305  -17.8479   23.5777 N.ar    1  UNL1       -0.2373
      5 C         -12.5070  -17.9208   22.4415 C.ar    1  UNL1        0.0994
      6 C         -12.2276  -17.1860   21.1640 C.ar    1  UNL1        0.0208
      7 C         -10.9716  -16.3783   21.0228 C.ar    1  UNL1        0.0048
      8 C          -9.9951  -16.3053   22.1590 C.ar    1  UNL1        0.0374
      9 C          -8.6828  -15.5947   22.3106 C.ar    1  UNL1        0.0540
     10 N          -8.0188  -14.7387   21.2731 N.pl3   1  UNL1       -0.3564
     11 H          -8.4486  -14.6036   20.3977 H       1  UNL1        0.1424
     12 H          -7.1531  -14.3120   21.4676 H       1  UNL1        0.1424
     13 N          -6.7796  -15.0210   25.7098 N.am    1  UNL1       -0.3249
     14 C          -6.8623  -15.3817   24.2562 C.2     1  UNL1        0.2500
     15 O          -5.6560  -15.2340   23.3770 O.2     1  UNL1       -0.2698
     16 H          -5.9336  -14.6872   26.0868 H       1  UNL1        0.1453
     17 H          -7.5714  -15.1179   26.2868 H       1  UNL1        0.1453
@<TRIPOS>BOND
     1    13    14   am
     2    14    15    2
     3    14     1    1
     4     1     2   ar
     5     2     3   ar
     6     3     4   ar
     7     4     5   ar
     8     5     6   ar
     9     6     7   ar
    10     7     8   ar
    11     8     9   ar
    12     9    10    1
    13     9     1   ar
    14     8     3   ar
    15    13    16    1
    16    13    17    1
    17    10    11    1
    18    10    12    1
@<TRIPOS>MOLECULE
*****
 17 18 0 0 0
SMALL
GASTEIGER

@<TRIPOS>ATOM
      1 C          -8.0867  -18.4237   22.4005 C.ar    1  UNL1        0.0968
      2 S          -9.2033  -19.3156   22.8563 S.2     1  UNL1       -0.0622
      3 C         -10.4675  -18.5083   22.8647 C.ar    1  UNL1        0.1120
      4 N         -11.8806  -18.8600   23.2244 N.ar    1  UNL1       -0.2373
      5 C         -12.9584  -17.8209   23.1336 C.ar    1  UNL1        0.0994
      6 C         -12.6232  -16.4300   22.6830 C.ar    1  UNL1        0.0208
      7 C         -11.2101  -16.0783   22.3232 C.ar    1  UNL1        0.0048
      8 C         -10.1323  -17.1174   22.4141 C.ar    1  UNL1        0.0374
      9 C          -8.6609  -17.0652   22.1272 C.ar    1  UNL1        0.0540
     10 N          -7.8977  -15.8650   21.6507 N.pl3   1  UNL1       -0.3564
     11 H          -8.3658  -15.0123   21.4991 H       1  UNL1        0.1424
     12 H          -6.9286  -15.9300   21.4895 H       1  UNL1        0.1424
     13 N          -6.2931  -20.2428   21.9276 N.am    1  UNL1       -0.3249
     14 C          -6.6486  -18.8206   22.2452 C.2     1  UNL1        0.2500
     15 O          -5.5658  -17.7954   22.4076 O.2     1  UNL1       -0.2698
     16 H          -5.3492  -20.5033   21.8257 H       1  UNL1        0.1453
     17 H          -7.0038  -20.9158   21.8210 H       1  UNL1        0.1453
@<TRIPOS>BOND
     1    13    14   am
     2    14    15    2
     3    14     1    1
     4     1     2   ar
     5     2     3   ar
     6     3     4   ar
     7     4     5   ar
     8     5     6   ar
     9     6     7   ar
    10     7     8   ar
    11     8     9   ar
    12     9    10    1
    13     9     1   ar
    14     8     3   ar
    15    13    16    1
    16    13    17    1
    17    10    11    1
    18    10    12    1
@<TRIPOS>MOLECULE
*****
 17 18 0 0 0
SMALL
GASTEIGER

@<TRIPOS>ATOM
      1 C          -8.0380  -16.4959   23.3038 C.ar    1  UNL1        0.0968
      2 S          -9.4076  -16.2569   23.8667 S.2     1  UNL1       -0.0622
      3 C         -10.4008  -16.9451   22.9779 C.ar    1  UNL1        0.1120
      4 N         -11.8957  -17.0527   23.0377 N.ar    1  UNL1       -0.2373
      5 C         -12.6347  -17.8246   21.9852 C.ar    1  UNL1        0.0994
      6 C         -11.8789  -18.4890   20.8729 C.ar    1  UNL1        0.0208
      7 C         -10.3840  -18.3815   20.8131 C.ar    1  UNL1        0.0048
      8 C          -9.6449  -17.6095   21.8656 C.ar    1  UNL1        0.0374
      9 C          -8.1847  -17.3319   22.0670 C.ar    1  UNL1        0.0540
     10 N          -7.0672  -17.8069   21.1862 N.pl3   1  UNL1       -0.3564
     11 H          -7.2650  -18.3539   20.3920 H       1  UNL1        0.1424
     12 H          -6.1360  -17.5715   21.4024 H       1  UNL1        0.1424
     13 N          -6.7647  -14.9270   24.9369 N.am    1  UNL1       -0.3249
     14 C          -6.7482  -15.9881   23.8769 C.2     1  UNL1        0.2500
     15 O          -5.4418  -16.5414   23.3901 O.2     1  UNL1       -0.2698
     16 H          -5.9182  -14.5937   25.3131 H       1  UNL1        0.1453
     17 H          -7.6222  -14.5638   25.2565 H       1  UNL1        0.1453
@<TRIPOS>BOND
     1    13    14   am
     2    14    15    2
     3    14     1    1
     4     1     2   ar
     5     2     3   ar
     6     3     4   ar
     7     4     5   ar
     8     5     6   ar
     9     6     7   ar
    10     7     8   ar
    11     8     9   ar
    12     9    10    1
    13     9     1   ar
    14     8     3   ar
    15    13    16    1
    16    13    17    1
    17    10    11    1
    18    10    12    1
@<TRIPOS>MOLECULE
*****
 17 18 0 0 0
SMALL
GASTEIGER

@<TRIPOS>ATOM
      1 C         -10.0503  -17.5759   22.0813 C.ar    1  UNL1        0.0968
      2 S         -10.2045  -18.4277   23.3063 S.2     1  UNL1       -0.0622
      3 C          -9.5773  -17.7005   24.4586 C.ar    1  UNL1        0.1120
      4 N          -9.4295  -18.0552   25.9085 N.ar    1  UNL1       -0.2373
      5 C          -8.7400  -17.1085   26.8456 C.ar    1  UNL1        0.0994
      6 C          -8.1981  -15.8072   26.3328 C.ar    1  UNL1        0.0208
      7 C          -8.3458  -15.4525   24.8828 C.ar    1  UNL1        0.0048
      8 C          -9.0354  -16.3992   23.9457 C.ar    1  UNL1        0.0374
      9 C          -9.3278  -16.3222   22.4765 C.ar    1  UNL1        0.0540
     10 N          -8.9618  -15.1902   21.5629 N.pl3   1  UNL1       -0.3564
     11 H          -8.4852  -14.4054   21.9181 H       1  UNL1        0.1424
     12 H          -9.1982  -15.2321   20.6081 H       1  UNL1        0.1424
     13 N         -11.9608  -17.6561   20.3225 N.am    1  UNL1       -0.3249
     14 C         -10.5337  -17.9178   20.7031 C.2     1  UNL1        0.2500
     15 O          -9.5900  -18.5212   19.7055 O.2     1  UNL1       -0.2698
     16 H         -12.2781  -17.8805   19.4179 H       1  UNL1        0.1453
     17 H         -12.5802  -17.2600   20.9773 H       1  UNL1        0.1453
@<TRIPOS>BOND
     1    13    14   am
     2    14    15    2
     3    14     1    1
     4     1     2   ar
     5     2     3   ar
     6     3     4   ar
     7     4     5   ar
     8     5     6   ar
     9     6     7   ar
    10     7     8   ar
    11     8     9   ar
    12     9    10    1
    13     9     1   ar
    14     8     3   ar
    15    13    16    1
    16    13    17    1
    17    10    11    1
    18    10    12    1
@<TRIPOS>MOLECULE
*****
 17 18 0 0 0
SMALL
GASTEIGER

@<TRIPOS>ATOM
      1 C          -7.4606  -16.6294   23.3197 C.ar    1  UNL1        0.0968
      2 S          -7.5895  -17.7339   22.3130 S.2     1  UNL1       -0.0622
      3 C          -9.0478  -18.0454   22.1506 C.ar    1  UNL1        0.1120
      4 N          -9.7720  -19.0416   21.2945 N.ar    1  UNL1       -0.2373
      5 C         -11.2688  -19.1258   21.3448 C.ar    1  UNL1        0.0994
      6 C         -12.0413  -18.2137   22.2511 C.ar    1  UNL1        0.0208
      7 C         -11.3170  -17.2175   23.1072 C.ar    1  UNL1        0.0048
      8 C          -9.8202  -17.1333   23.0569 C.ar    1  UNL1        0.0374
      9 C          -8.8393  -16.2582   23.7794 C.ar    1  UNL1        0.0540
     10 N          -9.1778  -15.1980   24.7852 N.pl3   1  UNL1       -0.3564
     11 H         -10.1177  -15.0271   25.0229 H       1  UNL1        0.1424
     12 H          -8.4600  -14.6731   25.2075 H       1  UNL1        0.1424
     13 N          -4.8638  -16.6150   23.3969 N.am    1  UNL1       -0.3249
     14 C          -6.1783  -16.0056   23.7849 C.2     1  UNL1        0.2500
     15 O          -6.2105  -14.7723   24.6381 O.2     1  UNL1       -0.2698
     16 H          -4.0221  -16.2056   23.7023 H       1  UNL1        0.1453
     17 H          -4.8426  -17.4244   22.8369 H       1  UNL1        0.1453
@<TRIPOS>BOND
     1    13    14   am
     2    14    15    2
     3    14     1    1
     4     1     2   ar
     5     2     3   ar
     6     3     4   ar
     7     4     5   ar
     8     5     6   ar
     9     6     7   ar
    10     7     8   ar
    11     8     9   ar
    12     9    10    1
    13     9     1   ar
    14     8     3   ar
    15    13    16    1
    16    13    17    1
    17    10    11    1
    18    10    12    1
@<TRIPOS>MOLECULE
*****
 17 18 0 0 0
SMALL
GASTEIGER

@<TRIPOS>ATOM
      1 C          -8.1149  -18.5894   22.4103 C.ar    1  UNL1        0.0968
      2 S          -8.6317  -17.2938   21.8586 S.2     1  UNL1       -0.0622
      3 C         -10.0826  -17.1810   22.2223 C.ar    1  UNL1        0.1120
      4 N         -11.1068  -16.1204   21.9468 N.ar    1  UNL1       -0.2373
      5 C         -12.5110  -16.2857   22.4477 C.ar    1  UNL1        0.0994
      6 C         -12.8909  -17.5117   23.2241 C.ar    1  UNL1        0.0208
      7 C         -11.8666  -18.5723   23.4996 C.ar    1  UNL1        0.0048
      8 C         -10.4625  -18.4069   22.9987 C.ar    1  UNL1        0.0374
      9 C          -9.2464  -19.2774   23.1149 C.ar    1  UNL1        0.0540
     10 N          -9.1744  -20.6030   23.8131 N.pl3   1  UNL1       -0.3564
     11 H          -9.9755  -20.9739   24.2489 H       1  UNL1        0.1424
     12 H          -8.3261  -21.1022   23.8355 H       1  UNL1        0.1424
     13 N          -5.5558  -18.1523   22.3119 N.am    1  UNL1       -0.3249
     14 C          -6.7128  -19.1064   22.2801 C.2     1  UNL1        0.2500
     15 O          -6.4677  -20.5773   22.1182 O.2     1  UNL1       -0.2698
     16 H          -4.6355  -18.4916   22.2264 H       1  UNL1        0.1453
     17 H          -5.7166  -17.1869   22.4181 H       1  UNL1        0.1453
@<TRIPOS>BOND
     1    13    14   am
     2    14    15    2
     3    14     1    1
     4     1     2   ar
     5     2     3   ar
     6     3     4   ar
     7     4     5   ar
     8     5     6   ar
     9     6     7   ar
    10     7     8   ar
    11     8     9   ar
    12     9    10    1
    13     9     1   ar
    14     8     3   ar
    15    13    16    1
    16    13    17    1
    17    10    11    1
    18    10    12    1
