@<TRIPOS>MOLECULE
*****
 33 37 0 0 0
SMALL
GASTEIGER

@<TRIPOS>ATOM
      1 N           4.3751   -1.1743   19.2770 N.ar    1  UNL1       -0.2690
      2 C           5.1893   -1.8133   18.1914 C.ar    1  UNL1        0.1975
      3 N           4.6417   -1.3572   16.8715 N.ar    1  UNL1       -0.1218
      4 N           3.4889   -0.4362   17.1414 N.ar    1  UNL1       -0.1279
      5 C           3.3241   -0.3232   18.6281 C.ar    1  UNL1        0.1707
      6 C           4.9790   -1.7154   23.7033 C.ar    1  UNL1        0.1388
      7 C           5.3549   -0.4196   23.0480 C.ar    1  UNL1        0.0384
      8 C           5.1536   -0.2392   21.5725 C.ar    1  UNL1        0.0207
      9 C           4.5764   -1.3546   20.7524 C.ar    1  UNL1        0.0674
     10 C           4.2005   -2.6504   21.4078 C.ar    1  UNL1        0.0207
     11 C           4.4018   -2.8308   22.8832 C.ar    1  UNL1        0.0384
     12 C           6.3616   -1.2674   25.8569 C.3     1  UNL1        0.2525
     13 O           5.1804   -1.8958   25.1788 O.3     1  UNL1       -0.4714
     14 C           2.2899    0.4970   19.3407 C.ar    1  UNL1        0.0394
     15 C           1.0927   -0.1704   19.9502 C.ar    1  UNL1        0.0237
     16 C           0.0585    0.6498   20.6628 C.ar    1  UNL1        0.0990
     17 N           0.2215    2.1373   20.7659 N.ar    1  UNL1       -0.2423
     18 C           1.4186    2.8047   20.1564 C.ar    1  UNL1        0.0990
     19 C           2.4528    1.9845   19.4438 C.ar    1  UNL1        0.0237
     20 S           6.3480   -2.7449   18.3906 S.3     1  UNL1       -0.0653
     21 C           7.5887   -2.2618   19.0812 C.3     1  UNL1        0.1528
     22 C           7.8361   -2.6202   20.5166 C.ar    1  UNL1        0.2480
     23 N           7.5972   -3.9615   21.1442 N.ar    1  UNL1       -0.1900
     24 C           7.9793   -3.8705   22.5919 C.ar    1  UNL1        0.2033
     25 N           8.4544   -2.4729   22.8590 N.ar    1  UNL1       -0.0560
     26 O           8.3659   -1.7002   21.5763 O.2     1  UNL1       -0.3361
     27 C           7.9002   -4.9818   23.5962 C.ar    1  UNL1        0.0391
     28 C           8.5308   -6.3095   23.2968 C.ar    1  UNL1        0.0028
     29 C           8.4517   -7.4209   24.3011 C.ar    1  UNL1       -0.0042
     30 C           7.7421   -7.2045   25.6048 C.ar    1  UNL1       -0.0218
     31 C           7.6629   -8.3158   26.6092 C.3     1  UNL1        0.0310
     32 C           7.1115   -5.8768   25.9042 C.ar    1  UNL1       -0.0042
     33 C           7.1906   -4.7654   24.8998 C.ar    1  UNL1        0.0028
@<TRIPOS>BOND
     1    12    13    1
     2    13     6    1
     3     6     7   ar
     4     7     8   ar
     5     8     9   ar
     6     9     1    1
     7     1     2   ar
     8     2    20    1
     9    20    21    1
    10    21    22    1
    11    22    23   ar
    12    23    24   ar
    13    24    27    1
    14    27    28   ar
    15    28    29   ar
    16    29    30   ar
    17    30    31    1
    18    30    32   ar
    19    32    33   ar
    20    24    25   ar
    21    25    26   ar
    22     2     3   ar
    23     3     4   ar
    24     4     5   ar
    25     5    14    1
    26    14    15   ar
    27    15    16   ar
    28    16    17   ar
    29    17    18   ar
    30    18    19   ar
    31     9    10   ar
    32    10    11   ar
    33    11     6   ar
    34     5     1   ar
    35    19    14   ar
    36    26    22   ar
    37    33    27   ar
@<TRIPOS>MOLECULE
*****
 33 37 0 0 0
SMALL
GASTEIGER

@<TRIPOS>ATOM
      1 N          -0.8127    3.0003   25.1078 N.ar    1  UNL1       -0.2690
      2 C          -1.8390    3.8255   24.3897 C.ar    1  UNL1        0.1975
      3 N          -2.9443    4.1340   25.3556 N.ar    1  UNL1       -0.1218
      4 N          -2.6012    3.4995   26.6708 N.ar    1  UNL1       -0.1279
      5 C          -1.2838    2.7988   26.5176 C.ar    1  UNL1        0.1707
      6 C           3.0085    1.4086   23.3429 C.ar    1  UNL1        0.1388
      7 C           2.8196    2.8869   23.5129 C.ar    1  UNL1        0.0384
      8 C           1.5458    3.4174   24.1012 C.ar    1  UNL1        0.0207
      9 C           0.4611    2.4697   24.5195 C.ar    1  UNL1        0.0674
     10 C           0.6500    0.9914   24.3495 C.ar    1  UNL1        0.0207
     11 C           1.9237    0.4609   23.7612 C.ar    1  UNL1        0.0384
     12 C           4.7115    1.3087   21.3834 C.3     1  UNL1        0.2525
     13 O           4.2822    0.8780   22.7546 O.3     1  UNL1       -0.4714
     14 C          -0.5638    2.0314   27.5866 C.ar    1  UNL1        0.0394
     15 C          -0.9278    0.6016   27.8577 C.ar    1  UNL1        0.0237
     16 C          -0.2079   -0.1658   28.9267 C.ar    1  UNL1        0.0990
     17 N           0.8760    0.4964   29.7246 N.ar    1  UNL1       -0.2423
     18 C           1.2399    1.9261   29.4535 C.ar    1  UNL1        0.0990
     19 C           0.5200    2.6935   28.3845 C.ar    1  UNL1        0.0237
     20 S          -1.7717    4.2650   22.9571 S.3     1  UNL1       -0.0653
     21 C          -2.2028    3.3315   21.8651 C.3     1  UNL1        0.1528
     22 C          -1.2109    2.8676   20.8399 C.ar    1  UNL1        0.2480
     23 N          -0.3103    1.6742   20.9612 N.ar    1  UNL1       -0.1900
     24 C           0.5117    1.5847   19.7097 C.ar    1  UNL1        0.2033
     25 N           0.1191    2.7228   18.8148 N.ar    1  UNL1       -0.0560
     26 O          -0.9456    3.5157   19.5134 O.2     1  UNL1       -0.3361
     27 C           1.5449    0.5405   19.4062 C.ar    1  UNL1        0.0391
     28 C           1.6867   -0.6561   20.2994 C.ar    1  UNL1        0.0028
     29 C           2.7199   -1.7003   19.9959 C.ar    1  UNL1       -0.0042
     30 C           3.6112   -1.5479   18.7991 C.ar    1  UNL1       -0.0218
     31 C           4.6445   -2.5921   18.4955 C.3     1  UNL1        0.0310
     32 C           3.4693   -0.3512   17.9059 C.ar    1  UNL1       -0.0042
     33 C           2.4362    0.6930   18.2094 C.ar    1  UNL1        0.0028
@<TRIPOS>BOND
     1    12    13    1
     2    13     6    1
     3     6     7   ar
     4     7     8   ar
     5     8     9   ar
     6     9     1    1
     7     1     2   ar
     8     2    20    1
     9    20    21    1
    10    21    22    1
    11    22    23   ar
    12    23    24   ar
    13    24    27    1
    14    27    28   ar
    15    28    29   ar
    16    29    30   ar
    17    30    31    1
    18    30    32   ar
    19    32    33   ar
    20    24    25   ar
    21    25    26   ar
    22     2     3   ar
    23     3     4   ar
    24     4     5   ar
    25     5    14    1
    26    14    15   ar
    27    15    16   ar
    28    16    17   ar
    29    17    18   ar
    30    18    19   ar
    31     9    10   ar
    32    10    11   ar
    33    11     6   ar
    34     5     1   ar
    35    19    14   ar
    36    26    22   ar
    37    33    27   ar
@<TRIPOS>MOLECULE
*****
 33 37 0 0 0
SMALL
GASTEIGER

@<TRIPOS>ATOM
      1 N           5.8891   -1.7052   19.8942 N.ar    1  UNL1       -0.2690
      2 C           7.1558   -2.1880   19.2519 C.ar    1  UNL1        0.1975
      3 N           6.9925   -2.0785   17.7649 N.ar    1  UNL1       -0.1218
      4 N           5.6249   -1.5280   17.4880 N.ar    1  UNL1       -0.1279
      5 C           4.9430   -1.2973   18.8040 C.ar    1  UNL1        0.1707
      6 C           5.0711   -1.5142   24.3151 C.ar    1  UNL1        0.1388
      7 C           5.7224   -0.3543   23.6220 C.ar    1  UNL1        0.0384
      8 C           5.9951   -0.4180   22.1484 C.ar    1  UNL1        0.0207
      9 C           5.6164   -1.6416   21.3678 C.ar    1  UNL1        0.0674
     10 C           4.9651   -2.8015   22.0608 C.ar    1  UNL1        0.0207
     11 C           4.6924   -2.7378   23.5344 C.ar    1  UNL1        0.0384
     12 C           3.6057   -0.6975   26.2989 C.3     1  UNL1        0.2525
     13 O           4.7984   -1.4506   25.7887 O.3     1  UNL1       -0.4714
     14 C           3.5581   -0.7541   18.9960 C.ar    1  UNL1        0.0394
     15 C           2.6207   -1.4147   19.9631 C.ar    1  UNL1        0.0237
     16 C           1.2358   -0.8715   20.1552 C.ar    1  UNL1        0.0990
     17 N           0.7882    0.3323   19.3802 N.ar    1  UNL1       -0.2423
     18 C           1.7255    0.9928   18.4132 C.ar    1  UNL1        0.0990
     19 C           3.1104    0.4496   18.2211 C.ar    1  UNL1        0.0237
     20 S           8.3722   -2.6919   19.9706 S.3     1  UNL1       -0.0653
     21 C           8.5507   -4.1630   20.2025 C.3     1  UNL1        0.1528
     22 C           8.3058   -4.7428   21.5640 C.ar    1  UNL1        0.2480
     23 N           8.0168   -3.9659   22.8142 N.ar    1  UNL1       -0.1900
     24 C           7.8393   -4.9443   23.9373 C.ar    1  UNL1        0.2033
     25 N           8.0185   -6.3259   23.3812 N.ar    1  UNL1       -0.0560
     26 O           8.3068   -6.2013   21.9144 O.2     1  UNL1       -0.3361
     27 C           7.5358   -4.6013   25.3657 C.ar    1  UNL1        0.0391
     28 C           7.9097   -3.2542   25.9093 C.ar    1  UNL1        0.0028
     29 C           7.6062   -2.9113   27.3377 C.ar    1  UNL1       -0.0042
     30 C           6.9288   -3.9155   28.2224 C.ar    1  UNL1       -0.0218
     31 C           6.6252   -3.5726   29.6508 C.3     1  UNL1        0.0310
     32 C           6.5549   -5.2626   27.6788 C.ar    1  UNL1       -0.0042
     33 C           6.8584   -5.6055   26.2504 C.ar    1  UNL1        0.0028
@<TRIPOS>BOND
     1    12    13    1
     2    13     6    1
     3     6     7   ar
     4     7     8   ar
     5     8     9   ar
     6     9     1    1
     7     1     2   ar
     8     2    20    1
     9    20    21    1
    10    21    22    1
    11    22    23   ar
    12    23    24   ar
    13    24    27    1
    14    27    28   ar
    15    28    29   ar
    16    29    30   ar
    17    30    31    1
    18    30    32   ar
    19    32    33   ar
    20    24    25   ar
    21    25    26   ar
    22     2     3   ar
    23     3     4   ar
    24     4     5   ar
    25     5    14    1
    26    14    15   ar
    27    15    16   ar
    28    16    17   ar
    29    17    18   ar
    30    18    19   ar
    31     9    10   ar
    32    10    11   ar
    33    11     6   ar
    34     5     1   ar
    35    19    14   ar
    36    26    22   ar
    37    33    27   ar
@<TRIPOS>MOLECULE
*****
 33 37 0 0 0
SMALL
GASTEIGER

@<TRIPOS>ATOM
      1 N          -0.8923    2.9997   25.2106 N.ar    1  UNL1       -0.2690
      2 C          -0.4696    3.0446   23.7721 C.ar    1  UNL1        0.1975
      3 N           0.7190    2.1441   23.6099 N.ar    1  UNL1       -0.1218
      4 N           1.0309    1.5426   24.9482 N.ar    1  UNL1       -0.1279
      5 C           0.0351    2.0714   25.9375 C.ar    1  UNL1        0.1707
      6 C          -4.3376    5.2540   27.0267 C.ar    1  UNL1        0.1388
      7 C          -2.9301    5.7113   27.2708 C.ar    1  UNL1        0.0384
      8 C          -1.7817    4.9599   26.6655 C.ar    1  UNL1        0.0207
      9 C          -2.0407    3.7511   25.8160 C.ar    1  UNL1        0.0674
     10 C          -3.4483    3.2938   25.5718 C.ar    1  UNL1        0.0207
     11 C          -4.5967    4.0452   26.1772 C.ar    1  UNL1        0.0384
     12 C          -6.7349    6.2366   26.8341 C.3     1  UNL1        0.2525
     13 O          -5.4861    6.0054   27.6321 O.3     1  UNL1       -0.4714
     14 C          -0.0232    1.7316   27.3973 C.ar    1  UNL1        0.0394
     15 C           0.7534    2.5467   28.3887 C.ar    1  UNL1        0.0237
     16 C           0.6952    2.2068   29.8485 C.ar    1  UNL1        0.0990
     17 N          -0.1396    1.0520   30.3170 N.ar    1  UNL1       -0.2423
     18 C          -0.9161    0.2370   29.3257 C.ar    1  UNL1        0.0990
     19 C          -0.8579    0.5768   27.8659 C.ar    1  UNL1        0.0237
     20 S          -1.1211    3.8488   22.6864 S.3     1  UNL1       -0.0653
     21 C          -1.6791    3.1613   21.4757 C.3     1  UNL1        0.1528
     22 C          -0.7524    2.5850   20.4466 C.ar    1  UNL1        0.2480
     23 N           0.1643    1.4140   20.6426 N.ar    1  UNL1       -0.1900
     24 C           0.9035    1.1839   19.3579 C.ar    1  UNL1        0.2033
     25 N           0.4438    2.2127   18.3678 N.ar    1  UNL1       -0.0560
     26 O          -0.5796    3.0787   19.0407 O.2     1  UNL1       -0.3361
     27 C           1.9235    0.1130   19.1072 C.ar    1  UNL1        0.0391
     28 C           2.7848    0.1700   17.8804 C.ar    1  UNL1        0.0028
     29 C           3.8048   -0.9009   17.6297 C.ar    1  UNL1       -0.0042
     30 C           3.9634   -2.0288   18.6058 C.ar    1  UNL1       -0.0218
     31 C           4.9833   -3.0998   18.3552 C.3     1  UNL1        0.0310
     32 C           3.1021   -2.0858   19.8325 C.ar    1  UNL1       -0.0042
     33 C           2.0821   -1.0149   20.0832 C.ar    1  UNL1        0.0028
@<TRIPOS>BOND
     1    12    13    1
     2    13     6    1
     3     6     7   ar
     4     7     8   ar
     5     8     9   ar
     6     9     1    1
     7     1     2   ar
     8     2    20    1
     9    20    21    1
    10    21    22    1
    11    22    23   ar
    12    23    24   ar
    13    24    27    1
    14    27    28   ar
    15    28    29   ar
    16    29    30   ar
    17    30    31    1
    18    30    32   ar
    19    32    33   ar
    20    24    25   ar
    21    25    26   ar
    22     2     3   ar
    23     3     4   ar
    24     4     5   ar
    25     5    14    1
    26    14    15   ar
    27    15    16   ar
    28    16    17   ar
    29    17    18   ar
    30    18    19   ar
    31     9    10   ar
    32    10    11   ar
    33    11     6   ar
    34     5     1   ar
    35    19    14   ar
    36    26    22   ar
    37    33    27   ar
@<TRIPOS>MOLECULE
*****
 33 37 0 0 0
SMALL
GASTEIGER

@<TRIPOS>ATOM
      1 N           4.8667   -0.8564   18.5400 N.ar    1  UNL1       -0.2690
      2 C           5.2430   -2.2673   18.1969 C.ar    1  UNL1        0.1975
      3 N           6.6680   -2.2661   17.7283 N.ar    1  UNL1       -0.1218
      4 N           7.1723   -0.8544   17.7818 N.ar    1  UNL1       -0.1279
      5 C           6.0590    0.0168   18.2835 C.ar    1  UNL1        0.1707
      6 C           0.8635    0.5156   20.0703 C.ar    1  UNL1        0.1388
      7 C           1.8552   -0.1006   21.0118 C.ar    1  UNL1        0.0384
      8 C           3.1896   -0.5580   20.5017 C.ar    1  UNL1        0.0207
      9 C           3.5323   -0.3991   19.0501 C.ar    1  UNL1        0.0674
     10 C           2.5405    0.2172   18.1086 C.ar    1  UNL1        0.0207
     11 C           1.2061    0.6745   18.6187 C.ar    1  UNL1        0.0384
     12 C          -0.7795    2.4385   20.6647 C.3     1  UNL1        0.2525
     13 O          -0.4709    0.9730   20.5804 O.3     1  UNL1       -0.4714
     14 C           6.1263    1.5007   18.4920 C.ar    1  UNL1        0.0394
     15 C           5.6892    2.4321   17.4003 C.ar    1  UNL1        0.0237
     16 C           5.7565    3.9160   17.6088 C.ar    1  UNL1        0.0990
     17 N           6.2608    4.4686   18.9089 N.ar    1  UNL1       -0.2423
     18 C           6.6979    3.5372   20.0005 C.ar    1  UNL1        0.0990
     19 C           6.6306    2.0533   19.7920 C.ar    1  UNL1        0.0237
     20 S           4.3511   -3.4686   18.3036 S.3     1  UNL1       -0.0653
     21 C           3.9332   -3.9751   19.6522 C.3     1  UNL1        0.1528
     22 C           4.9274   -4.0291   20.7742 C.ar    1  UNL1        0.2480
     23 N           4.6706   -3.6375   22.1992 N.ar    1  UNL1       -0.1900
     24 C           5.9373   -3.8506   22.9739 C.ar    1  UNL1        0.2033
     25 N           6.9769   -4.3739   22.0276 N.ar    1  UNL1       -0.0560
     26 O           6.3527   -4.4843   20.6681 O.2     1  UNL1       -0.3361
     27 C           6.1305   -3.5867   24.4378 C.ar    1  UNL1        0.0391
     28 C           5.6452   -2.3008   25.0385 C.ar    1  UNL1        0.0028
     29 C           5.8384   -2.0369   26.5024 C.ar    1  UNL1       -0.0042
     30 C           6.5169   -3.0589   27.3656 C.ar    1  UNL1       -0.0218
     31 C           6.7102   -2.7951   28.8295 C.3     1  UNL1        0.0310
     32 C           7.0022   -4.3448   26.7648 C.ar    1  UNL1       -0.0042
     33 C           6.8090   -4.6087   25.3009 C.ar    1  UNL1        0.0028
@<TRIPOS>BOND
     1    12    13    1
     2    13     6    1
     3     6     7   ar
     4     7     8   ar
     5     8     9   ar
     6     9     1    1
     7     1     2   ar
     8     2    20    1
     9    20    21    1
    10    21    22    1
    11    22    23   ar
    12    23    24   ar
    13    24    27    1
    14    27    28   ar
    15    28    29   ar
    16    29    30   ar
    17    30    31    1
    18    30    32   ar
    19    32    33   ar
    20    24    25   ar
    21    25    26   ar
    22     2     3   ar
    23     3     4   ar
    24     4     5   ar
    25     5    14    1
    26    14    15   ar
    27    15    16   ar
    28    16    17   ar
    29    17    18   ar
    30    18    19   ar
    31     9    10   ar
    32    10    11   ar
    33    11     6   ar
    34     5     1   ar
    35    19    14   ar
    36    26    22   ar
    37    33    27   ar
@<TRIPOS>MOLECULE
*****
 33 37 0 0 0
SMALL
GASTEIGER

@<TRIPOS>ATOM
      1 N           4.1451   -1.0245   19.2408 N.ar    1  UNL1       -0.2690
      2 C           4.7998   -2.2255   18.6253 C.ar    1  UNL1        0.1975
      3 N           4.6615   -2.1165   17.1356 N.ar    1  UNL1       -0.1218
      4 N           3.9212   -0.8480   16.8305 N.ar    1  UNL1       -0.1279
      5 C           3.6021   -0.1732   18.1316 C.ar    1  UNL1        0.1707
      6 C           3.8599   -0.1322   23.6422 C.ar    1  UNL1        0.1388
      7 C           2.6928   -0.7411   22.9233 C.ar    1  UNL1        0.0384
      8 C           2.7879   -1.0386   21.4561 C.ar    1  UNL1        0.0207
      9 C           4.0500   -0.7271   20.7079 C.ar    1  UNL1        0.0674
     10 C           5.2172   -0.1181   21.4269 C.ar    1  UNL1        0.0207
     11 C           5.1221    0.1793   22.8940 C.ar    1  UNL1        0.0384
     12 C           3.9570   -0.9341   26.1115 C.3     1  UNL1        0.2525
     13 O           3.7649    0.1653   25.1094 O.3     1  UNL1       -0.4714
     14 C           2.8687    1.1251   18.2947 C.ar    1  UNL1        0.0394
     15 C           1.3709    1.1352   18.3772 C.ar    1  UNL1        0.0237
     16 C           0.6376    2.4335   18.5403 C.ar    1  UNL1        0.0990
     17 N           1.4019    3.7217   18.6211 N.ar    1  UNL1       -0.2423
     18 C           2.8995    3.7115   18.5386 C.ar    1  UNL1        0.0990
     19 C           3.6329    2.4132   18.3755 C.ar    1  UNL1        0.0237
     20 S           5.4745   -3.3400   19.3688 S.3     1  UNL1       -0.0653
     21 C           6.7646   -3.0868   20.0908 C.3     1  UNL1        0.1528
     22 C           7.1398   -3.9291   21.2739 C.ar    1  UNL1        0.2480
     23 N           6.7265   -3.6865   22.6953 N.ar    1  UNL1       -0.1900
     24 C           7.3254   -4.7692   23.5433 C.ar    1  UNL1        0.2033
     25 N           8.1089   -5.6809   22.6461 N.ar    1  UNL1       -0.0560
     26 O           7.9942   -5.1616   21.2434 O.2     1  UNL1       -0.3361
     27 C           7.1685   -4.9148   25.0280 C.ar    1  UNL1        0.0391
     28 C           7.4382   -6.2361   25.6847 C.ar    1  UNL1        0.0028
     29 C           7.2813   -6.3816   27.1694 C.ar    1  UNL1       -0.0042
     30 C           6.8546   -5.2058   27.9973 C.ar    1  UNL1       -0.0218
     31 C           6.6976   -5.3512   29.4819 C.3     1  UNL1        0.0310
     32 C           6.5848   -3.8845   27.3405 C.ar    1  UNL1       -0.0042
     33 C           6.7418   -3.7390   25.8559 C.ar    1  UNL1        0.0028
@<TRIPOS>BOND
     1    12    13    1
     2    13     6    1
     3     6     7   ar
     4     7     8   ar
     5     8     9   ar
     6     9     1    1
     7     1     2   ar
     8     2    20    1
     9    20    21    1
    10    21    22    1
    11    22    23   ar
    12    23    24   ar
    13    24    27    1
    14    27    28   ar
    15    28    29   ar
    16    29    30   ar
    17    30    31    1
    18    30    32   ar
    19    32    33   ar
    20    24    25   ar
    21    25    26   ar
    22     2     3   ar
    23     3     4   ar
    24     4     5   ar
    25     5    14    1
    26    14    15   ar
    27    15    16   ar
    28    16    17   ar
    29    17    18   ar
    30    18    19   ar
    31     9    10   ar
    32    10    11   ar
    33    11     6   ar
    34     5     1   ar
    35    19    14   ar
    36    26    22   ar
    37    33    27   ar
@<TRIPOS>MOLECULE
*****
 33 37 0 0 0
SMALL
GASTEIGER

@<TRIPOS>ATOM
      1 N          -2.3925    3.8783   23.2628 N.ar    1  UNL1       -0.2690
      2 C          -1.0701    3.2239   22.9930 C.ar    1  UNL1        0.1975
      3 N          -1.0989    2.6790   21.5957 N.ar    1  UNL1       -0.1218
      4 N          -2.4393    2.9966   21.0020 N.ar    1  UNL1       -0.1279
      5 C          -3.2388    3.7379   22.0323 C.ar    1  UNL1        0.1707
      6 C          -3.6079    5.9068   27.0914 C.ar    1  UNL1        0.1388
      7 C          -3.7891    4.4258   26.9370 C.ar    1  UNL1        0.0384
      8 C          -3.3839    3.7497   25.6608 C.ar    1  UNL1        0.0207
      9 C          -2.7977    4.5545   24.5390 C.ar    1  UNL1        0.0674
     10 C          -2.6165    6.0354   24.6934 C.ar    1  UNL1        0.0207
     11 C          -3.0216    6.7116   25.9696 C.ar    1  UNL1        0.0384
     12 C          -2.9903    7.3122   29.1874 C.3     1  UNL1        0.2525
     13 O          -4.0130    6.5829   28.3676 O.3     1  UNL1       -0.4714
     14 C          -4.6387    4.2489   21.8619 C.ar    1  UNL1        0.0394
     15 C          -5.7311    3.7592   22.7659 C.ar    1  UNL1        0.0237
     16 C          -7.1310    4.2702   22.5955 C.ar    1  UNL1        0.0990
     17 N          -7.4387    5.2709   21.5212 N.ar    1  UNL1       -0.2423
     18 C          -6.3463    5.7605   20.6173 C.ar    1  UNL1        0.0990
     19 C          -4.9464    5.2495   20.7877 C.ar    1  UNL1        0.0237
     20 S           0.0795    3.1308   23.9520 S.3     1  UNL1       -0.0653
     21 C           1.4799    2.9919   23.4330 C.3     1  UNL1        0.1528
     22 C           2.1335    1.6425   23.3897 C.ar    1  UNL1        0.2480
     23 N           2.3165    0.7904   22.1689 N.ar    1  UNL1       -0.1900
     24 C           3.0149   -0.4705   22.5842 C.ar    1  UNL1        0.2033
     25 N           3.2634   -0.3977   24.0617 N.ar    1  UNL1       -0.0560
     26 O           2.7186    0.9083   24.5595 O.2     1  UNL1       -0.3361
     27 C           3.3976   -1.6051   21.6807 C.ar    1  UNL1        0.0391
     28 C           4.1889   -2.7595   22.2203 C.ar    1  UNL1        0.0028
     29 C           4.5716   -3.8940   21.3168 C.ar    1  UNL1       -0.0042
     30 C           4.1629   -3.8742   19.8737 C.ar    1  UNL1       -0.0218
     31 C           4.5455   -5.0087   18.9701 C.3     1  UNL1        0.0310
     32 C           3.3715   -2.7198   19.3341 C.ar    1  UNL1       -0.0042
     33 C           2.9888   -1.5853   20.2376 C.ar    1  UNL1        0.0028
@<TRIPOS>BOND
     1    12    13    1
     2    13     6    1
     3     6     7   ar
     4     7     8   ar
     5     8     9   ar
     6     9     1    1
     7     1     2   ar
     8     2    20    1
     9    20    21    1
    10    21    22    1
    11    22    23   ar
    12    23    24   ar
    13    24    27    1
    14    27    28   ar
    15    28    29   ar
    16    29    30   ar
    17    30    31    1
    18    30    32   ar
    19    32    33   ar
    20    24    25   ar
    21    25    26   ar
    22     2     3   ar
    23     3     4   ar
    24     4     5   ar
    25     5    14    1
    26    14    15   ar
    27    15    16   ar
    28    16    17   ar
    29    17    18   ar
    30    18    19   ar
    31     9    10   ar
    32    10    11   ar
    33    11     6   ar
    34     5     1   ar
    35    19    14   ar
    36    26    22   ar
    37    33    27   ar
@<TRIPOS>MOLECULE
*****
 33 37 0 0 0
SMALL
GASTEIGER

@<TRIPOS>ATOM
      1 N           7.7004   -4.2948   23.4425 N.ar    1  UNL1       -0.2690
      2 C           8.4955   -4.9045   22.3262 C.ar    1  UNL1        0.1975
      3 N           9.4527   -5.8923   22.9245 N.ar    1  UNL1       -0.1218
      4 N           9.2492   -5.8932   24.4106 N.ar    1  UNL1       -0.1279
      5 C           8.1662   -4.9059   24.7307 C.ar    1  UNL1        0.1707
      6 C           4.4828   -1.1797   23.0036 C.ar    1  UNL1        0.1388
      7 C           5.8562   -0.7808   23.4559 C.ar    1  UNL1        0.0384
      8 C           6.9287   -1.8192   23.6022 C.ar    1  UNL1        0.0207
      9 C           6.6279   -3.2564   23.2962 C.ar    1  UNL1        0.0674
     10 C           5.2545   -3.6553   22.8439 C.ar    1  UNL1        0.0207
     11 C           4.1819   -2.6169   22.6976 C.ar    1  UNL1        0.0384
     12 C           3.7436    1.2065   22.2896 C.3     1  UNL1        0.2525
     13 O           3.4102   -0.1413   22.8573 O.3     1  UNL1       -0.4714
     14 C           7.6412   -4.5858   26.0989 C.ar    1  UNL1        0.0394
     15 C           6.7040   -5.5360   26.7838 C.ar    1  UNL1        0.0237
     16 C           6.1790   -5.2159   28.1520 C.ar    1  UNL1        0.0990
     17 N           6.5912   -3.9458   28.8354 N.ar    1  UNL1       -0.2423
     18 C           7.5284   -2.9958   28.1505 C.ar    1  UNL1        0.0990
     19 C           8.0533   -3.3158   26.7823 C.ar    1  UNL1        0.0237
     20 S           8.3577   -4.5828   20.8676 S.3     1  UNL1       -0.0653
     21 C           8.6625   -3.2002   20.3724 C.3     1  UNL1        0.1528
     22 C           7.6709   -2.4767   19.5102 C.ar    1  UNL1        0.2480
     23 N           6.4291   -1.7830   19.9865 N.ar    1  UNL1       -0.1900
     24 C           5.7377   -1.1974   18.7911 C.ar    1  UNL1        0.2033
     25 N           6.5522   -1.5292   17.5759 N.ar    1  UNL1       -0.0560
     26 O           7.7470   -2.3198   18.0204 O.2     1  UNL1       -0.3361
     27 C           4.4568   -0.4171   18.8078 C.ar    1  UNL1        0.0391
     28 C           4.4314    0.9938   18.2993 C.ar    1  UNL1        0.0028
     29 C           3.1505    1.7742   18.3160 C.ar    1  UNL1       -0.0042
     30 C           1.8949    1.1435   18.8413 C.ar    1  UNL1       -0.0218
     31 C           0.6139    1.9237   18.8580 C.3     1  UNL1        0.0310
     32 C           1.9203   -0.2675   19.3497 C.ar    1  UNL1       -0.0042
     33 C           3.2013   -1.0478   19.3330 C.ar    1  UNL1        0.0028
@<TRIPOS>BOND
     1    12    13    1
     2    13     6    1
     3     6     7   ar
     4     7     8   ar
     5     8     9   ar
     6     9     1    1
     7     1     2   ar
     8     2    20    1
     9    20    21    1
    10    21    22    1
    11    22    23   ar
    12    23    24   ar
    13    24    27    1
    14    27    28   ar
    15    28    29   ar
    16    29    30   ar
    17    30    31    1
    18    30    32   ar
    19    32    33   ar
    20    24    25   ar
    21    25    26   ar
    22     2     3   ar
    23     3     4   ar
    24     4     5   ar
    25     5    14    1
    26    14    15   ar
    27    15    16   ar
    28    16    17   ar
    29    17    18   ar
    30    18    19   ar
    31     9    10   ar
    32    10    11   ar
    33    11     6   ar
    34     5     1   ar
    35    19    14   ar
    36    26    22   ar
    37    33    27   ar
@<TRIPOS>MOLECULE
*****
 33 37 0 0 0
SMALL
GASTEIGER

@<TRIPOS>ATOM
      1 N           0.2798    3.5625   25.1820 N.ar    1  UNL1       -0.2690
      2 C           1.2049    3.9586   24.0697 C.ar    1  UNL1        0.1975
      3 N           2.5206    3.2742   24.2951 N.ar    1  UNL1       -0.1218
      4 N           2.4086    2.4552   25.5468 N.ar    1  UNL1       -0.1279
      5 C           1.0237    2.6333   26.0949 C.ar    1  UNL1        0.1707
      6 C          -3.9794    4.9228   25.6910 C.ar    1  UNL1        0.1388
      7 C          -3.6627    3.7741   24.7798 C.ar    1  UNL1        0.0384
      8 C          -2.2430    3.3207   24.6102 C.ar    1  UNL1        0.0207
      9 C          -1.1399    4.0159   25.3517 C.ar    1  UNL1        0.0674
     10 C          -1.4566    5.1645   26.2629 C.ar    1  UNL1        0.0207
     11 C          -2.8763    5.6180   26.4325 C.ar    1  UNL1        0.0384
     12 C          -5.8793    5.8529   27.1994 C.3     1  UNL1        0.2525
     13 O          -5.3991    5.3762   25.8607 O.3     1  UNL1       -0.4714
     14 C           0.4785    1.9945   27.3377 C.ar    1  UNL1        0.0394
     15 C           0.9870    2.4182   28.6839 C.ar    1  UNL1        0.0237
     16 C           0.4417    1.7794   29.9267 C.ar    1  UNL1        0.0990
     17 N          -0.6119    0.7168   29.8234 N.ar    1  UNL1       -0.2423
     18 C          -1.1204    0.2931   28.4774 C.ar    1  UNL1        0.0990
     19 C          -0.5751    0.9319   27.2345 C.ar    1  UNL1        0.0237
     20 S           0.8728    4.8776   22.9318 S.3     1  UNL1       -0.0653
     21 C           0.0288    4.3868   21.7931 C.3     1  UNL1        0.1528
     22 C           0.2015    2.9879   21.2800 C.ar    1  UNL1        0.2480
     23 N           1.4837    2.3783   20.7960 N.ar    1  UNL1       -0.1900
     24 C           1.1969    0.9667   20.3778 C.ar    1  UNL1        0.2033
     25 N          -0.2625    0.7037   20.6033 N.ar    1  UNL1       -0.0560
     26 O          -0.8778    1.9530   21.1610 O.2     1  UNL1       -0.3361
     27 C           2.1945   -0.0106   19.8301 C.ar    1  UNL1        0.0391
     28 C           2.5794   -1.2183   20.6322 C.ar    1  UNL1        0.0028
     29 C           3.5770   -2.1956   20.0845 C.ar    1  UNL1       -0.0042
     30 C           4.1895   -1.9651   18.7348 C.ar    1  UNL1       -0.0218
     31 C           5.1870   -2.9423   18.1871 C.3     1  UNL1        0.0310
     32 C           3.8045   -0.7574   17.9328 C.ar    1  UNL1       -0.0042
     33 C           2.8070    0.2199   18.4804 C.ar    1  UNL1        0.0028
@<TRIPOS>BOND
     1    12    13    1
     2    13     6    1
     3     6     7   ar
     4     7     8   ar
     5     8     9   ar
     6     9     1    1
     7     1     2   ar
     8     2    20    1
     9    20    21    1
    10    21    22    1
    11    22    23   ar
    12    23    24   ar
    13    24    27    1
    14    27    28   ar
    15    28    29   ar
    16    29    30   ar
    17    30    31    1
    18    30    32   ar
    19    32    33   ar
    20    24    25   ar
    21    25    26   ar
    22     2     3   ar
    23     3     4   ar
    24     4     5   ar
    25     5    14    1
    26    14    15   ar
    27    15    16   ar
    28    16    17   ar
    29    17    18   ar
    30    18    19   ar
    31     9    10   ar
    32    10    11   ar
    33    11     6   ar
    34     5     1   ar
    35    19    14   ar
    36    26    22   ar
    37    33    27   ar
