@<TRIPOS>MOLECULE
*****
 40 44 0 0 0
SMALL
GASTEIGER

@<TRIPOS>ATOM
      1 C           6.7426   -2.2162   27.5559 C.3     1  UNL1        0.0177
      2 C           5.7025   -1.4665   28.3347 C.3     1  UNL1        0.0627
      3 C           4.5036   -0.9004   27.6332 C.3     1  UNL1        0.0436
      4 C           3.4636   -0.1507   28.4119 C.2     1  UNL1       -0.0044
      5 C           3.6226    0.0329   29.8921 C.2     1  UNL1        0.0735
      6 N           2.4423    0.8121   30.3918 N.2     1  UNL1       -0.2523
      7 C           1.5539    1.1100   29.2205 C.2     1  UNL1        0.0629
      8 C           0.2517    1.8463   29.1102 C.3     1  UNL1        0.0741
      9 C          -0.4193    1.9875   27.7761 C.2     1  UNL1        0.0098
     10 C           0.2120    1.3924   26.5524 C.2     1  UNL1        0.1363
     11 F          -0.4591    1.5337   25.2182 F       1  UNL1       -0.2045
     12 C           1.5141    0.6562   26.6627 C.2     1  UNL1        0.0302
     13 C           2.1851    0.5150   27.9968 C.2     1  UNL1        0.0134
     14 C           4.8215   -0.5332   30.5936 C.3     1  UNL1        0.1250
     15 N           5.8615   -1.2829   29.8149 N.3     1  UNL1       -0.2618
     16 C           4.9805   -0.3496   32.0738 C.ar    1  UNL1        0.0529
     17 C           5.6544    0.8789   32.6090 C.ar    1  UNL1        0.1411
     18 F           6.1694    1.9238   31.6641 F       1  UNL1       -0.2043
     19 C           5.8134    1.0624   34.0893 C.ar    1  UNL1        0.0438
     20 C           5.2984    0.0175   35.0342 C.ar    1  UNL1        0.0492
     21 C           4.6244   -1.2110   34.4989 C.ar    1  UNL1        0.0438
     22 C           4.4655   -1.3945   33.0188 C.ar    1  UNL1        0.1411
     23 F           3.7915   -2.6230   32.4834 F       1  UNL1       -0.2043
     24 N           5.4574    0.2011   36.5144 N.pl3   1  UNL1       -0.3316
     25 H           6.2312   -0.1921   36.9789 H       1  UNL1        0.1468
     26 C           4.4373    0.9839   37.2869 C.3     1  UNL1        0.1014
     27 C           3.0630    1.5109   36.9978 C.3     1  UNL1        0.0933
     28 N           2.9948    2.0908   38.3795 N.3     1  UNL1       -0.2697
     29 C           4.3690    1.5638   38.6686 C.3     1  UNL1        0.0933
     30 C           1.9747    2.8736   39.1520 C.3     1  UNL1        0.0751
     31 C           0.7470    2.1913   39.6786 C.3     1  UNL1        0.0554
     32 C           0.8311    0.7819   40.1848 C.3     1  UNL1        0.1947
     33 F           0.9419   -0.3578   39.2159 F       1  UNL1       -0.2343
     34 C           7.0605   -1.8489   30.5164 C.3     1  UNL1        0.1425
     35 C           6.9331   -3.1078   31.3219 C.3     1  UNL1        0.3049
     36 F           6.1884   -3.7553   30.1923 F       1  UNL1       -0.2001
     37 F           7.6778   -2.4603   32.4516 F       1  UNL1       -0.2001
     38 C           6.8058   -4.3667   32.1275 C.3     1  UNL1        0.2057
     39 O           6.5501   -5.6749   31.4393 O.3     1  UNL1       -0.3771
     40 H           5.6726   -5.6569   31.0264 H       1  UNL1        0.2106
@<TRIPOS>BOND
     1     2     1    1
     2     2     3    1
     3     3     4    1
     4     4     5    2
     5     5     6    1
     6     6     7    2
     7     7     8    1
     8     8     9    1
     9     9    10    2
    10    10    11    1
    11    10    12    1
    12    12    13    2
    13     5    14    1
    14    14    16    1
    15    16    17   ar
    16    17    18    1
    17    17    19   ar
    18    19    20   ar
    19    20    24    1
    20    24    26    1
    21    26    27    1
    22    27    28    1
    23    28    30    1
    24    30    31    1
    25    31    32    1
    26    32    33    1
    27    28    29    1
    28    20    21   ar
    29    21    22   ar
    30    22    23    1
    31    14    15    1
    32    15    34    1
    33    34    35    1
    34    35    36    1
    35    35    37    1
    36    35    38    1
    37    38    39    1
    38    15     2    1
    39    13     4    1
    40    22    16   ar
    41    13     7    1
    42    29    26    1
    43    24    25    1
    44    39    40    1
@<TRIPOS>MOLECULE
*****
 40 44 0 0 0
SMALL
GASTEIGER

@<TRIPOS>ATOM
      1 C           4.8425   -3.9171   20.9073 C.3     1  UNL1        0.0177
      2 C           4.2549   -2.6743   21.5077 C.3     1  UNL1        0.0627
      3 C           4.2862   -2.4722   22.9937 C.3     1  UNL1        0.0436
      4 C           3.6987   -1.2295   23.5941 C.2     1  UNL1       -0.0044
      5 C           3.0800   -0.1889   22.7084 C.2     1  UNL1        0.0735
      6 N           2.5833    0.9260   23.5804 N.2     1  UNL1       -0.2523
      7 C           2.8951    0.5745   25.0049 C.2     1  UNL1        0.0629
      8 C           2.6404    1.2953   26.2954 C.3     1  UNL1        0.0741
      9 C           3.0750    0.6840   27.5944 C.2     1  UNL1        0.0098
     10 C           3.7643   -0.6482   27.6028 C.2     1  UNL1        0.1363
     11 F           4.1990   -1.2596   28.9018 F       1  UNL1       -0.2045
     12 C           4.0191   -1.3691   26.3123 C.2     1  UNL1        0.0302
     13 C           3.5845   -0.7577   25.0134 C.2     1  UNL1        0.0134
     14 C           3.0487   -0.3910   21.2224 C.3     1  UNL1        0.1250
     15 N           3.6362   -1.6337   20.6220 N.3     1  UNL1       -0.2618
     16 C           2.4300    0.6496   20.3368 C.ar    1  UNL1        0.0529
     17 C           3.2566    1.7974   19.8377 C.ar    1  UNL1        0.1411
     18 F           4.7019    1.9047   20.2243 F       1  UNL1       -0.2043
     19 C           2.6378    2.8380   18.9521 C.ar    1  UNL1        0.0438
     20 C           1.1924    2.7307   18.5655 C.ar    1  UNL1        0.0492
     21 C           0.3658    1.5828   19.0646 C.ar    1  UNL1        0.0438
     22 C           0.9846    0.5423   19.9502 C.ar    1  UNL1        0.1411
     23 F           0.1580   -0.6056   20.4493 F       1  UNL1       -0.2043
     24 N           0.5737    3.7713   17.6799 N.pl3   1  UNL1       -0.3316
     25 H           1.1383    4.2934   17.0652 H       1  UNL1        0.1468
     26 C          -0.9053    4.0164   17.7308 C.3     1  UNL1        0.1014
     27 C          -2.0289    3.9330   16.7406 C.3     1  UNL1        0.0933
     28 N          -2.9968    4.3630   17.8028 N.3     1  UNL1       -0.2697
     29 C          -1.8732    4.4464   18.7930 C.3     1  UNL1        0.0933
     30 C          -4.4758    4.6081   17.8537 C.3     1  UNL1        0.0751
     31 C          -5.3871    3.5756   18.4481 C.3     1  UNL1        0.0554
     32 C          -5.5984    3.5270   19.9323 C.3     1  UNL1        0.1947
     33 F          -4.5768    2.8725   20.8144 F       1  UNL1       -0.2343
     34 C           3.6050   -1.8358   19.1360 C.3     1  UNL1        0.1425
     35 C           4.4943   -1.0162   18.2488 C.3     1  UNL1        0.3049
     36 F           5.6941   -1.4881   19.0155 F       1  UNL1       -0.2001
     37 F           3.2946   -0.5444   17.4821 F       1  UNL1       -0.2001
     38 C           5.3837   -0.1966   17.3615 C.3     1  UNL1        0.2057
     39 O           6.7714   -0.6710   17.0463 O.3     1  UNL1       -0.3771
     40 H           7.3051   -0.6704   17.8562 H       1  UNL1        0.2106
@<TRIPOS>BOND
     1     2     1    1
     2     2     3    1
     3     3     4    1
     4     4     5    2
     5     5     6    1
     6     6     7    2
     7     7     8    1
     8     8     9    1
     9     9    10    2
    10    10    11    1
    11    10    12    1
    12    12    13    2
    13     5    14    1
    14    14    16    1
    15    16    17   ar
    16    17    18    1
    17    17    19   ar
    18    19    20   ar
    19    20    24    1
    20    24    26    1
    21    26    27    1
    22    27    28    1
    23    28    30    1
    24    30    31    1
    25    31    32    1
    26    32    33    1
    27    28    29    1
    28    20    21   ar
    29    21    22   ar
    30    22    23    1
    31    14    15    1
    32    15    34    1
    33    34    35    1
    34    35    36    1
    35    35    37    1
    36    35    38    1
    37    38    39    1
    38    15     2    1
    39    13     4    1
    40    22    16   ar
    41    13     7    1
    42    29    26    1
    43    24    25    1
    44    39    40    1
@<TRIPOS>MOLECULE
*****
 40 44 0 0 0
SMALL
GASTEIGER

@<TRIPOS>ATOM
      1 C           2.3263    2.0570   23.4093 C.3     1  UNL1        0.0177
      2 C           1.1686    2.3852   24.3049 C.3     1  UNL1        0.0627
      3 C          -0.1591    2.7515   23.7107 C.3     1  UNL1        0.0436
      4 C          -1.3167    3.0797   24.6063 C.2     1  UNL1       -0.0044
      5 C          -1.1467    3.0417   26.0961 C.2     1  UNL1        0.0735
      6 N          -2.4588    3.4112   26.7220 N.2     1  UNL1       -0.2523
      7 C          -3.4398    3.6776   25.6189 C.2     1  UNL1        0.0629
      8 C          -4.8846    4.0803   25.6363 C.3     1  UNL1        0.0741
      9 C          -5.6236    4.2781   24.3460 C.2     1  UNL1        0.0098
     10 C          -4.9177    4.0732   23.0384 C.2     1  UNL1        0.1363
     11 F          -5.6567    4.2710   21.7481 F       1  UNL1       -0.2045
     12 C          -3.4729    3.6705   23.0211 C.2     1  UNL1        0.0302
     13 C          -2.7340    3.4727   24.3113 C.2     1  UNL1        0.0134
     14 C           0.1810    2.6755   26.6904 C.3     1  UNL1        0.1250
     15 N           1.3387    2.3473   25.7948 N.3     1  UNL1       -0.2618
     16 C           0.3511    2.6375   28.1802 C.ar    1  UNL1        0.0529
     17 C           0.9382    3.8162   28.8983 C.ar    1  UNL1        0.1411
     18 F           1.3553    5.0330   28.1267 F       1  UNL1       -0.2043
     19 C           1.1083    3.7781   30.3882 C.ar    1  UNL1        0.0438
     20 C           0.6912    2.5613   31.1599 C.ar    1  UNL1        0.0492
     21 C           0.1041    1.3825   30.4417 C.ar    1  UNL1        0.0438
     22 C          -0.0660    1.4206   28.9519 C.ar    1  UNL1        0.1411
     23 F          -0.6531    0.2419   28.2337 F       1  UNL1       -0.2043
     24 N           0.8613    2.5233   32.6497 N.pl3   1  UNL1       -0.3316
     25 H           0.1575    2.8859   33.2349 H       1  UNL1        0.1468
     26 C           2.1037    1.9329   33.2480 C.3     1  UNL1        0.1014
     27 C           3.0629    0.8513   32.8480 C.3     1  UNL1        0.0933
     28 N           3.8606    1.0980   34.0941 N.3     1  UNL1       -0.2697
     29 C           2.9014    2.1796   34.4941 C.3     1  UNL1        0.0933
     30 C           5.1030    0.5076   34.6924 C.3     1  UNL1        0.0751
     31 C           5.0339   -0.2113   36.0070 C.3     1  UNL1        0.0554
     32 C           4.6503    0.5347   37.2505 C.3     1  UNL1        0.1947
     33 F           3.2144    0.5866   37.6813 F       1  UNL1       -0.2343
     34 C           2.6664    1.9810   26.3890 C.3     1  UNL1        0.1425
     35 C           2.8272    0.6828   27.1230 C.3     1  UNL1        0.3049
     36 F           3.3084    1.4267   28.3333 F       1  UNL1       -0.2001
     37 F           2.3459   -0.0611   25.9126 F       1  UNL1       -0.2001
     38 C           2.9879   -0.6154   27.8569 C.3     1  UNL1        0.2057
     39 O           3.2727   -1.8767   27.0965 O.3     1  UNL1       -0.3771
     40 H           2.5095   -2.0982   26.5402 H       1  UNL1        0.2106
@<TRIPOS>BOND
     1     2     1    1
     2     2     3    1
     3     3     4    1
     4     4     5    2
     5     5     6    1
     6     6     7    2
     7     7     8    1
     8     8     9    1
     9     9    10    2
    10    10    11    1
    11    10    12    1
    12    12    13    2
    13     5    14    1
    14    14    16    1
    15    16    17   ar
    16    17    18    1
    17    17    19   ar
    18    19    20   ar
    19    20    24    1
    20    24    26    1
    21    26    27    1
    22    27    28    1
    23    28    30    1
    24    30    31    1
    25    31    32    1
    26    32    33    1
    27    28    29    1
    28    20    21   ar
    29    21    22   ar
    30    22    23    1
    31    14    15    1
    32    15    34    1
    33    34    35    1
    34    35    36    1
    35    35    37    1
    36    35    38    1
    37    38    39    1
    38    15     2    1
    39    13     4    1
    40    22    16   ar
    41    13     7    1
    42    29    26    1
    43    24    25    1
    44    39    40    1
@<TRIPOS>MOLECULE
*****
 40 44 0 0 0
SMALL
GASTEIGER

@<TRIPOS>ATOM
      1 C           4.7702   -1.0760   27.6479 C.3     1  UNL1        0.0177
      2 C           3.8974   -0.5370   26.5535 C.3     1  UNL1        0.0627
      3 C           4.0236   -1.0761   25.1594 C.3     1  UNL1        0.0436
      4 C           3.1509   -0.5371   24.0649 C.2     1  UNL1       -0.0044
      5 C           2.1519    0.5410   24.3646 C.2     1  UNL1        0.0735
      6 N           1.4334    0.8740   23.0907 N.2     1  UNL1       -0.2523
      7 C           1.9882    0.0018   22.0038 C.2     1  UNL1        0.0629
      8 C           1.6640   -0.1109   20.5436 C.3     1  UNL1        0.0741
      9 C           2.4013   -1.0958   19.6856 C.2     1  UNL1        0.0098
     10 C           3.4629   -1.9679   20.2877 C.2     1  UNL1        0.1363
     11 F           4.2002   -2.9528   19.4295 F       1  UNL1       -0.2045
     12 C           3.7871   -1.8552   21.7478 C.2     1  UNL1        0.0302
     13 C           3.0498   -0.8703   22.6059 C.2     1  UNL1        0.0134
     14 C           2.0257    1.0801   25.7587 C.3     1  UNL1        0.1250
     15 N           2.8984    0.5411   26.8531 N.3     1  UNL1       -0.2618
     16 C           1.0267    2.1581   26.0583 C.ar    1  UNL1        0.0529
     17 C           1.4235    3.6003   25.9469 C.ar    1  UNL1        0.1411
     18 F           2.8193    3.9645   25.5357 F       1  UNL1       -0.2043
     19 C           0.4245    4.6784   26.2466 C.ar    1  UNL1        0.0438
     20 C          -0.9713    4.3142   26.6577 C.ar    1  UNL1        0.0492
     21 C          -1.3682    2.8719   26.7692 C.ar    1  UNL1        0.0438
     22 C          -0.3692    1.7939   26.4695 C.ar    1  UNL1        0.1411
     23 F          -0.7659    0.3517   26.5810 F       1  UNL1       -0.2043
     24 N          -1.9703    5.3923   26.9573 N.pl3   1  UNL1       -0.3316
     25 H          -1.7318    6.1292   27.5650 H       1  UNL1        0.1468
     26 C          -3.3326    5.3475   26.3311 C.3     1  UNL1        0.1014
     27 C          -4.0929    6.2254   25.3817 C.3     1  UNL1        0.0933
     28 N          -5.2592    5.2843   25.4455 N.3     1  UNL1       -0.2697
     29 C          -4.4989    4.4064   26.3949 C.3     1  UNL1        0.0933
     30 C          -6.6215    5.2396   24.8193 C.3     1  UNL1        0.0751
     31 C          -6.8967    4.2925   23.6890 C.3     1  UNL1        0.0554
     32 C          -5.7683    3.7974   22.8339 C.3     1  UNL1        0.1947
     33 F          -4.9876    2.5860   23.2498 F       1  UNL1       -0.2343
     34 C           2.7722    1.0802   28.2472 C.3     1  UNL1        0.1425
     35 C           1.5272    0.8195   29.0422 C.3     1  UNL1        0.3049
     36 F           1.6715   -0.6514   28.7861 F       1  UNL1       -0.2001
     37 F           1.3829    2.2904   29.2984 F       1  UNL1       -0.2001
     38 C           0.2822    0.5589   29.8373 C.3     1  UNL1        0.2057
     39 O          -0.5553   -0.6506   29.5443 O.3     1  UNL1       -0.3771
     40 H          -0.9424   -0.5691   28.6587 H       1  UNL1        0.2106
@<TRIPOS>BOND
     1     2     1    1
     2     2     3    1
     3     3     4    1
     4     4     5    2
     5     5     6    1
     6     6     7    2
     7     7     8    1
     8     8     9    1
     9     9    10    2
    10    10    11    1
    11    10    12    1
    12    12    13    2
    13     5    14    1
    14    14    16    1
    15    16    17   ar
    16    17    18    1
    17    17    19   ar
    18    19    20   ar
    19    20    24    1
    20    24    26    1
    21    26    27    1
    22    27    28    1
    23    28    30    1
    24    30    31    1
    25    31    32    1
    26    32    33    1
    27    28    29    1
    28    20    21   ar
    29    21    22   ar
    30    22    23    1
    31    14    15    1
    32    15    34    1
    33    34    35    1
    34    35    36    1
    35    35    37    1
    36    35    38    1
    37    38    39    1
    38    15     2    1
    39    13     4    1
    40    22    16   ar
    41    13     7    1
    42    29    26    1
    43    24    25    1
    44    39    40    1
@<TRIPOS>MOLECULE
*****
 40 44 0 0 0
SMALL
GASTEIGER

@<TRIPOS>ATOM
      1 C           2.4504    3.9342   18.3406 C.3     1  UNL1        0.0177
      2 C           2.2991    3.0960   19.5754 C.3     1  UNL1        0.0627
      3 C           1.2917    3.4749   20.6203 C.3     1  UNL1        0.0436
      4 C           1.1403    2.6368   21.8550 C.2     1  UNL1       -0.0044
      5 C           1.9964    1.4198   22.0450 C.2     1  UNL1        0.0735
      6 N           1.6247    0.7916   23.3553 N.2     1  UNL1       -0.2523
      7 C           0.5389    1.6203   23.9753 C.2     1  UNL1        0.0629
      8 C          -0.2159    1.4838   25.2643 C.3     1  UNL1        0.0741
      9 C          -1.2700    2.4877   25.6261 C.2     1  UNL1        0.0098
     10 C          -1.5693    3.6281   24.6988 C.2     1  UNL1        0.1363
     11 F          -2.6235    4.6321   25.0606 F       1  UNL1       -0.2045
     12 C          -0.8146    3.7646   23.4098 C.2     1  UNL1        0.0302
     13 C           0.2396    2.7607   23.0480 C.2     1  UNL1        0.0134
     14 C           3.0038    1.0409   21.0001 C.3     1  UNL1        0.1250
     15 N           3.1551    1.8791   19.7654 N.3     1  UNL1       -0.2618
     16 C           3.8599   -0.1760   21.1900 C.ar    1  UNL1        0.0529
     17 C           5.2112   -0.0502   21.8286 C.ar    1  UNL1        0.1411
     18 F           5.7066    1.2927   22.2774 F       1  UNL1       -0.2043
     19 C           6.0673   -1.2673   22.0186 C.ar    1  UNL1        0.0438
     20 C           5.5719   -2.6101   21.5698 C.ar    1  UNL1        0.0492
     21 C           4.2205   -2.7360   20.9312 C.ar    1  UNL1        0.0438
     22 C           3.3645   -1.5190   20.7413 C.ar    1  UNL1        0.1411
     23 F           2.0131   -1.6447   20.1027 F       1  UNL1       -0.2043
     24 N           6.4280   -3.8271   21.7598 N.pl3   1  UNL1       -0.3316
     25 H           6.7195   -4.3507   20.9787 H       1  UNL1        0.1468
     26 C           6.8401   -4.2463   23.1398 C.3     1  UNL1        0.1014
     27 C           7.7851   -5.2675   23.7003 C.3     1  UNL1        0.0933
     28 N           7.4228   -4.8391   25.0915 N.3     1  UNL1       -0.2697
     29 C           6.4778   -3.8180   24.5309 C.3     1  UNL1        0.0933
     30 C           7.8348   -5.2584   26.4715 C.3     1  UNL1        0.0751
     31 C           6.8453   -5.9269   27.3791 C.3     1  UNL1        0.0554
     32 C           6.4839   -5.2947   28.6904 C.3     1  UNL1        0.1947
     33 F           6.7415   -6.0284   29.9731 F       1  UNL1       -0.2343
     34 C           4.1625    1.5002   18.7205 C.3     1  UNL1        0.1425
     35 C           3.9142    0.3162   17.8337 C.3     1  UNL1        0.3049
     36 F           5.3739   -0.0259   17.8818 F       1  UNL1       -0.2001
     37 F           2.4546    0.6583   17.7857 F       1  UNL1       -0.2001
     38 C           3.6659   -0.8678   16.9469 C.3     1  UNL1        0.2057
     39 O           4.4102   -2.1491   17.1805 O.3     1  UNL1       -0.3771
     40 H           5.3543   -2.0110   17.0063 H       1  UNL1        0.2106
@<TRIPOS>BOND
     1     2     1    1
     2     2     3    1
     3     3     4    1
     4     4     5    2
     5     5     6    1
     6     6     7    2
     7     7     8    1
     8     8     9    1
     9     9    10    2
    10    10    11    1
    11    10    12    1
    12    12    13    2
    13     5    14    1
    14    14    16    1
    15    16    17   ar
    16    17    18    1
    17    17    19   ar
    18    19    20   ar
    19    20    24    1
    20    24    26    1
    21    26    27    1
    22    27    28    1
    23    28    30    1
    24    30    31    1
    25    31    32    1
    26    32    33    1
    27    28    29    1
    28    20    21   ar
    29    21    22   ar
    30    22    23    1
    31    14    15    1
    32    15    34    1
    33    34    35    1
    34    35    36    1
    35    35    37    1
    36    35    38    1
    37    38    39    1
    38    15     2    1
    39    13     4    1
    40    22    16   ar
    41    13     7    1
    42    29    26    1
    43    24    25    1
    44    39    40    1
@<TRIPOS>MOLECULE
*****
 40 44 0 0 0
SMALL
GASTEIGER

@<TRIPOS>ATOM
      1 C           4.5988   -1.2206   27.8117 C.3     1  UNL1        0.0177
      2 C           3.8255   -0.6704   26.6500 C.3     1  UNL1        0.0627
      3 C           4.0172   -1.2494   25.2796 C.3     1  UNL1        0.0436
      4 C           3.2439   -0.6992   24.1180 C.2     1  UNL1       -0.0044
      5 C           2.2790    0.4300   24.3268 C.2     1  UNL1        0.0735
      6 N           1.6615    0.7631   23.0010 N.2     1  UNL1       -0.2523
      7 C           2.2448   -0.1602   21.9729 C.2     1  UNL1        0.0629
      8 C           2.0117   -0.2948   20.4972 C.3     1  UNL1        0.0741
      9 C           2.7567   -1.3332   19.7120 C.2     1  UNL1        0.0098
     10 C           3.7347   -2.2370   20.4023 C.2     1  UNL1        0.1363
     11 F           4.4797   -3.2755   19.6169 F       1  UNL1       -0.2045
     12 C           3.9678   -2.1024   21.8779 C.2     1  UNL1        0.0302
     13 C           3.2228   -1.0640   22.6632 C.2     1  UNL1        0.0134
     14 C           2.0872    1.0091   25.6972 C.3     1  UNL1        0.1250
     15 N           2.8605    0.4589   26.8588 N.3     1  UNL1       -0.2618
     16 C           1.1223    2.1384   25.9060 C.ar    1  UNL1        0.0529
     17 C          -0.3242    1.8484   26.1768 C.ar    1  UNL1        0.1411
     18 F          -0.8059    0.4292   26.2387 F       1  UNL1       -0.2043
     19 C          -1.2892    2.9778   26.3856 C.ar    1  UNL1        0.0438
     20 C          -0.8076    4.3970   26.3236 C.ar    1  UNL1        0.0492
     21 C           0.6391    4.6869   26.0529 C.ar    1  UNL1        0.0438
     22 C           1.6039    3.5577   25.8441 C.ar    1  UNL1        0.1411
     23 F           3.0505    3.8475   25.5733 F       1  UNL1       -0.2043
     24 N          -1.7725    5.5263   26.5324 N.pl3   1  UNL1       -0.3316
     25 H          -1.4970    6.3209   27.0442 H       1  UNL1        0.1468
     26 C          -3.1572    5.4448   25.9615 C.3     1  UNL1        0.1014
     27 C          -4.4592    4.8552   26.4166 C.3     1  UNL1        0.0933
     28 N          -5.1155    5.3297   25.1540 N.3     1  UNL1       -0.2697
     29 C          -3.8135    5.9194   24.6988 C.3     1  UNL1        0.0933
     30 C          -6.5002    5.2483   24.5830 C.3     1  UNL1        0.0751
     31 C          -6.7907    4.3076   23.4514 C.3     1  UNL1        0.0554
     32 C          -5.6616    3.6745   22.6937 C.3     1  UNL1        0.1947
     33 F          -4.9815    2.4548   23.2414 F       1  UNL1       -0.2343
     34 C           2.6688    1.0380   28.2292 C.3     1  UNL1        0.1425
     35 C           1.3931    0.7876   28.9775 C.3     1  UNL1        0.3049
     36 F           1.1788    2.2666   29.1070 F       1  UNL1       -0.2001
     37 F           1.6073   -0.6913   28.8480 F       1  UNL1       -0.2001
     38 C           0.1174    0.5373   29.7257 C.3     1  UNL1        0.2057
     39 O          -0.7103   -0.6740   29.4129 O.3     1  UNL1       -0.3771
     40 H          -1.0622   -0.6013   28.5119 H       1  UNL1        0.2106
@<TRIPOS>BOND
     1     2     1    1
     2     2     3    1
     3     3     4    1
     4     4     5    2
     5     5     6    1
     6     6     7    2
     7     7     8    1
     8     8     9    1
     9     9    10    2
    10    10    11    1
    11    10    12    1
    12    12    13    2
    13     5    14    1
    14    14    16    1
    15    16    17   ar
    16    17    18    1
    17    17    19   ar
    18    19    20   ar
    19    20    24    1
    20    24    26    1
    21    26    27    1
    22    27    28    1
    23    28    30    1
    24    30    31    1
    25    31    32    1
    26    32    33    1
    27    28    29    1
    28    20    21   ar
    29    21    22   ar
    30    22    23    1
    31    14    15    1
    32    15    34    1
    33    34    35    1
    34    35    36    1
    35    35    37    1
    36    35    38    1
    37    38    39    1
    38    15     2    1
    39    13     4    1
    40    22    16   ar
    41    13     7    1
    42    29    26    1
    43    24    25    1
    44    39    40    1
@<TRIPOS>MOLECULE
*****
 40 44 0 0 0
SMALL
GASTEIGER

@<TRIPOS>ATOM
      1 C          -0.4021    3.3178   26.6835 C.3     1  UNL1        0.0177
      2 C          -0.8616    3.2907   25.2558 C.3     1  UNL1        0.0627
      3 C          -2.3023    3.5482   24.9267 C.3     1  UNL1        0.0436
      4 C          -2.7618    3.5211   23.4991 C.2     1  UNL1       -0.0044
      5 C          -1.7808    3.2365   22.4007 C.2     1  UNL1        0.0735
      6 N          -2.5211    3.2751   21.0966 N.2     1  UNL1       -0.2523
      7 C          -3.9596    3.5835   21.3891 C.2     1  UNL1        0.0629
      8 C          -5.1531    3.7456   20.4952 C.3     1  UNL1        0.0741
      9 C          -6.4955    4.0597   21.0862 C.2     1  UNL1        0.0098
     10 C          -6.6443    4.2118   22.5710 C.2     1  UNL1        0.1363
     11 F          -7.9868    4.5259   23.1619 F       1  UNL1       -0.2045
     12 C          -5.4508    4.0497   23.4649 C.2     1  UNL1        0.0302
     13 C          -4.1084    3.7356   22.8739 C.2     1  UNL1        0.0134
     14 C          -0.3402    2.9789   22.7298 C.3     1  UNL1        0.1250
     15 N           0.1194    3.0060   24.1574 N.3     1  UNL1       -0.2618
     16 C           0.6408    2.6943   21.6314 C.ar    1  UNL1        0.0529
     17 C           1.4613    3.8080   21.0515 C.ar    1  UNL1        0.1411
     18 F           1.3008    5.2063   21.5699 F       1  UNL1       -0.2043
     19 C           2.4424    3.5233   19.9530 C.ar    1  UNL1        0.0438
     20 C           2.6029    2.1249   19.4346 C.ar    1  UNL1        0.0492
     21 C           1.7824    1.0112   20.0145 C.ar    1  UNL1        0.0438
     22 C           0.8014    1.2959   21.1129 C.ar    1  UNL1        0.1411
     23 F          -0.0192    0.1822   21.6930 F       1  UNL1       -0.2043
     24 N           3.5839    1.8403   18.3361 N.pl3   1  UNL1       -0.3316
     25 H           3.8141    2.5439   17.6872 H       1  UNL1        0.1468
     26 C           4.2143    0.4836   18.2264 C.3     1  UNL1        0.1014
     27 C           4.1589   -0.6341   17.2275 C.3     1  UNL1        0.0933
     28 N           5.1057   -1.4351   18.0713 N.3     1  UNL1       -0.2697
     29 C           5.1610   -0.3175   19.0702 C.3     1  UNL1        0.0933
     30 C           5.7360   -2.7918   17.9616 C.3     1  UNL1        0.0751
     31 C           5.1851   -3.9410   18.7528 C.3     1  UNL1        0.0554
     32 C           3.7099   -4.0387   19.0056 C.3     1  UNL1        0.1947
     33 F           2.9910   -2.9168   19.6945 F       1  UNL1       -0.2343
     34 C           1.5600    2.7485   24.4866 C.3     1  UNL1        0.1425
     35 C           2.1287    1.3687   24.3359 C.3     1  UNL1        0.3049
     36 F           0.9732    0.8078   25.1106 F       1  UNL1       -0.2001
     37 F           3.2842    1.9295   23.5612 F       1  UNL1       -0.2001
     38 C           2.6974   -0.0111   24.1852 C.3     1  UNL1        0.2057
     39 O           3.0543   -0.8123   25.4021 O.3     1  UNL1       -0.3771
     40 H           3.7897   -0.3835   25.8673 H       1  UNL1        0.2106
@<TRIPOS>BOND
     1     2     1    1
     2     2     3    1
     3     3     4    1
     4     4     5    2
     5     5     6    1
     6     6     7    2
     7     7     8    1
     8     8     9    1
     9     9    10    2
    10    10    11    1
    11    10    12    1
    12    12    13    2
    13     5    14    1
    14    14    16    1
    15    16    17   ar
    16    17    18    1
    17    17    19   ar
    18    19    20   ar
    19    20    24    1
    20    24    26    1
    21    26    27    1
    22    27    28    1
    23    28    30    1
    24    30    31    1
    25    31    32    1
    26    32    33    1
    27    28    29    1
    28    20    21   ar
    29    21    22   ar
    30    22    23    1
    31    14    15    1
    32    15    34    1
    33    34    35    1
    34    35    36    1
    35    35    37    1
    36    35    38    1
    37    38    39    1
    38    15     2    1
    39    13     4    1
    40    22    16   ar
    41    13     7    1
    42    29    26    1
    43    24    25    1
    44    39    40    1
@<TRIPOS>MOLECULE
*****
 40 44 0 0 0
SMALL
GASTEIGER

@<TRIPOS>ATOM
      1 C          -1.7038    4.2490   23.2239 C.3     1  UNL1        0.0177
      2 C          -0.6735    3.2586   23.6800 C.3     1  UNL1        0.0627
      3 C          -0.0031    2.3608   22.6827 C.3     1  UNL1        0.0436
      4 C           1.0270    1.3704   23.1387 C.2     1  UNL1       -0.0044
      5 C           1.3868    1.2779   24.5920 C.2     1  UNL1        0.0735
      6 N           2.4317    0.2126   24.7439 N.2     1  UNL1       -0.2523
      7 C           2.7178   -0.3533   23.3845 C.2     1  UNL1        0.0629
      8 C           3.6566   -1.4278   22.9219 C.3     1  UNL1        0.0741
      9 C           3.7273   -1.7867   21.4672 C.2     1  UNL1        0.0098
     10 C           2.8592   -1.0710   20.4751 C.2     1  UNL1        0.1363
     11 F           2.9299   -1.4299   19.0204 F       1  UNL1       -0.2045
     12 C           1.9203    0.0034   20.9378 C.2     1  UNL1        0.0302
     13 C           1.8496    0.3623   22.3925 C.2     1  UNL1        0.0134
     14 C           0.7164    2.1758   25.5893 C.3     1  UNL1        0.1250
     15 N          -0.3138    3.1661   25.1332 N.3     1  UNL1       -0.2618
     16 C           1.0761    2.0833   27.0425 C.ar    1  UNL1        0.0529
     17 C           0.2970    1.1800   27.9520 C.ar    1  UNL1        0.1411
     18 F          -0.8418    0.3693   27.4082 F       1  UNL1       -0.2043
     19 C           0.6568    1.0876   29.4053 C.ar    1  UNL1        0.0438
     20 C           1.7957    1.8983   29.9491 C.ar    1  UNL1        0.0492
     21 C           2.5747    2.8016   29.0396 C.ar    1  UNL1        0.0438
     22 C           2.2150    2.8941   27.5864 C.ar    1  UNL1        0.1411
     23 F           2.9940    3.7973   26.6768 F       1  UNL1       -0.2043
     24 N           2.1554    1.8058   31.4024 N.pl3   1  UNL1       -0.3316
     25 H           1.9365    2.5474   32.0118 H       1  UNL1        0.1468
     26 C           2.8487    0.5835   31.9271 C.3     1  UNL1        0.1014
     27 C           3.1595   -0.7774   31.3783 C.3     1  UNL1        0.0933
     28 N           3.8291   -1.1451   32.6692 N.3     1  UNL1       -0.2697
     29 C           3.5182    0.2159   33.2180 C.3     1  UNL1        0.0933
     30 C           4.5223   -2.3674   33.1940 C.3     1  UNL1        0.0751
     31 C           5.7530   -2.8838   32.5092 C.3     1  UNL1        0.0554
     32 C           6.8633   -1.9411   32.1510 C.3     1  UNL1        0.1947
     33 F           6.6643   -0.9260   31.0647 F       1  UNL1       -0.2343
     34 C          -0.9842    4.0639   26.1305 C.3     1  UNL1        0.1425
     35 C          -2.4728    4.0095   26.3069 C.3     1  UNL1        0.3049
     36 F          -2.5448    5.5004   26.1596 F       1  UNL1       -0.2001
     37 F          -2.4008    2.5185   26.4542 F       1  UNL1       -0.2001
     38 C          -3.9614    3.9550   26.4833 C.3     1  UNL1        0.2057
     39 O          -4.6131    4.7188   27.5978 O.3     1  UNL1       -0.3771
     40 H          -4.3350    4.3478   28.4498 H       1  UNL1        0.2106
@<TRIPOS>BOND
     1     2     1    1
     2     2     3    1
     3     3     4    1
     4     4     5    2
     5     5     6    1
     6     6     7    2
     7     7     8    1
     8     8     9    1
     9     9    10    2
    10    10    11    1
    11    10    12    1
    12    12    13    2
    13     5    14    1
    14    14    16    1
    15    16    17   ar
    16    17    18    1
    17    17    19   ar
    18    19    20   ar
    19    20    24    1
    20    24    26    1
    21    26    27    1
    22    27    28    1
    23    28    30    1
    24    30    31    1
    25    31    32    1
    26    32    33    1
    27    28    29    1
    28    20    21   ar
    29    21    22   ar
    30    22    23    1
    31    14    15    1
    32    15    34    1
    33    34    35    1
    34    35    36    1
    35    35    37    1
    36    35    38    1
    37    38    39    1
    38    15     2    1
    39    13     4    1
    40    22    16   ar
    41    13     7    1
    42    29    26    1
    43    24    25    1
    44    39    40    1
@<TRIPOS>MOLECULE
*****
 40 44 0 0 0
SMALL
GASTEIGER

@<TRIPOS>ATOM
      1 C           6.9921   -2.4437   32.5385 C.3     1  UNL1        0.0177
      2 C           6.2860   -2.1263   31.2536 C.3     1  UNL1        0.0627
      3 C           5.0508   -1.2754   31.2670 C.3     1  UNL1        0.0436
      4 C           4.3447   -0.9581   29.9822 C.2     1  UNL1       -0.0044
      5 C           4.8738   -1.4917   28.6840 C.2     1  UNL1        0.0735
      6 N           3.9714   -1.0150   27.5847 N.2     1  UNL1       -0.2523
      7 C           2.8845   -0.1869   28.2035 C.2     1  UNL1        0.0629
      8 C           1.7146    0.5397   27.6092 C.3     1  UNL1        0.0741
      9 C           0.7753    1.3014   28.4966 C.2     1  UNL1        0.0098
     10 C           1.0060    1.3366   29.9783 C.2     1  UNL1        0.1363
     11 F           0.0667    2.0985   30.8657 F       1  UNL1       -0.2045
     12 C           2.1760    0.6101   30.5726 C.2     1  UNL1        0.0302
     13 C           3.1152   -0.1517   29.6853 C.2     1  UNL1        0.0134
     14 C           6.1091   -2.3426   28.6706 C.3     1  UNL1        0.1250
     15 N           6.8151   -2.6599   29.9554 N.3     1  UNL1       -0.2618
     16 C           6.6382   -2.8762   27.3725 C.ar    1  UNL1        0.0529
     17 C           6.3895   -4.3056   26.9920 C.ar    1  UNL1        0.1411
     18 F           5.6116   -5.2014   27.9097 F       1  UNL1       -0.2043
     19 C           6.9187   -4.8391   25.6938 C.ar    1  UNL1        0.0438
     20 C           7.6966   -3.9432   24.7761 C.ar    1  UNL1        0.0492
     21 C           7.9454   -2.5137   25.1565 C.ar    1  UNL1        0.0438
     22 C           7.4162   -1.9803   26.4547 C.ar    1  UNL1        0.1411
     23 F           7.6649   -0.5508   26.8353 F       1  UNL1       -0.2043
     24 N           8.2258   -4.4768   23.4779 N.pl3   1  UNL1       -0.3316
     25 H           8.9404   -5.1540   23.4788 H       1  UNL1        0.1468
     26 C           7.6661   -3.9787   22.1784 C.3     1  UNL1        0.1014
     27 C           8.0754   -4.0801   20.7389 C.3     1  UNL1        0.0933
     28 N           6.8746   -3.2743   20.3407 N.3     1  UNL1       -0.2697
     29 C           6.4652   -3.1729   21.7802 C.3     1  UNL1        0.0933
     30 C           6.3149   -2.7762   19.0412 C.3     1  UNL1        0.0751
     31 C           5.0195   -3.3265   18.5224 C.3     1  UNL1        0.0554
     32 C           4.6120   -4.7299   18.8602 C.3     1  UNL1        0.1947
     33 F           3.1757   -5.0427   19.1587 F       1  UNL1       -0.2343
     34 C           8.0504   -3.5109   29.9421 C.3     1  UNL1        0.1425
     35 C           8.0564   -4.8353   30.6462 C.3     1  UNL1        0.3049
     36 F           9.4964   -4.6330   31.0143 F       1  UNL1       -0.2001
     37 F           6.6164   -5.0375   30.2781 F       1  UNL1       -0.2001
     38 C           8.0624   -6.1597   31.3503 C.3     1  UNL1        0.2057
     39 O           6.9795   -6.4911   32.3340 O.3     1  UNL1       -0.3771
     40 H           7.0464   -5.8998   33.1000 H       1  UNL1        0.2106
@<TRIPOS>BOND
     1     2     1    1
     2     2     3    1
     3     3     4    1
     4     4     5    2
     5     5     6    1
     6     6     7    2
     7     7     8    1
     8     8     9    1
     9     9    10    2
    10    10    11    1
    11    10    12    1
    12    12    13    2
    13     5    14    1
    14    14    16    1
    15    16    17   ar
    16    17    18    1
    17    17    19   ar
    18    19    20   ar
    19    20    24    1
    20    24    26    1
    21    26    27    1
    22    27    28    1
    23    28    30    1
    24    30    31    1
    25    31    32    1
    26    32    33    1
    27    28    29    1
    28    20    21   ar
    29    21    22   ar
    30    22    23    1
    31    14    15    1
    32    15    34    1
    33    34    35    1
    34    35    36    1
    35    35    37    1
    36    35    38    1
    37    38    39    1
    38    15     2    1
    39    13     4    1
    40    22    16   ar
    41    13     7    1
    42    29    26    1
    43    24    25    1
    44    39    40    1
