@<TRIPOS>MOLECULE
*****
 23 24 0 0 0
SMALL
GASTEIGER

@<TRIPOS>ATOM
      1 N          -4.8781  -18.0827   22.6958 N.ar    1  UNL1       -0.2918
      2 C          -4.0909  -17.0403   23.4332 C.ar    1  UNL1        0.1798
      3 N          -5.0387  -15.9583   23.8584 N.ar    1  UNL1       -0.2195
      4 C          -6.4118  -16.3320   23.3839 C.ar    1  UNL1        0.1481
      5 C          -7.7396  -15.6464   23.5132 C.ar    1  UNL1        0.1480
      6 N          -7.8389  -14.3334   24.2318 N.pl3   1  UNL1       -0.3413
      7 N          -8.9681  -16.2737   22.9240 N.ar    1  UNL1       -0.2078
      8 C          -8.8688  -17.5866   22.2055 C.ar    1  UNL1        0.2015
      9 N          -7.5410  -18.2723   22.0761 N.ar    1  UNL1       -0.2048
     10 C          -6.3125  -17.6450   22.6653 C.ar    1  UNL1        0.1674
     11 H          -7.0325  -13.9217   24.6185 H       1  UNL1        0.1438
     12 H          -8.7104  -13.8834   24.3167 H       1  UNL1        0.1438
     13 C          -4.3276  -19.3418   22.0945 C.3     1  UNL1        0.1384
     14 C          -4.0342  -20.7012   19.8999 C.3     1  UNL1        0.0342
     15 C          -3.9975  -19.3925   20.6320 C.3     1  UNL1        0.1387
     16 O          -3.6307  -18.1347   19.9019 O.3     1  UNL1       -0.3426
     17 C          -2.3407  -17.4356   20.2133 C.3     1  UNL1        0.2577
     18 P          -1.0335  -18.1291   19.9676 P.3     1  UNL1        0.3665
     19 O           0.2737  -18.8226   19.7220 O.2     1  UNL1       -0.2556
     20 O          -0.8779  -18.3579   21.4419 O.3     1  UNL1       -0.3220
     21 O          -1.1892  -17.9003   18.4934 O.3     1  UNL1       -0.3220
     22 H          -0.0473  -18.8300   21.6099 H       1  UNL1        0.2198
     23 H          -0.4258  -18.2738   18.0258 H       1  UNL1        0.2198
@<TRIPOS>BOND
     1    15    14    1
     2    15    13    1
     3    13     1    1
     4     1     2   ar
     5     2     3   ar
     6     3     4   ar
     7     4     5   ar
     8     5     6    1
     9     5     7   ar
    10     7     8   ar
    11     8     9   ar
    12     9    10   ar
    13    15    16    1
    14    16    17    1
    15    17    18    1
    16    18    19    2
    17    18    20    1
    18    18    21    1
    19    10     1   ar
    20    10     4   ar
    21     6    11    1
    22     6    12    1
    23    20    22    1
    24    21    23    1
@<TRIPOS>MOLECULE
*****
 23 24 0 0 0
SMALL
GASTEIGER

@<TRIPOS>ATOM
      1 N          -4.6532  -19.3780   21.2180 N.ar    1  UNL1       -0.2918
      2 C          -4.4491  -20.2671   20.0273 C.ar    1  UNL1        0.1798
      3 N          -3.2455  -19.7731   19.2808 N.ar    1  UNL1       -0.2195
      4 C          -2.7057  -18.5786   20.0102 C.ar    1  UNL1        0.1481
      5 C          -1.5344  -17.6817   19.7388 C.ar    1  UNL1        0.1480
      6 N          -0.6644  -17.9259   18.5415 N.pl3   1  UNL1       -0.3413
      7 N          -1.2332  -16.5407   20.6646 N.ar    1  UNL1       -0.2078
      8 C          -2.1032  -16.2965   21.8619 C.ar    1  UNL1        0.2015
      9 N          -3.2745  -17.1934   22.1333 N.ar    1  UNL1       -0.2048
     10 C          -3.5757  -18.3344   21.2074 C.ar    1  UNL1        0.1674
     11 H          -0.8621  -18.6748   17.9339 H       1  UNL1        0.1438
     12 H           0.1044  -17.3373   18.3634 H       1  UNL1        0.1438
     13 C          -5.7434  -19.5093   22.2399 C.3     1  UNL1        0.1384
     14 C          -8.3018  -19.0840   22.0857 C.3     1  UNL1        0.0342
     15 C          -6.9037  -18.5587   22.2251 C.3     1  UNL1        0.1387
     16 O          -6.6659  -17.0830   22.3498 O.3     1  UNL1       -0.3426
     17 C          -7.1242  -16.3503   23.5758 C.3     1  UNL1        0.2577
     18 P          -6.1664  -15.4750   24.3284 P.3     1  UNL1        0.3665
     19 O          -5.2086  -14.5997   25.0810 O.2     1  UNL1       -0.2556
     20 O          -7.2091  -14.3994   24.4043 O.3     1  UNL1       -0.3220
     21 O          -5.1237  -16.5506   24.2524 O.3     1  UNL1       -0.3220
     22 H          -6.8499  -13.6338   24.8795 H       1  UNL1        0.2198
     23 H          -4.3150  -16.2488   24.6949 H       1  UNL1        0.2198
@<TRIPOS>BOND
     1    15    14    1
     2    15    13    1
     3    13     1    1
     4     1     2   ar
     5     2     3   ar
     6     3     4   ar
     7     4     5   ar
     8     5     6    1
     9     5     7   ar
    10     7     8   ar
    11     8     9   ar
    12     9    10   ar
    13    15    16    1
    14    16    17    1
    15    17    18    1
    16    18    19    2
    17    18    20    1
    18    18    21    1
    19    10     1   ar
    20    10     4   ar
    21     6    11    1
    22     6    12    1
    23    20    22    1
    24    21    23    1
@<TRIPOS>MOLECULE
*****
 23 24 0 0 0
SMALL
GASTEIGER

@<TRIPOS>ATOM
      1 N          -6.0467  -18.6935   22.1640 N.ar    1  UNL1       -0.2918
      2 C          -7.3050  -19.3734   21.7117 C.ar    1  UNL1        0.1798
      3 N          -8.4682  -18.5313   22.1451 N.ar    1  UNL1       -0.2195
      4 C          -7.9289  -17.3311   22.8652 C.ar    1  UNL1        0.1481
      5 C          -8.6071  -16.1598   23.5117 C.ar    1  UNL1        0.1480
      6 N         -10.1037  -16.0596   23.5001 N.pl3   1  UNL1       -0.3413
      7 N          -7.7888  -15.0889   24.1700 N.ar    1  UNL1       -0.2078
      8 C          -6.2922  -15.1891   24.1817 C.ar    1  UNL1        0.2015
      9 N          -5.6139  -16.3604   23.5351 N.ar    1  UNL1       -0.2048
     10 C          -6.4323  -17.4313   22.8768 C.ar    1  UNL1        0.1674
     11 H         -10.6408  -16.7625   23.0680 H       1  UNL1        0.1438
     12 H         -10.5489  -15.2908   23.9244 H       1  UNL1        0.1438
     13 C          -4.6483  -19.1889   21.9423 C.3     1  UNL1        0.1384
     14 C          -4.0144  -20.6077   19.8601 C.3     1  UNL1        0.0342
     15 C          -4.0962  -19.2785   20.5504 C.3     1  UNL1        0.1387
     16 O          -3.6258  -18.0389   19.8489 O.3     1  UNL1       -0.3426
     17 C          -2.3266  -17.4012   20.2430 C.3     1  UNL1        0.2577
     18 P          -1.0322  -18.1129   19.9823 P.3     1  UNL1        0.3665
     19 O           0.2622  -18.8246   19.7215 O.2     1  UNL1       -0.2556
     20 O          -0.8773  -18.3696   21.4520 O.3     1  UNL1       -0.3220
     21 O          -1.1872  -17.8562   18.5125 O.3     1  UNL1       -0.3220
     22 H          -0.0547  -18.8588   21.6098 H       1  UNL1        0.2198
     23 H          -0.4314  -18.2348   18.0367 H       1  UNL1        0.2198
@<TRIPOS>BOND
     1    15    14    1
     2    15    13    1
     3    13     1    1
     4     1     2   ar
     5     2     3   ar
     6     3     4   ar
     7     4     5   ar
     8     5     6    1
     9     5     7   ar
    10     7     8   ar
    11     8     9   ar
    12     9    10   ar
    13    15    16    1
    14    16    17    1
    15    17    18    1
    16    18    19    2
    17    18    20    1
    18    18    21    1
    19    10     1   ar
    20    10     4   ar
    21     6    11    1
    22     6    12    1
    23    20    22    1
    24    21    23    1
@<TRIPOS>MOLECULE
*****
 23 24 0 0 0
SMALL
GASTEIGER

@<TRIPOS>ATOM
      1 N          -9.1038  -18.1955   22.7219 N.ar    1  UNL1       -0.2918
      2 C          -8.0551  -18.5773   21.7196 C.ar    1  UNL1        0.1798
      3 N          -6.8327  -17.7511   21.9902 N.ar    1  UNL1       -0.2195
      4 C          -7.1259  -16.8588   23.1597 C.ar    1  UNL1        0.1481
      5 C          -6.2961  -15.8316   23.8713 C.ar    1  UNL1        0.1480
      6 N          -4.8925  -15.5569   23.4191 N.pl3   1  UNL1       -0.3413
      7 N          -6.8700  -15.0791   25.0350 N.ar    1  UNL1       -0.2078
      8 C          -8.2736  -15.3537   25.4872 C.ar    1  UNL1        0.2015
      9 N          -9.1033  -16.3809   24.7757 N.ar    1  UNL1       -0.2048
     10 C          -8.5295  -17.1334   23.6119 C.ar    1  UNL1        0.1674
     11 H          -4.5159  -16.0509   22.6552 H       1  UNL1        0.1438
     12 H          -4.3479  -14.8828   23.8861 H       1  UNL1        0.1438
     13 C         -10.4843  -18.7742   22.8174 C.3     1  UNL1        0.1384
     14 C         -12.7928  -18.2364   23.8814 C.3     1  UNL1        0.0342
     15 C         -11.6701  -17.8663   22.9580 C.3     1  UNL1        0.1387
     16 O         -11.7332  -16.5883   22.1752 O.3     1  UNL1       -0.3426
     17 C         -12.1418  -16.6121   20.7321 C.3     1  UNL1        0.2577
     18 P         -11.4289  -15.7460   19.7363 P.3     1  UNL1        0.3665
     19 O         -10.7159  -14.8799   18.7406 O.2     1  UNL1       -0.2556
     20 O         -12.6839  -15.6511   18.9203 O.3     1  UNL1       -0.3220
     21 O         -10.1738  -15.8409   20.5524 O.3     1  UNL1       -0.3220
     22 H         -12.5198  -15.1026   18.1373 H       1  UNL1        0.2198
     23 H          -9.4686  -15.3333   20.1211 H       1  UNL1        0.2198
@<TRIPOS>BOND
     1    15    14    1
     2    15    13    1
     3    13     1    1
     4     1     2   ar
     5     2     3   ar
     6     3     4   ar
     7     4     5   ar
     8     5     6    1
     9     5     7   ar
    10     7     8   ar
    11     8     9   ar
    12     9    10   ar
    13    15    16    1
    14    16    17    1
    15    17    18    1
    16    18    19    2
    17    18    20    1
    18    18    21    1
    19    10     1   ar
    20    10     4   ar
    21     6    11    1
    22     6    12    1
    23    20    22    1
    24    21    23    1
@<TRIPOS>MOLECULE
*****
 23 24 0 0 0
SMALL
GASTEIGER

@<TRIPOS>ATOM
      1 N          -6.7213  -18.7887   21.1771 N.ar    1  UNL1       -0.2918
      2 C          -7.4748  -19.4269   20.0480 C.ar    1  UNL1        0.1798
      3 N          -8.9057  -18.9859   20.1379 N.ar    1  UNL1       -0.2195
      4 C          -9.0365  -18.0752   21.3226 C.ar    1  UNL1        0.1481
      5 C         -10.2106  -17.3411   21.8994 C.ar    1  UNL1        0.1480
      6 N         -11.5606  -17.4630   21.2571 N.pl3   1  UNL1       -0.3413
      7 N         -10.0346  -16.4852   23.1185 N.ar    1  UNL1       -0.2078
      8 C          -8.6845  -16.3633   23.7609 C.ar    1  UNL1        0.2015
      9 N          -7.5105  -17.0974   23.1840 N.ar    1  UNL1       -0.2048
     10 C          -7.6865  -17.9533   21.9649 C.ar    1  UNL1        0.1674
     11 H         -11.6761  -18.0247   20.4569 H       1  UNL1        0.1438
     12 H         -12.3312  -16.9812   21.6357 H       1  UNL1        0.1438
     13 C          -5.2593  -18.9565   21.4676 C.3     1  UNL1        0.1384
     14 C          -3.9731  -20.6339   19.9570 C.3     1  UNL1        0.0342
     15 C          -4.2978  -19.2225   20.3474 C.3     1  UNL1        0.1387
     16 O          -3.6609  -18.0771   19.6177 O.3     1  UNL1       -0.3426
     17 C          -2.4085  -17.4496   20.1539 C.3     1  UNL1        0.2577
     18 P          -1.0837  -18.1208   19.9433 P.3     1  UNL1        0.3665
     19 O           0.2411  -18.7920   19.7326 O.2     1  UNL1       -0.2556
     20 O          -0.9879  -18.3936   21.4151 O.3     1  UNL1       -0.3220
     21 O          -1.1795  -17.8480   18.4714 O.3     1  UNL1       -0.3220
     22 H          -0.1596  -18.8616   21.6040 H       1  UNL1        0.2198
     23 H          -0.3924  -18.1984   18.0257 H       1  UNL1        0.2198
@<TRIPOS>BOND
     1    15    14    1
     2    15    13    1
     3    13     1    1
     4     1     2   ar
     5     2     3   ar
     6     3     4   ar
     7     4     5   ar
     8     5     6    1
     9     5     7   ar
    10     7     8   ar
    11     8     9   ar
    12     9    10   ar
    13    15    16    1
    14    16    17    1
    15    17    18    1
    16    18    19    2
    17    18    20    1
    18    18    21    1
    19    10     1   ar
    20    10     4   ar
    21     6    11    1
    22     6    12    1
    23    20    22    1
    24    21    23    1
@<TRIPOS>MOLECULE
*****
 23 24 0 0 0
SMALL
GASTEIGER

@<TRIPOS>ATOM
      1 N          -8.3361  -19.1243   21.2090 N.ar    1  UNL1       -0.2918
      2 C          -8.8347  -19.3881   19.8191 C.ar    1  UNL1        0.1798
      3 N         -10.0616  -18.5533   19.6006 N.ar    1  UNL1       -0.2195
      4 C         -10.3212  -17.7735   20.8555 C.ar    1  UNL1        0.1481
      5 C         -11.3909  -16.7878   21.2213 C.ar    1  UNL1        0.1480
      6 N         -12.4574  -16.4348   20.2273 N.pl3   1  UNL1       -0.3413
      7 N         -11.3942  -16.1549   22.5813 N.ar    1  UNL1       -0.2078
      8 C         -10.3278  -16.5079   23.5753 C.ar    1  UNL1        0.2015
      9 N          -9.2581  -17.4937   23.2095 N.ar    1  UNL1       -0.2048
     10 C          -9.2548  -18.1265   21.8495 C.ar    1  UNL1        0.1674
     11 H         -12.4552  -16.8502   19.3347 H       1  UNL1        0.1438
     12 H         -13.1595  -15.7878   20.4674 H       1  UNL1        0.1438
     13 C          -7.1304  -19.7488   21.8466 C.3     1  UNL1        0.1384
     14 C          -5.4912  -21.0221   20.2838 C.3     1  UNL1        0.0342
     15 C          -5.8322  -19.8088   21.0973 C.3     1  UNL1        0.1387
     16 O          -4.8751  -18.6557   21.1617 O.3     1  UNL1       -0.3426
     17 C          -3.5842  -18.7934   21.9130 C.3     1  UNL1        0.2577
     18 P          -2.2793  -18.7632   21.1738 P.3     1  UNL1        0.3665
     19 O          -0.9744  -18.7331   20.4347 O.2     1  UNL1       -0.2556
     20 O          -2.5339  -17.3378   20.7825 O.3     1  UNL1       -0.3220
     21 O          -2.0247  -20.1887   21.5652 O.3     1  UNL1       -0.3220
     22 H          -1.7932  -17.0121   20.2475 H       1  UNL1        0.2198
     23 H          -1.1743  -20.4776   21.1989 H       1  UNL1        0.2198
@<TRIPOS>BOND
     1    15    14    1
     2    15    13    1
     3    13     1    1
     4     1     2   ar
     5     2     3   ar
     6     3     4   ar
     7     4     5   ar
     8     5     6    1
     9     5     7   ar
    10     7     8   ar
    11     8     9   ar
    12     9    10   ar
    13    15    16    1
    14    16    17    1
    15    17    18    1
    16    18    19    2
    17    18    20    1
    18    18    21    1
    19    10     1   ar
    20    10     4   ar
    21     6    11    1
    22     6    12    1
    23    20    22    1
    24    21    23    1
@<TRIPOS>MOLECULE
*****
 23 24 0 0 0
SMALL
GASTEIGER

@<TRIPOS>ATOM
      1 N          -8.4241  -18.9675   21.3092 N.ar    1  UNL1       -0.2918
      2 C          -8.4213  -19.6385   22.6508 C.ar    1  UNL1        0.1798
      3 N          -9.7386  -19.3592   23.3115 N.ar    1  UNL1       -0.2195
      4 C         -10.5556  -18.5155   22.3783 C.ar    1  UNL1        0.1481
      5 C         -11.9343  -17.9364   22.4955 C.ar    1  UNL1        0.1480
      6 N         -12.7468  -18.1785   23.7330 N.pl3   1  UNL1       -0.3413
      7 N         -12.5006  -17.1153   21.3752 N.ar    1  UNL1       -0.2078
      8 C         -11.6881  -16.8732   20.1378 C.ar    1  UNL1        0.2015
      9 N         -10.3094  -17.4523   20.0206 N.ar    1  UNL1       -0.2048
     10 C          -9.7432  -18.2734   21.1408 C.ar    1  UNL1        0.1674
     11 H         -12.3751  -18.7174   24.4683 H       1  UNL1        0.1438
     12 H         -13.6517  -17.7984   23.8099 H       1  UNL1        0.1438
     13 C          -7.3044  -18.9871   20.3113 C.3     1  UNL1        0.1384
     14 C          -5.6600  -20.9967   20.4001 C.3     1  UNL1        0.0342
     15 C          -5.9706  -19.5584   20.6917 C.3     1  UNL1        0.1387
     16 O          -4.9474  -18.6915   21.3636 O.3     1  UNL1       -0.3426
     17 C          -3.6768  -19.2961   21.8833 C.3     1  UNL1        0.2577
     18 P          -2.3682  -18.9720   21.2258 P.3     1  UNL1        0.3665
     19 O          -1.0595  -18.6479   20.5683 O.2     1  UNL1       -0.2556
     20 O          -2.8581  -17.5846   20.9343 O.3     1  UNL1       -0.3220
     21 O          -1.8782  -20.3594   21.5173 O.3     1  UNL1       -0.3220
     22 H          -2.1659  -17.0880   20.4706 H       1  UNL1        0.2198
     23 H          -0.9746  -20.4609   21.1793 H       1  UNL1        0.2198
@<TRIPOS>BOND
     1    15    14    1
     2    15    13    1
     3    13     1    1
     4     1     2   ar
     5     2     3   ar
     6     3     4   ar
     7     4     5   ar
     8     5     6    1
     9     5     7   ar
    10     7     8   ar
    11     8     9   ar
    12     9    10   ar
    13    15    16    1
    14    16    17    1
    15    17    18    1
    16    18    19    2
    17    18    20    1
    18    18    21    1
    19    10     1   ar
    20    10     4   ar
    21     6    11    1
    22     6    12    1
    23    20    22    1
    24    21    23    1
@<TRIPOS>MOLECULE
*****
 23 24 0 0 0
SMALL
GASTEIGER

@<TRIPOS>ATOM
      1 N          -7.9451  -16.2384   23.5121 N.ar    1  UNL1       -0.2918
      2 C          -9.1415  -16.3319   24.4121 C.ar    1  UNL1        0.1798
      3 N          -9.9868  -17.4782   23.9418 N.ar    1  UNL1       -0.2195
      4 C          -9.3129  -18.0933   22.7511 C.ar    1  UNL1        0.1481
      5 C          -9.6853  -19.2521   21.8745 C.ar    1  UNL1        0.1480
      6 N         -10.9472  -20.0183   22.1400 N.pl3   1  UNL1       -0.3413
      7 N          -8.7958  -19.6445   20.7323 N.ar    1  UNL1       -0.2078
      8 C          -7.5339  -18.8783   20.4667 C.ar    1  UNL1        0.2015
      9 N          -7.1616  -17.7195   21.3434 N.ar    1  UNL1       -0.2048
     10 C          -8.0511  -17.3270   22.4856 C.ar    1  UNL1        0.1674
     11 H         -11.5310  -19.7607   22.8897 H       1  UNL1        0.1438
     12 H         -11.1916  -20.7789   21.5646 H       1  UNL1        0.1438
     13 C          -6.8373  -15.2329   23.6197 C.3     1  UNL1        0.1384
     14 C          -5.3178  -15.5493   25.7034 C.3     1  UNL1        0.0342
     15 C          -5.5205  -15.6290   24.2192 C.3     1  UNL1        0.1387
     16 O          -4.4064  -16.1047   23.3346 O.3     1  UNL1       -0.3426
     17 C          -4.0828  -17.5673   23.2569 C.3     1  UNL1        0.2577
     18 P          -3.0712  -18.0600   22.2650 P.3     1  UNL1        0.3665
     19 O          -2.0596  -18.5527   21.2731 O.2     1  UNL1       -0.2556
     20 O          -1.9673  -17.7205   23.2221 O.3     1  UNL1       -0.3220
     21 O          -4.1751  -18.3995   21.3078 O.3     1  UNL1       -0.3220
     22 H          -1.1126  -17.9477   22.8237 H       1  UNL1        0.2198
     23 H          -3.7962  -18.7731   20.4968 H       1  UNL1        0.2198
@<TRIPOS>BOND
     1    15    14    1
     2    15    13    1
     3    13     1    1
     4     1     2   ar
     5     2     3   ar
     6     3     4   ar
     7     4     5   ar
     8     5     6    1
     9     5     7   ar
    10     7     8   ar
    11     8     9   ar
    12     9    10   ar
    13    15    16    1
    14    16    17    1
    15    17    18    1
    16    18    19    2
    17    18    20    1
    18    18    21    1
    19    10     1   ar
    20    10     4   ar
    21     6    11    1
    22     6    12    1
    23    20    22    1
    24    21    23    1
@<TRIPOS>MOLECULE
*****
 23 24 0 0 0
SMALL
GASTEIGER

@<TRIPOS>ATOM
      1 N          -6.7558  -18.6997   21.7767 N.ar    1  UNL1       -0.2918
      2 C          -6.4963  -17.6311   22.7968 C.ar    1  UNL1        0.1798
      3 N          -5.0141  -17.5446   23.0106 N.ar    1  UNL1       -0.2195
      4 C          -4.3576  -18.5597   22.1226 C.ar    1  UNL1        0.1481
      5 C          -2.9187  -18.9261   21.9098 C.ar    1  UNL1        0.1480
      6 N          -1.8423  -18.2122   22.6725 N.pl3   1  UNL1       -0.3413
      7 N          -2.5563  -20.0065   20.9345 N.ar    1  UNL1       -0.2078
      8 C          -3.6327  -20.7205   20.1719 C.ar    1  UNL1        0.2015
      9 N          -5.0716  -20.3540   20.3846 N.ar    1  UNL1       -0.2048
     10 C          -5.4340  -19.2736   21.3599 C.ar    1  UNL1        0.1674
     11 H          -2.0802  -17.5031   23.3126 H       1  UNL1        0.1438
     12 H          -0.8979  -18.4527   22.5328 H       1  UNL1        0.1438
     13 C          -8.1009  -19.1206   21.2633 C.3     1  UNL1        0.1384
     14 C         -10.2629  -19.6173   22.6158 C.3     1  UNL1        0.0342
     15 C          -9.3478  -18.6375   21.9430 C.3     1  UNL1        0.1387
     16 O          -9.6796  -17.1747   21.9499 O.3     1  UNL1       -0.3426
     17 C         -11.1086  -16.7292   21.8531 C.3     1  UNL1        0.2577
     18 P         -11.6805  -16.3265   20.5261 P.3     1  UNL1        0.3665
     19 O         -12.2523  -15.9238   19.1992 O.2     1  UNL1       -0.2556
     20 O         -10.4653  -15.4895   20.2565 O.3     1  UNL1       -0.3220
     21 O         -12.8957  -17.1635   20.7958 O.3     1  UNL1       -0.3220
     22 H         -10.5520  -15.0635   19.3893 H       1  UNL1        0.2198
     23 H         -13.5062  -17.0984   20.0449 H       1  UNL1        0.2198
@<TRIPOS>BOND
     1    15    14    1
     2    15    13    1
     3    13     1    1
     4     1     2   ar
     5     2     3   ar
     6     3     4   ar
     7     4     5   ar
     8     5     6    1
     9     5     7   ar
    10     7     8   ar
    11     8     9   ar
    12     9    10   ar
    13    15    16    1
    14    16    17    1
    15    17    18    1
    16    18    19    2
    17    18    20    1
    18    18    21    1
    19    10     1   ar
    20    10     4   ar
    21     6    11    1
    22     6    12    1
    23    20    22    1
    24    21    23    1
