@<TRIPOS>MOLECULE
*****
 18 20 0 0 0
SMALL
GASTEIGER

@<TRIPOS>ATOM
      1 O          -1.7841  -20.1426   21.3111 O.2     1  UNL1       -0.2748
      2 C          -3.2025  -19.6953   21.5061 C.2     1  UNL1        0.2264
      3 C          -3.5471  -18.7629   22.6294 C.3     1  UNL1        0.0901
      4 C          -4.9655  -18.3156   22.8244 C.3     1  UNL1        0.0372
      5 C          -6.0393  -18.8007   21.8961 C.ar    1  UNL1       -0.0082
      6 C          -7.4577  -18.3534   22.0912 C.ar    1  UNL1       -0.0030
      7 C          -8.5314  -18.8384   21.1629 C.ar    1  UNL1        0.0013
      8 C          -8.1868  -19.7708   20.0395 C.ar    1  UNL1        0.0013
      9 C          -6.7684  -20.2181   19.8445 C.ar    1  UNL1        0.0144
     10 C          -5.6946  -19.7330   20.7728 C.ar    1  UNL1        0.0463
     11 N          -4.2762  -20.1803   20.5778 N.am    1  UNL1       -0.2842
     12 H          -4.0500  -20.7923   19.8405 H       1  UNL1        0.1548
     13 C          -9.9499  -18.3911   21.3579 C.ar    1  UNL1        0.0192
     14 C         -10.5964  -18.5139   22.7059 C.ar    1  UNL1        0.0031
     15 C         -12.0148  -18.0666   22.9009 C.ar    1  UNL1        0.0207
     16 C         -12.7867  -17.4965   21.7480 C.ar    1  UNL1        0.0989
     17 N         -12.1401  -17.3738   20.4001 N.ar    1  UNL1       -0.2423
     18 C         -10.7217  -17.8211   20.2050 C.ar    1  UNL1        0.0988
@<TRIPOS>BOND
     1     1     2    2
     2     2     3    1
     3     3     4    1
     4     4     5    1
     5     5     6   ar
     6     6     7   ar
     7     7    13    1
     8    13    14   ar
     9    14    15   ar
    10    15    16   ar
    11    16    17   ar
    12    17    18   ar
    13     7     8   ar
    14     8     9   ar
    15     9    10   ar
    16    10    11    1
    17    11     2   am
    18    10     5   ar
    19    18    13   ar
    20    11    12    1
@<TRIPOS>MOLECULE
*****
 18 20 0 0 0
SMALL
GASTEIGER

@<TRIPOS>ATOM
      1 O          -0.5441  -18.9648   19.9988 O.2     1  UNL1       -0.2748
      2 C          -1.8917  -18.8618   20.6496 C.2     1  UNL1        0.2264
      3 C          -2.0653  -18.0328   21.8876 C.3     1  UNL1        0.0901
      4 C          -3.4128  -17.9297   22.5383 C.3     1  UNL1        0.0372
      5 C          -4.5868  -18.6556   21.9511 C.ar    1  UNL1       -0.0082
      6 C          -5.9343  -18.5525   22.6018 C.ar    1  UNL1       -0.0030
      7 C          -7.1083  -19.2783   22.0146 C.ar    1  UNL1        0.0013
      8 C          -6.9348  -20.1073   20.7765 C.ar    1  UNL1        0.0013
      9 C          -5.5872  -20.2104   20.1257 C.ar    1  UNL1        0.0144
     10 C          -4.4132  -19.4845   20.7131 C.ar    1  UNL1        0.0463
     11 N          -3.0657  -19.5876   20.0623 N.am    1  UNL1       -0.2842
     12 H          -2.9517  -20.1317   19.2498 H       1  UNL1        0.1548
     13 C          -8.4559  -19.1752   22.6653 C.ar    1  UNL1        0.0192
     14 C          -8.9628  -20.2973   23.5222 C.ar    1  UNL1        0.0031
     15 C         -10.3103  -20.1942   24.1729 C.ar    1  UNL1        0.0207
     16 C         -11.1510  -18.9690   23.9668 C.ar    1  UNL1        0.0989
     17 N         -10.6441  -17.8471   23.1100 N.ar    1  UNL1       -0.2423
     18 C          -9.2965  -17.9502   22.4592 C.ar    1  UNL1        0.0988
@<TRIPOS>BOND
     1     1     2    2
     2     2     3    1
     3     3     4    1
     4     4     5    1
     5     5     6   ar
     6     6     7   ar
     7     7    13    1
     8    13    14   ar
     9    14    15   ar
    10    15    16   ar
    11    16    17   ar
    12    17    18   ar
    13     7     8   ar
    14     8     9   ar
    15     9    10   ar
    16    10    11    1
    17    11     2   am
    18    10     5   ar
    19    18    13   ar
    20    11    12    1
@<TRIPOS>MOLECULE
*****
 18 20 0 0 0
SMALL
GASTEIGER

@<TRIPOS>ATOM
      1 O         -13.8359  -18.1630   23.4891 O.2     1  UNL1       -0.2748
      2 C         -12.3665  -18.4121   23.3198 C.2     1  UNL1        0.2264
      3 C         -11.4810  -18.5241   24.5253 C.3     1  UNL1        0.0901
      4 C         -10.0116  -18.7732   24.3560 C.3     1  UNL1        0.0372
      5 C          -9.4276  -18.9103   22.9812 C.ar    1  UNL1       -0.0082
      6 C          -7.9581  -19.1594   22.8119 C.ar    1  UNL1       -0.0030
      7 C          -7.3742  -19.2965   21.4371 C.ar    1  UNL1        0.0013
      8 C          -8.2597  -19.1845   20.2315 C.ar    1  UNL1        0.0013
      9 C          -9.7291  -18.9354   20.4008 C.ar    1  UNL1        0.0144
     10 C         -10.3131  -18.7983   21.7757 C.ar    1  UNL1        0.0463
     11 N         -11.7825  -18.5492   21.9450 N.am    1  UNL1       -0.2842
     12 H         -12.3637  -18.4757   21.1537 H       1  UNL1        0.1548
     13 C          -5.9047  -19.5456   21.2678 C.ar    1  UNL1        0.0192
     14 C          -5.4162  -20.4223   20.1530 C.ar    1  UNL1        0.0031
     15 C          -3.9467  -20.6714   19.9837 C.ar    1  UNL1        0.0207
     16 C          -2.9658  -20.0437   20.9293 C.ar    1  UNL1        0.0989
     17 N          -3.4544  -19.1671   22.0440 N.ar    1  UNL1       -0.2423
     18 C          -4.9238  -18.9180   22.2133 C.ar    1  UNL1        0.0988
@<TRIPOS>BOND
     1     1     2    2
     2     2     3    1
     3     3     4    1
     4     4     5    1
     5     5     6   ar
     6     6     7   ar
     7     7    13    1
     8    13    14   ar
     9    14    15   ar
    10    15    16   ar
    11    16    17   ar
    12    17    18   ar
    13     7     8   ar
    14     8     9   ar
    15     9    10   ar
    16    10    11    1
    17    11     2   am
    18    10     5   ar
    19    18    13   ar
    20    11    12    1
@<TRIPOS>MOLECULE
*****
 18 20 0 0 0
SMALL
GASTEIGER

@<TRIPOS>ATOM
      1 O         -13.5384  -17.6092   21.3220 O.2     1  UNL1       -0.2748
      2 C         -12.0618  -17.7928   21.5109 C.2     1  UNL1        0.2264
      3 C         -11.3808  -17.2073   22.7123 C.3     1  UNL1        0.0901
      4 C          -9.9041  -17.3909   22.9012 C.3     1  UNL1        0.0372
      5 C          -9.1084  -18.1601   21.8887 C.ar    1  UNL1       -0.0082
      6 C          -7.6317  -18.3437   22.0776 C.ar    1  UNL1       -0.0030
      7 C          -6.8360  -19.1129   21.0651 C.ar    1  UNL1        0.0013
      8 C          -7.5170  -19.6984   19.8636 C.ar    1  UNL1        0.0013
      9 C          -8.9937  -19.5148   19.6747 C.ar    1  UNL1        0.0144
     10 C          -9.7894  -18.7456   20.6873 C.ar    1  UNL1        0.0463
     11 N         -11.2660  -18.5620   20.4984 N.am    1  UNL1       -0.2842
     12 H         -11.7130  -18.9463   19.7099 H       1  UNL1        0.1548
     13 C          -5.3593  -19.2965   21.2540 C.ar    1  UNL1        0.0192
     14 C          -4.6413  -18.5399   22.3320 C.ar    1  UNL1        0.0031
     15 C          -3.1646  -18.7235   22.5209 C.ar    1  UNL1        0.0207
     16 C          -2.4059  -19.6637   21.6317 C.ar    1  UNL1        0.0989
     17 N          -3.1240  -20.4203   20.5538 N.ar    1  UNL1       -0.2423
     18 C          -4.6006  -20.2366   20.3649 C.ar    1  UNL1        0.0988
@<TRIPOS>BOND
     1     1     2    2
     2     2     3    1
     3     3     4    1
     4     4     5    1
     5     5     6   ar
     6     6     7   ar
     7     7    13    1
     8    13    14   ar
     9    14    15   ar
    10    15    16   ar
    11    16    17   ar
    12    17    18   ar
    13     7     8   ar
    14     8     9   ar
    15     9    10   ar
    16    10    11    1
    17    11     2   am
    18    10     5   ar
    19    18    13   ar
    20    11    12    1
@<TRIPOS>MOLECULE
*****
 18 20 0 0 0
SMALL
GASTEIGER

@<TRIPOS>ATOM
      1 O         -13.6909  -17.5171   23.6178 O.2     1  UNL1       -0.2748
      2 C         -12.2676  -17.6525   23.1640 C.2     1  UNL1        0.2264
      3 C         -11.6213  -16.5475   22.3823 C.3     1  UNL1        0.0901
      4 C         -10.1980  -16.6829   21.9285 C.3     1  UNL1        0.0372
      5 C          -9.4210  -17.9233   22.2565 C.ar    1  UNL1       -0.0082
      6 C          -7.9977  -18.0587   21.8028 C.ar    1  UNL1       -0.0030
      7 C          -7.2208  -19.2992   22.1308 C.ar    1  UNL1        0.0013
      8 C          -7.8671  -20.4043   22.9125 C.ar    1  UNL1        0.0013
      9 C          -9.2904  -20.2688   23.3663 C.ar    1  UNL1        0.0144
     10 C         -10.0673  -19.0283   23.0383 C.ar    1  UNL1        0.0463
     11 N         -11.4906  -18.8929   23.4920 N.am    1  UNL1       -0.2842
     12 H         -11.9148  -19.6182   24.0051 H       1  UNL1        0.1548
     13 C          -5.7975  -19.4346   21.6770 C.ar    1  UNL1        0.0192
     14 C          -5.4710  -20.2608   20.4683 C.ar    1  UNL1        0.0031
     15 C          -4.0477  -20.3962   20.0145 C.ar    1  UNL1        0.0207
     16 C          -2.9509  -19.7054   20.7695 C.ar    1  UNL1        0.0989
     17 N          -3.2774  -18.8793   21.9781 N.ar    1  UNL1       -0.2423
     18 C          -4.7007  -18.7439   22.4319 C.ar    1  UNL1        0.0988
@<TRIPOS>BOND
     1     1     2    2
     2     2     3    1
     3     3     4    1
     4     4     5    1
     5     5     6   ar
     6     6     7   ar
     7     7    13    1
     8    13    14   ar
     9    14    15   ar
    10    15    16   ar
    11    16    17   ar
    12    17    18   ar
    13     7     8   ar
    14     8     9   ar
    15     9    10   ar
    16    10    11    1
    17    11     2   am
    18    10     5   ar
    19    18    13   ar
    20    11    12    1
@<TRIPOS>MOLECULE
*****
 18 20 0 0 0
SMALL
GASTEIGER

@<TRIPOS>ATOM
      1 O         -13.3411  -17.5505   23.4786 O.2     1  UNL1       -0.2748
      2 C         -11.9646  -17.9972   23.0842 C.2     1  UNL1        0.2264
      3 C         -11.7787  -19.2874   22.3421 C.3     1  UNL1        0.0901
      4 C         -10.4021  -19.7341   21.9476 C.3     1  UNL1        0.0372
      5 C          -9.2115  -18.8906   22.2953 C.ar    1  UNL1       -0.0082
      6 C          -7.8350  -19.3374   21.9009 C.ar    1  UNL1       -0.0030
      7 C          -6.6444  -18.4939   22.2485 C.ar    1  UNL1        0.0013
      8 C          -6.8302  -17.2036   22.9907 C.ar    1  UNL1        0.0013
      9 C          -8.2068  -16.7569   23.3851 C.ar    1  UNL1        0.0144
     10 C          -9.3974  -17.6004   23.0374 C.ar    1  UNL1        0.0463
     11 N         -10.7740  -17.1537   23.4319 N.am    1  UNL1       -0.2842
     12 H         -10.8960  -16.3069   23.9189 H       1  UNL1        0.1548
     13 C          -5.2678  -18.9406   21.8541 C.ar    1  UNL1        0.0192
     14 C          -4.0710  -18.4301   22.6005 C.ar    1  UNL1        0.0031
     15 C          -2.6945  -18.8769   22.2061 C.ar    1  UNL1        0.0207
     16 C          -2.5147  -19.8340   21.0652 C.ar    1  UNL1        0.0989
     17 N          -3.7115  -20.3444   20.3188 N.ar    1  UNL1       -0.2423
     18 C          -5.0881  -19.8977   20.7132 C.ar    1  UNL1        0.0988
@<TRIPOS>BOND
     1     1     2    2
     2     2     3    1
     3     3     4    1
     4     4     5    1
     5     5     6   ar
     6     6     7   ar
     7     7    13    1
     8    13    14   ar
     9    14    15   ar
    10    15    16   ar
    11    16    17   ar
    12    17    18   ar
    13     7     8   ar
    14     8     9   ar
    15     9    10   ar
    16    10    11    1
    17    11     2   am
    18    10     5   ar
    19    18    13   ar
    20    11    12    1
@<TRIPOS>MOLECULE
*****
 18 20 0 0 0
SMALL
GASTEIGER

@<TRIPOS>ATOM
      1 O          -9.1535   -8.0517   18.5744 O.2     1  UNL1       -0.2748
      2 C         -10.1605   -6.9576   18.7715 C.2     1  UNL1        0.2264
      3 C          -9.7131   -5.5268   18.8228 C.3     1  UNL1        0.0901
      4 C         -10.7201   -4.4327   19.0199 C.3     1  UNL1        0.0372
      5 C         -12.1745   -4.7693   19.1656 C.ar    1  UNL1       -0.0082
      6 C         -13.1815   -3.6751   19.3627 C.ar    1  UNL1       -0.0030
      7 C         -14.6359   -4.0117   19.5085 C.ar    1  UNL1        0.0013
      8 C         -15.0834   -5.4426   19.4571 C.ar    1  UNL1        0.0013
      9 C         -14.0764   -6.5367   19.2600 C.ar    1  UNL1        0.0144
     10 C         -12.6219   -6.2000   19.1143 C.ar    1  UNL1        0.0463
     11 N         -11.6149   -7.2942   18.9172 N.am    1  UNL1       -0.2842
     12 H         -11.9086   -8.2332   18.8835 H       1  UNL1        0.1548
     13 C         -15.6429   -2.9176   19.7055 C.ar    1  UNL1        0.0192
     14 C         -15.1843   -1.5034   19.9053 C.ar    1  UNL1        0.0031
     15 C         -16.1913   -0.4092   20.1023 C.ar    1  UNL1        0.0207
     16 C         -17.6568   -0.7293   20.0997 C.ar    1  UNL1        0.0989
     17 N         -18.1153   -2.1435   19.9000 N.ar    1  UNL1       -0.2423
     18 C         -17.1083   -3.2376   19.7029 C.ar    1  UNL1        0.0988
@<TRIPOS>BOND
     1     1     2    2
     2     2     3    1
     3     3     4    1
     4     4     5    1
     5     5     6   ar
     6     6     7   ar
     7     7    13    1
     8    13    14   ar
     9    14    15   ar
    10    15    16   ar
    11    16    17   ar
    12    17    18   ar
    13     7     8   ar
    14     8     9   ar
    15     9    10   ar
    16    10    11    1
    17    11     2   am
    18    10     5   ar
    19    18    13   ar
    20    11    12    1
@<TRIPOS>MOLECULE
*****
 18 20 0 0 0
SMALL
GASTEIGER

@<TRIPOS>ATOM
      1 O          -8.6030   -3.6426   16.5765 O.2     1  UNL1       -0.2748
      2 C          -9.7585   -4.4176   17.1372 C.2     1  UNL1        0.2264
      3 C         -10.1932   -4.1951   18.5554 C.3     1  UNL1        0.0901
      4 C         -11.3487   -4.9701   19.1161 C.3     1  UNL1        0.0372
      5 C         -12.0694   -5.9676   18.2584 C.ar    1  UNL1       -0.0082
      6 C         -13.2248   -6.7426   18.8191 C.ar    1  UNL1       -0.0030
      7 C         -13.9455   -7.7401   17.9615 C.ar    1  UNL1        0.0013
      8 C         -13.5108   -7.9627   16.5432 C.ar    1  UNL1        0.0013
      9 C         -12.3554   -7.1877   15.9825 C.ar    1  UNL1        0.0144
     10 C         -11.6346   -6.1901   16.8402 C.ar    1  UNL1        0.0463
     11 N         -10.4792   -5.4151   16.2796 N.am    1  UNL1       -0.2842
     12 H         -10.1939   -5.5612   15.3487 H       1  UNL1        0.1548
     13 C         -15.1010   -8.5151   18.5221 C.ar    1  UNL1        0.0192
     14 C         -16.0668   -7.8501   19.4576 C.ar    1  UNL1        0.0031
     15 C         -17.2223   -8.6251   20.0182 C.ar    1  UNL1        0.0207
     16 C         -17.4119  -10.0651   19.6434 C.ar    1  UNL1        0.0989
     17 N         -16.4461  -10.7301   18.7080 N.ar    1  UNL1       -0.2423
     18 C         -15.2907   -9.9551   18.1473 C.ar    1  UNL1        0.0988
@<TRIPOS>BOND
     1     1     2    2
     2     2     3    1
     3     3     4    1
     4     4     5    1
     5     5     6   ar
     6     6     7   ar
     7     7    13    1
     8    13    14   ar
     9    14    15   ar
    10    15    16   ar
    11    16    17   ar
    12    17    18   ar
    13     7     8   ar
    14     8     9   ar
    15     9    10   ar
    16    10    11    1
    17    11     2   am
    18    10     5   ar
    19    18    13   ar
    20    11    12    1
@<TRIPOS>MOLECULE
*****
 18 20 0 0 0
SMALL
GASTEIGER

@<TRIPOS>ATOM
      1 O          -9.2232   -8.0459   18.2878 O.2     1  UNL1       -0.2748
      2 C          -9.8946   -6.7047   18.3026 C.2     1  UNL1        0.2264
      3 C          -9.2425   -5.5321   17.6320 C.3     1  UNL1        0.0901
      4 C          -9.9139   -4.1908   17.6468 C.3     1  UNL1        0.0372
      5 C         -11.2374   -4.0221   18.3322 C.ar    1  UNL1       -0.0082
      6 C         -11.9088   -2.6809   18.3470 C.ar    1  UNL1       -0.0030
      7 C         -13.2323   -2.5122   19.0325 C.ar    1  UNL1        0.0013
      8 C         -13.8844   -3.6848   19.7032 C.ar    1  UNL1        0.0013
      9 C         -13.2130   -5.0261   19.6884 C.ar    1  UNL1        0.0144
     10 C         -11.8895   -5.1947   19.0029 C.ar    1  UNL1        0.0463
     11 N         -11.2181   -6.5360   18.9881 N.am    1  UNL1       -0.2842
     12 H         -11.6461   -7.3056   19.4283 H       1  UNL1        0.1548
     13 C         -13.9037   -1.1709   19.0472 C.ar    1  UNL1        0.0192
     14 C         -15.2872   -1.0309   19.6098 C.ar    1  UNL1        0.0031
     15 C         -15.9586    0.3103   19.6245 C.ar    1  UNL1        0.0207
     16 C         -15.2465    1.5116   19.0768 C.ar    1  UNL1        0.0989
     17 N         -13.8631    1.3716   18.5143 N.ar    1  UNL1       -0.2423
     18 C         -13.1917    0.0303   18.4995 C.ar    1  UNL1        0.0988
@<TRIPOS>BOND
     1     1     2    2
     2     2     3    1
     3     3     4    1
     4     4     5    1
     5     5     6   ar
     6     6     7   ar
     7     7    13    1
     8    13    14   ar
     9    14    15   ar
    10    15    16   ar
    11    16    17   ar
    12    17    18   ar
    13     7     8   ar
    14     8     9   ar
    15     9    10   ar
    16    10    11    1
    17    11     2   am
    18    10     5   ar
    19    18    13   ar
    20    11    12    1
