@<TRIPOS>MOLECULE
*****
 30 33 0 0 0
SMALL
GASTEIGER

@<TRIPOS>ATOM
      1 N          -8.1425  -19.5193   21.3702 N.3     1  UNL1       -0.2641
      2 C          -8.7368  -19.1349   22.6927 C.3     1  UNL1        0.0981
      3 C          -9.5798  -20.1176   23.4501 C.3     1  UNL1        0.0224
      4 C         -10.1742  -19.7333   24.7726 C.3     1  UNL1        0.0065
      5 C          -9.9256  -18.3663   25.3377 C.3     1  UNL1        0.0277
      6 C          -9.0826  -17.3836   24.5803 C.ar    1  UNL1       -0.0073
      7 C          -8.8340  -16.0165   25.1454 C.ar    1  UNL1       -0.0015
      8 C          -7.9910  -15.0338   24.3880 C.ar    1  UNL1        0.0203
      9 C          -7.3966  -15.4181   23.0655 C.ar    1  UNL1        0.0985
     10 N          -7.6452  -16.7852   22.5004 N.ar    1  UNL1       -0.2471
     11 C          -8.4882  -17.7679   23.2578 C.ar    1  UNL1        0.0695
     12 C          -8.8603  -19.1787   20.0979 C.3     1  UNL1        0.0989
     13 C         -10.5045  -17.1672   20.0750 C.2     1  UNL1       -0.0125
     14 C         -10.2615  -18.6456   20.1470 C.2     1  UNL1       -0.0120
     15 N         -12.3469  -15.5927   19.1388 N.3     1  UNL1       -0.3175
     16 C         -11.9057  -16.6342   20.1240 C.3     1  UNL1        0.0916
     17 H         -13.3210  -15.3476   19.3164 H       1  UNL1        0.1192
     18 H         -12.2562  -15.9605   18.1917 H       1  UNL1        0.1192
     19 C          -6.8303  -20.2442   21.3200 C.3     1  UNL1        0.0889
     20 C          -5.5448  -19.4722   21.3601 C.3     1  UNL1        0.0764
     21 C          -4.6580  -19.4287   20.1511 C.3     1  UNL1        0.0626
     22 C          -3.3725  -18.6567   20.1912 C.ar    1  UNL1        0.0577
     23 N          -2.4857  -18.6132   18.9822 N.ar    1  UNL1       -0.2484
     24 C          -1.2003  -17.8412   19.0224 C.ar    1  UNL1        0.0984
     25 C          -0.8017  -17.1126   20.2715 C.ar    1  UNL1        0.0204
     26 C          -1.6885  -17.1560   21.4804 C.ar    1  UNL1       -0.0002
     27 C          -2.9739  -17.9280   21.4403 C.ar    1  UNL1        0.0073
     28 C          -3.8608  -17.9715   22.6493 C.3     1  UNL1        0.0968
     29 N          -5.1462  -18.7435   22.6092 N.3     1  UNL1       -0.2934
     30 H          -5.8941  -18.0812   22.8150 H       1  UNL1        0.1236
@<TRIPOS>BOND
     1    15    16    1
     2    16    13    1
     3    13    14    2
     4    14    12    1
     5    12     1    1
     6     1    19    1
     7    20    19    1
     8    20    21    1
     9    21    22    1
    10    22    23   ar
    11    23    24   ar
    12    24    25   ar
    13    25    26   ar
    14    26    27   ar
    15    27    28    1
    16    28    29    1
    17     2     1    1
    18     2     3    1
    19     3     4    1
    20     4     5    1
    21     5     6    1
    22     6     7   ar
    23     7     8   ar
    24     8     9   ar
    25     9    10   ar
    26    10    11   ar
    27    29    20    1
    28    11     2    1
    29    27    22   ar
    30    11     6   ar
    31    15    17    1
    32    15    18    1
    33    29    30    1
@<TRIPOS>MOLECULE
*****
 30 33 0 0 0
SMALL
GASTEIGER

@<TRIPOS>ATOM
      1 N          -8.0253  -17.8442   22.8709 N.3     1  UNL1       -0.2641
      2 C          -9.4922  -18.0006   23.1424 C.3     1  UNL1        0.0981
      3 C          -9.9543  -18.7396   24.3632 C.3     1  UNL1        0.0224
      4 C         -11.4212  -18.8960   24.6347 C.3     1  UNL1        0.0065
      5 C         -12.4260  -18.3135   23.6855 C.3     1  UNL1        0.0277
      6 C         -11.9638  -17.5745   22.4648 C.ar    1  UNL1       -0.0073
      7 C         -12.9686  -16.9919   21.5155 C.ar    1  UNL1       -0.0015
      8 C         -12.5065  -16.2529   20.2948 C.ar    1  UNL1        0.0203
      9 C         -11.0396  -16.0964   20.0232 C.ar    1  UNL1        0.0985
     10 N         -10.0348  -16.6790   20.9724 N.ar    1  UNL1       -0.2471
     11 C         -10.4970  -17.4180   22.1932 C.ar    1  UNL1        0.0695
     12 C          -7.3939  -16.4845   22.9220 C.3     1  UNL1        0.0989
     13 C          -5.6990  -15.7678   24.7560 C.2     1  UNL1       -0.0125
     14 C          -7.1077  -15.8398   24.2458 C.2     1  UNL1       -0.0120
     15 N          -6.5350  -14.8390   27.0339 N.3     1  UNL1       -0.3175
     16 C          -5.4128  -15.1231   26.0798 C.3     1  UNL1        0.0916
     17 H          -6.1621  -14.4025   27.8770 H       1  UNL1        0.1192
     18 H          -7.0007  -15.7123   27.2807 H       1  UNL1        0.1192
     19 C          -7.1898  -19.0474   22.5482 C.3     1  UNL1        0.0889
     20 C          -5.9764  -18.9063   21.6775 C.3     1  UNL1        0.0764
     21 C          -4.6304  -18.6771   22.2984 C.3     1  UNL1        0.0626
     22 C          -3.4170  -18.5361   21.4278 C.ar    1  UNL1        0.0577
     23 N          -2.0709  -18.3068   22.0486 N.ar    1  UNL1       -0.2484
     24 C          -0.8577  -18.1658   21.1780 C.ar    1  UNL1        0.0984
     25 C          -0.9905  -18.2540   19.6865 C.ar    1  UNL1        0.0204
     26 C          -2.3365  -18.4832   19.0656 C.ar    1  UNL1       -0.0002
     27 C          -3.5498  -18.6243   19.9363 C.ar    1  UNL1        0.0073
     28 C          -4.8959  -18.8535   19.3154 C.3     1  UNL1        0.0968
     29 N          -6.1092  -18.9945   20.1860 N.3     1  UNL1       -0.2934
     30 H          -6.5150  -19.9074   19.9800 H       1  UNL1        0.1236
@<TRIPOS>BOND
     1    15    16    1
     2    16    13    1
     3    13    14    2
     4    14    12    1
     5    12     1    1
     6     1    19    1
     7    20    19    1
     8    20    21    1
     9    21    22    1
    10    22    23   ar
    11    23    24   ar
    12    24    25   ar
    13    25    26   ar
    14    26    27   ar
    15    27    28    1
    16    28    29    1
    17     2     1    1
    18     2     3    1
    19     3     4    1
    20     4     5    1
    21     5     6    1
    22     6     7   ar
    23     7     8   ar
    24     8     9   ar
    25     9    10   ar
    26    10    11   ar
    27    29    20    1
    28    11     2    1
    29    27    22   ar
    30    11     6   ar
    31    15    17    1
    32    15    18    1
    33    29    30    1
@<TRIPOS>MOLECULE
*****
 30 33 0 0 0
SMALL
GASTEIGER

@<TRIPOS>ATOM
      1 N          -5.4739  -16.6498   23.4015 N.3     1  UNL1       -0.2641
      2 C          -5.0652  -17.7715   22.4934 C.3     1  UNL1        0.0981
      3 C          -5.9707  -18.9525   22.3059 C.3     1  UNL1        0.0224
      4 C          -5.5620  -20.0743   21.3978 C.3     1  UNL1        0.0065
      5 C          -4.2478  -20.0150   20.6772 C.3     1  UNL1        0.0277
      6 C          -3.3423  -18.8339   20.8647 C.ar    1  UNL1       -0.0073
      7 C          -2.0280  -18.7746   20.1440 C.ar    1  UNL1       -0.0015
      8 C          -1.1225  -17.5935   20.3315 C.ar    1  UNL1        0.0203
      9 C          -1.5312  -16.4718   21.2396 C.ar    1  UNL1        0.0985
     10 N          -2.8454  -16.5311   21.9603 N.ar    1  UNL1       -0.2471
     11 C          -3.7510  -17.7122   21.7728 C.ar    1  UNL1        0.0695
     12 C          -4.8776  -16.5403   24.7735 C.3     1  UNL1        0.0989
     13 C          -6.4768  -15.9998   26.7485 C.2     1  UNL1       -0.0125
     14 C          -5.4391  -15.5589   25.7592 C.2     1  UNL1       -0.0120
     15 N          -8.4964  -14.6684   27.6966 N.3     1  UNL1       -0.3175
     16 C          -7.0382  -15.0183   27.7341 C.3     1  UNL1        0.0916
     17 H          -8.7028  -13.9921   28.4316 H       1  UNL1        0.1192
     18 H          -9.0522  -15.5110   27.8440 H       1  UNL1        0.1192
     19 C          -6.4788  -15.6374   22.9376 C.3     1  UNL1        0.0889
     20 C          -7.9201  -16.0254   22.7880 C.3     1  UNL1        0.0764
     21 C          -8.5548  -16.9511   23.7831 C.3     1  UNL1        0.0626
     22 C          -9.9960  -17.3391   23.6336 C.ar    1  UNL1        0.0577
     23 N         -10.6307  -18.2647   24.6287 N.ar    1  UNL1       -0.2484
     24 C         -12.0719  -18.6526   24.4791 C.ar    1  UNL1        0.0984
     25 C         -12.8784  -18.1149   23.3344 C.ar    1  UNL1        0.0204
     26 C         -12.2437  -17.1892   22.3393 C.ar    1  UNL1       -0.0002
     27 C         -10.8026  -16.8013   22.4889 C.ar    1  UNL1        0.0073
     28 C         -10.1678  -15.8756   21.4937 C.3     1  UNL1        0.0968
     29 N          -8.7266  -15.4876   21.6433 N.3     1  UNL1       -0.2934
     30 H          -8.7016  -14.4707   21.7176 H       1  UNL1        0.1236
@<TRIPOS>BOND
     1    15    16    1
     2    16    13    1
     3    13    14    2
     4    14    12    1
     5    12     1    1
     6     1    19    1
     7    20    19    1
     8    20    21    1
     9    21    22    1
    10    22    23   ar
    11    23    24   ar
    12    24    25   ar
    13    25    26   ar
    14    26    27   ar
    15    27    28    1
    16    28    29    1
    17     2     1    1
    18     2     3    1
    19     3     4    1
    20     4     5    1
    21     5     6    1
    22     6     7   ar
    23     7     8   ar
    24     8     9   ar
    25     9    10   ar
    26    10    11   ar
    27    29    20    1
    28    11     2    1
    29    27    22   ar
    30    11     6   ar
    31    15    17    1
    32    15    18    1
    33    29    30    1
@<TRIPOS>MOLECULE
*****
 30 33 0 0 0
SMALL
GASTEIGER

@<TRIPOS>ATOM
      1 N          -8.2555  -19.2002   20.6004 N.3     1  UNL1       -0.2641
      2 C          -8.3457  -18.2438   21.7524 C.3     1  UNL1        0.0981
      3 C          -7.7575  -16.8691   21.6337 C.3     1  UNL1        0.0224
      4 C          -7.8478  -15.9126   22.7856 C.3     1  UNL1        0.0065
      5 C          -8.5263  -16.3309   24.0563 C.3     1  UNL1        0.0277
      6 C          -9.1145  -17.7056   24.1750 C.ar    1  UNL1       -0.0073
      7 C          -9.7931  -18.1239   25.4457 C.ar    1  UNL1       -0.0015
      8 C         -10.3813  -19.4986   25.5644 C.ar    1  UNL1        0.0203
      9 C         -10.2910  -20.4550   24.4125 C.ar    1  UNL1        0.0985
     10 N          -9.6125  -20.0368   23.1418 N.ar    1  UNL1       -0.2471
     11 C          -9.0242  -18.6620   23.0230 C.ar    1  UNL1        0.0695
     12 C          -9.3202  -19.2044   19.5439 C.3     1  UNL1        0.0989
     13 C         -10.8099  -17.0821   19.7076 C.2     1  UNL1       -0.0125
     14 C         -10.6514  -18.5696   19.8180 C.2     1  UNL1       -0.0120
     15 N         -12.6990  -15.4331   19.0278 N.3     1  UNL1       -0.3175
     16 C         -12.1410  -16.4474   19.9818 C.3     1  UNL1        0.0916
     17 H         -13.6044  -15.1088   19.3676 H       1  UNL1        0.1192
     18 H         -12.8137  -15.8586   18.1079 H       1  UNL1        0.1192
     19 C          -7.1005  -20.1525   20.5049 C.3     1  UNL1        0.0889
     20 C          -5.7057  -19.6689   20.7714 C.3     1  UNL1        0.0764
     21 C          -4.8498  -19.1866   19.6379 C.3     1  UNL1        0.0626
     22 C          -3.4550  -18.7030   19.9043 C.ar    1  UNL1        0.0577
     23 N          -2.5991  -18.2208   18.7709 N.ar    1  UNL1       -0.2484
     24 C          -1.2045  -17.7372   19.0373 C.ar    1  UNL1        0.0984
     25 C          -0.6657  -17.7359   20.4372 C.ar    1  UNL1        0.0204
     26 C          -1.5216  -18.2182   21.5707 C.ar    1  UNL1       -0.0002
     27 C          -2.9163  -18.7018   21.3042 C.ar    1  UNL1        0.0073
     28 C          -3.7723  -19.1841   22.4377 C.3     1  UNL1        0.0968
     29 N          -5.1670  -19.6676   22.1713 N.3     1  UNL1       -0.2934
     30 H          -5.7922  -19.0838   22.7268 H       1  UNL1        0.1236
@<TRIPOS>BOND
     1    15    16    1
     2    16    13    1
     3    13    14    2
     4    14    12    1
     5    12     1    1
     6     1    19    1
     7    20    19    1
     8    20    21    1
     9    21    22    1
    10    22    23   ar
    11    23    24   ar
    12    24    25   ar
    13    25    26   ar
    14    26    27   ar
    15    27    28    1
    16    28    29    1
    17     2     1    1
    18     2     3    1
    19     3     4    1
    20     4     5    1
    21     5     6    1
    22     6     7   ar
    23     7     8   ar
    24     8     9   ar
    25     9    10   ar
    26    10    11   ar
    27    29    20    1
    28    11     2    1
    29    27    22   ar
    30    11     6   ar
    31    15    17    1
    32    15    18    1
    33    29    30    1
@<TRIPOS>MOLECULE
*****
 30 33 0 0 0
SMALL
GASTEIGER

@<TRIPOS>ATOM
      1 N          -5.2759  -16.3327   23.7565 N.3     1  UNL1       -0.2641
      2 C          -4.3794  -17.1493   22.8736 C.3     1  UNL1        0.0981
      3 C          -2.9404  -16.7620   22.7023 C.3     1  UNL1        0.0224
      4 C          -2.0439  -17.5786   21.8194 C.3     1  UNL1        0.0065
      5 C          -2.5864  -18.7824   21.1078 C.3     1  UNL1        0.0277
      6 C          -4.0253  -19.1697   21.2791 C.ar    1  UNL1       -0.0073
      7 C          -4.5678  -20.3737   20.5675 C.ar    1  UNL1       -0.0015
      8 C          -6.0068  -20.7610   20.7388 C.ar    1  UNL1        0.0203
      9 C          -6.9033  -19.9444   21.6217 C.ar    1  UNL1        0.0985
     10 N          -6.3608  -18.7405   22.3333 N.ar    1  UNL1       -0.2471
     11 C          -4.9218  -18.3532   22.1620 C.ar    1  UNL1        0.0695
     12 C          -5.1771  -16.4591   25.2478 C.3     1  UNL1        0.0989
     13 C          -7.1332  -15.9109   26.8675 C.2     1  UNL1       -0.0125
     14 C          -5.8971  -15.4848   26.1324 C.2     1  UNL1       -0.0120
     15 N          -7.1011  -13.8076   28.3924 N.3     1  UNL1       -0.3175
     16 C          -7.8531  -14.9366   27.7521 C.3     1  UNL1        0.0916
     17 H          -7.7420  -13.2483   28.9554 H       1  UNL1        0.1192
     18 H          -6.6852  -13.2221   27.6681 H       1  UNL1        0.1192
     19 C          -6.2711  -15.3898   23.1480 C.3     1  UNL1        0.0889
     20 C          -7.6789  -15.8436   22.8983 C.3     1  UNL1        0.0764
     21 C          -8.3520  -16.7684   23.8687 C.3     1  UNL1        0.0626
     22 C          -9.7598  -17.2222   23.6190 C.ar    1  UNL1        0.0577
     23 N         -10.4329  -18.1469   24.5894 N.ar    1  UNL1       -0.2484
     24 C         -11.8406  -18.6008   24.3396 C.ar    1  UNL1        0.0984
     25 C         -12.5752  -18.1298   23.1195 C.ar    1  UNL1        0.0204
     26 C         -11.9020  -17.2051   22.1491 C.ar    1  UNL1       -0.0002
     27 C         -10.4943  -16.7513   22.3988 C.ar    1  UNL1        0.0073
     28 C          -9.8211  -15.8265   21.4284 C.3     1  UNL1        0.0968
     29 N          -8.4134  -15.3727   21.6782 N.3     1  UNL1       -0.2934
     30 H          -8.4361  -14.3539   21.7230 H       1  UNL1        0.1236
@<TRIPOS>BOND
     1    15    16    1
     2    16    13    1
     3    13    14    2
     4    14    12    1
     5    12     1    1
     6     1    19    1
     7    20    19    1
     8    20    21    1
     9    21    22    1
    10    22    23   ar
    11    23    24   ar
    12    24    25   ar
    13    25    26   ar
    14    26    27   ar
    15    27    28    1
    16    28    29    1
    17     2     1    1
    18     2     3    1
    19     3     4    1
    20     4     5    1
    21     5     6    1
    22     6     7   ar
    23     7     8   ar
    24     8     9   ar
    25     9    10   ar
    26    10    11   ar
    27    29    20    1
    28    11     2    1
    29    27    22   ar
    30    11     6   ar
    31    15    17    1
    32    15    18    1
    33    29    30    1
@<TRIPOS>MOLECULE
*****
 30 33 0 0 0
SMALL
GASTEIGER

@<TRIPOS>ATOM
      1 N         -12.1842   -3.6087   18.1196 N.3     1  UNL1       -0.2641
      2 C         -12.1730   -2.1307   17.8641 C.3     1  UNL1        0.0981
      3 C         -11.0428   -1.5106   17.0973 C.3     1  UNL1        0.0224
      4 C         -11.0316   -0.0326   16.8418 C.3     1  UNL1        0.0065
      5 C         -12.1507    0.8254   17.3530 C.3     1  UNL1        0.0277
      6 C         -13.2810    0.2053   18.1198 C.ar    1  UNL1       -0.0073
      7 C         -14.4002    1.0633   18.6310 C.ar    1  UNL1       -0.0015
      8 C         -15.5305    0.4432   19.3978 C.ar    1  UNL1        0.0203
      9 C         -15.5417   -1.0348   19.6533 C.ar    1  UNL1        0.0985
     10 N         -14.4225   -1.8928   19.1421 N.ar    1  UNL1       -0.2471
     11 C         -13.2922   -1.2727   18.3753 C.ar    1  UNL1        0.0695
     12 C         -11.3661   -4.1826   19.2381 C.3     1  UNL1        0.0989
     13 C         -10.5704   -6.6425   18.9810 C.2     1  UNL1       -0.0125
     14 C         -10.2783   -5.1718   18.9407 C.2     1  UNL1       -0.0120
     15 N          -9.7701   -8.8265   17.8235 N.3     1  UNL1       -0.3175
     16 C          -9.4827   -7.6316   18.6836 C.3     1  UNL1        0.0916
     17 H          -8.9236   -9.3873   17.7267 H       1  UNL1        0.1192
     18 H         -10.0793   -8.5160   16.9024 H       1  UNL1        0.1192
     19 C         -13.0135   -4.5128   17.2566 C.3     1  UNL1        0.0889
     20 C         -14.0520   -5.3985   17.8787 C.3     1  UNL1        0.0764
     21 C         -14.1112   -6.8531   17.5175 C.3     1  UNL1        0.0626
     22 C         -15.1498   -7.7388   18.1397 C.ar    1  UNL1        0.0577
     23 N         -15.2090   -9.1934   17.7784 N.ar    1  UNL1       -0.2484
     24 C         -16.2475  -10.0790   18.4006 C.ar    1  UNL1        0.0984
     25 C         -17.2268   -9.5100   19.3840 C.ar    1  UNL1        0.0204
     26 C         -17.1676   -8.0554   19.7453 C.ar    1  UNL1       -0.0002
     27 C         -16.1291   -7.1698   19.1231 C.ar    1  UNL1        0.0073
     28 C         -16.0699   -5.7151   19.4844 C.3     1  UNL1        0.0968
     29 N         -15.0313   -4.8295   18.8622 N.3     1  UNL1       -0.2934
     30 H         -14.4845   -4.4345   19.6273 H       1  UNL1        0.1236
@<TRIPOS>BOND
     1    15    16    1
     2    16    13    1
     3    13    14    2
     4    14    12    1
     5    12     1    1
     6     1    19    1
     7    20    19    1
     8    20    21    1
     9    21    22    1
    10    22    23   ar
    11    23    24   ar
    12    24    25   ar
    13    25    26   ar
    14    26    27   ar
    15    27    28    1
    16    28    29    1
    17     2     1    1
    18     2     3    1
    19     3     4    1
    20     4     5    1
    21     5     6    1
    22     6     7   ar
    23     7     8   ar
    24     8     9   ar
    25     9    10   ar
    26    10    11   ar
    27    29    20    1
    28    11     2    1
    29    27    22   ar
    30    11     6   ar
    31    15    17    1
    32    15    18    1
    33    29    30    1
@<TRIPOS>MOLECULE
*****
 30 33 0 0 0
SMALL
GASTEIGER

@<TRIPOS>ATOM
      1 N          -7.5831  -18.7105   21.4215 N.3     1  UNL1       -0.2641
      2 C          -8.3226  -17.8102   22.3663 C.3     1  UNL1        0.0981
      3 C          -7.5639  -16.9701   23.3504 C.3     1  UNL1        0.0224
      4 C          -8.3034  -16.0698   24.2952 C.3     1  UNL1        0.0065
      5 C          -9.8017  -16.0097   24.2559 C.3     1  UNL1        0.0277
      6 C         -10.5604  -16.8499   23.2719 C.ar    1  UNL1       -0.0073
      7 C         -12.0587  -16.7898   23.2326 C.ar    1  UNL1       -0.0015
      8 C         -12.8175  -17.6300   22.2485 C.ar    1  UNL1        0.0203
      9 C         -12.0779  -18.5302   21.3037 C.ar    1  UNL1        0.0985
     10 N         -10.5797  -18.5903   21.3430 N.ar    1  UNL1       -0.2471
     11 C          -9.8209  -17.7501   22.3271 C.ar    1  UNL1        0.0695
     12 C          -7.9924  -18.7839   19.9804 C.3     1  UNL1        0.0989
     13 C          -8.9913  -20.2822   18.1076 C.2     1  UNL1       -0.0125
     14 C          -8.0909  -20.1148   19.2955 C.2     1  UNL1       -0.0120
     15 N          -9.5207  -21.6883   15.9879 N.3     1  UNL1       -0.3175
     16 C          -9.0897  -21.6131   17.4228 C.3     1  UNL1        0.0916
     17 H          -9.5317  -22.6627   15.6868 H       1  UNL1        0.1192
     18 H          -8.8676  -21.1608   15.4086 H       1  UNL1        0.1192
     19 C          -6.4343  -19.5373   21.9179 C.3     1  UNL1        0.0889
     20 C          -5.0279  -19.0416   21.7552 C.3     1  UNL1        0.0764
     21 C          -4.3808  -19.0523   20.4020 C.3     1  UNL1        0.0626
     22 C          -2.9744  -18.5565   20.2393 C.ar    1  UNL1        0.0577
     23 N          -2.3273  -18.5672   18.8861 N.ar    1  UNL1       -0.2484
     24 C          -0.9210  -18.0715   18.7234 C.ar    1  UNL1        0.0984
     25 C          -0.1618  -17.5651   19.9139 C.ar    1  UNL1        0.0204
     26 C          -0.8089  -17.5545   21.2670 C.ar    1  UNL1       -0.0002
     27 C          -2.2152  -18.0502   21.4297 C.ar    1  UNL1        0.0073
     28 C          -2.8624  -18.0395   22.7829 C.3     1  UNL1        0.0968
     29 N          -4.2687  -18.5353   22.9456 N.3     1  UNL1       -0.2934
     30 H          -4.8102  -17.7627   23.3334 H       1  UNL1        0.1236
@<TRIPOS>BOND
     1    15    16    1
     2    16    13    1
     3    13    14    2
     4    14    12    1
     5    12     1    1
     6     1    19    1
     7    20    19    1
     8    20    21    1
     9    21    22    1
    10    22    23   ar
    11    23    24   ar
    12    24    25   ar
    13    25    26   ar
    14    26    27   ar
    15    27    28    1
    16    28    29    1
    17     2     1    1
    18     2     3    1
    19     3     4    1
    20     4     5    1
    21     5     6    1
    22     6     7   ar
    23     7     8   ar
    24     8     9   ar
    25     9    10   ar
    26    10    11   ar
    27    29    20    1
    28    11     2    1
    29    27    22   ar
    30    11     6   ar
    31    15    17    1
    32    15    18    1
    33    29    30    1
@<TRIPOS>MOLECULE
*****
 30 33 0 0 0
SMALL
GASTEIGER

@<TRIPOS>ATOM
      1 N         -16.4473   -5.4677   19.1422 N.3     1  UNL1       -0.2641
      2 C         -17.2978   -6.6818   19.3715 C.3     1  UNL1        0.0981
      3 C         -18.6465   -6.5425   20.0131 C.3     1  UNL1        0.0224
      4 C         -19.4970   -7.7566   20.2424 C.3     1  UNL1        0.0065
      5 C         -18.9989   -9.1100   19.8300 C.3     1  UNL1        0.0277
      6 C         -17.6502   -9.2494   19.1884 C.ar    1  UNL1       -0.0073
      7 C         -17.1521  -10.6029   18.7760 C.ar    1  UNL1       -0.0015
      8 C         -15.8034  -10.7422   18.1344 C.ar    1  UNL1        0.0203
      9 C         -14.9529   -9.5281   17.9052 C.ar    1  UNL1        0.0985
     10 N         -15.4510   -8.1747   18.3175 N.ar    1  UNL1       -0.2471
     11 C         -16.7997   -8.0353   18.9591 C.ar    1  UNL1        0.0695
     12 C         -16.8148   -4.4864   18.0690 C.3     1  UNL1        0.0989
     13 C         -18.0590   -2.8853   19.6935 C.2     1  UNL1       -0.0125
     14 C         -17.2665   -3.1046   18.4389 C.2     1  UNL1       -0.0120
     15 N         -17.5265   -0.5156   20.6160 N.3     1  UNL1       -0.3175
     16 C         -18.5106   -1.5036   20.0633 C.3     1  UNL1        0.0916
     17 H         -18.0021    0.3655   20.8105 H       1  UNL1        0.1192
     18 H         -16.7839   -0.3580   19.9348 H       1  UNL1        0.1192
     19 C         -15.2293   -5.2350   19.9861 C.3     1  UNL1        0.0889
     20 C         -13.8635   -5.3226   19.3721 C.3     1  UNL1        0.0764
     21 C         -13.2613   -4.1201   18.7078 C.3     1  UNL1        0.0626
     22 C         -11.8955   -4.2076   18.0937 C.ar    1  UNL1        0.0577
     23 N         -11.2934   -3.0051   17.4294 N.ar    1  UNL1       -0.2484
     24 C          -9.9277   -3.0926   16.8155 C.ar    1  UNL1        0.0984
     25 C          -9.1640   -4.3827   16.8658 C.ar    1  UNL1        0.0204
     26 C          -9.7661   -5.5853   17.5301 C.ar    1  UNL1       -0.0002
     27 C         -11.1319   -5.4977   18.1441 C.ar    1  UNL1        0.0073
     28 C         -11.7341   -6.7002   18.8084 C.3     1  UNL1        0.0968
     29 N         -13.0998   -6.6127   19.4224 N.3     1  UNL1       -0.2934
     30 H         -12.9958   -6.8550   20.4077 H       1  UNL1        0.1236
@<TRIPOS>BOND
     1    15    16    1
     2    16    13    1
     3    13    14    2
     4    14    12    1
     5    12     1    1
     6     1    19    1
     7    20    19    1
     8    20    21    1
     9    21    22    1
    10    22    23   ar
    11    23    24   ar
    12    24    25   ar
    13    25    26   ar
    14    26    27   ar
    15    27    28    1
    16    28    29    1
    17     2     1    1
    18     2     3    1
    19     3     4    1
    20     4     5    1
    21     5     6    1
    22     6     7   ar
    23     7     8   ar
    24     8     9   ar
    25     9    10   ar
    26    10    11   ar
    27    29    20    1
    28    11     2    1
    29    27    22   ar
    30    11     6   ar
    31    15    17    1
    32    15    18    1
    33    29    30    1
