@<TRIPOS>MOLECULE
*****
 36 39 0 0 0
SMALL
GASTEIGER

@<TRIPOS>ATOM
      1 N           2.4922    0.9116   22.8529 N.ar    1  UNL1       -0.2459
      2 C           2.8395    0.5184   24.2582 C.ar    1  UNL1        0.1116
      3 C           1.6533    0.8116   25.1282 C.ar    1  UNL1        0.0908
      4 C           0.5728    1.3860   24.2606 C.ar    1  UNL1        0.1363
      5 N           1.0913    1.4478   22.8544 N.ar    1  UNL1       -0.1661
      6 N           1.5633    0.5724   26.6063 N.am    1  UNL1       -0.2766
      7 C           2.0393    1.6221   27.5662 C.2     1  UNL1        0.2707
      8 O           2.6052    2.9110   27.0481 O.2     1  UNL1       -0.2680
      9 H           1.1919   -0.2736   26.9463 H       1  UNL1        0.1553
     10 C           1.9493    1.3828   29.0443 C.ar    1  UNL1        0.1770
     11 C           3.0218    0.7882   29.9081 C.ar    1  UNL1        0.1293
     12 N           2.5063    0.7341   31.3157 N.ar    1  UNL1       -0.1913
     13 N           1.1153    1.2953   31.3219 N.ar    1  UNL1       -0.0580
     14 N           0.7710    1.6963   29.9180 N.ar    1  UNL1       -0.1237
     15 C           3.2512    0.2107   32.5079 C.ar    1  UNL1        0.1654
     16 C           3.5904    1.1303   33.6434 C.ar    1  UNL1        0.0389
     17 C           4.3352    0.6070   34.8355 C.ar    1  UNL1        0.0047
     18 C           4.7409   -0.8361   34.8923 C.ar    1  UNL1        0.0208
     19 C           4.4017   -1.7556   33.7568 C.ar    1  UNL1        0.1006
     20 N           3.6569   -1.2323   32.5646 N.ar    1  UNL1       -0.2250
     21 C           4.0054    2.0172   21.0535 C.3     1  UNL1        0.0312
     22 C           3.3885    0.7900   21.6563 C.3     1  UNL1        0.1274
     23 C           3.6677   -0.5589   21.0624 C.ar    1  UNL1        0.0038
     24 C           4.8239   -1.3735   21.5619 C.ar    1  UNL1       -0.0025
     25 C           5.1031   -2.7223   20.9680 C.ar    1  UNL1        0.0036
     26 C           4.2261   -3.2565   19.8746 C.ar    1  UNL1        0.0714
     27 C           3.0699   -2.4419   19.3751 C.ar    1  UNL1        0.0074
     28 C           2.7907   -1.0931   19.9690 C.ar    1  UNL1        0.0692
     29 C           4.5053   -4.6053   19.2808 C.3     1  UNL1        0.4186
     30 F           4.7846   -5.9541   18.6869 F       1  UNL1       -0.1659
     31 F           3.0915   -4.6800   18.7855 F       1  UNL1       -0.1659
     32 F           5.9192   -4.5307   19.7761 F       1  UNL1       -0.1659
     33 C           1.6344   -0.2784   19.4695 C.3     1  UNL1        0.4183
     34 F           0.4782    0.5363   18.9700 F       1  UNL1       -0.1659
     35 F           0.7472   -0.9026   20.5054 F       1  UNL1       -0.1659
     36 F           2.5217    0.3458   18.4336 F       1  UNL1       -0.1659
@<TRIPOS>BOND
     1    22    21    1
     2    22    23    1
     3    23    24   ar
     4    24    25   ar
     5    25    26   ar
     6    26    29    1
     7    29    30    1
     8    29    31    1
     9    29    32    1
    10    26    27   ar
    11    27    28   ar
    12    28    33    1
    13    33    34    1
    14    33    35    1
    15    33    36    1
    16    22     1    1
    17     1     2   ar
    18     2     3   ar
    19     3     6    1
    20     6     7   am
    21     7     8    2
    22     7    10    1
    23    10    11   ar
    24    11    12   ar
    25    12    15    1
    26    15    16   ar
    27    16    17   ar
    28    17    18   ar
    29    18    19   ar
    30    19    20   ar
    31    12    13   ar
    32    13    14   ar
    33     3     4   ar
    34     4     5   ar
    35    28    23   ar
    36     5     1   ar
    37    14    10   ar
    38    20    15   ar
    39     6     9    1
@<TRIPOS>MOLECULE
*****
 36 39 0 0 0
SMALL
GASTEIGER

@<TRIPOS>ATOM
      1 N           6.8083   -3.9606   22.5809 N.ar    1  UNL1       -0.2459
      2 C           6.2587   -3.5697   23.9207 C.ar    1  UNL1        0.1116
      3 C           6.7103   -4.5903   24.9228 C.ar    1  UNL1        0.0908
      4 C           7.5392   -5.6121   24.2024 C.ar    1  UNL1        0.1363
      5 N           7.5997   -5.2229   22.7551 N.ar    1  UNL1       -0.1661
      6 N           6.3894   -4.5894   26.3881 N.am    1  UNL1       -0.2766
      7 C           7.4141   -4.1243   27.3799 C.2     1  UNL1        0.2707
      8 O           8.7597   -3.6602   26.9065 O.2     1  UNL1       -0.2680
      9 H           5.5063   -4.8940   26.6989 H       1  UNL1        0.1553
     10 C           7.0933   -4.1234   28.8452 C.ar    1  UNL1        0.1770
     11 C           6.7264   -2.9231   29.6667 C.ar    1  UNL1        0.1293
     12 N           6.4893   -3.3805   31.0754 N.ar    1  UNL1       -0.1913
     13 N           6.7097   -4.8634   31.1247 N.ar    1  UNL1       -0.0580
     14 N           7.0830   -5.3226   29.7462 N.ar    1  UNL1       -0.1237
     15 C           6.1002   -2.5081   32.2320 C.ar    1  UNL1        0.1654
     16 C           4.7285   -2.6211   32.8284 C.ar    1  UNL1        0.0389
     17 C           4.3394   -1.7487   33.9849 C.ar    1  UNL1        0.0047
     18 C           5.3219   -0.7633   34.5450 C.ar    1  UNL1        0.0208
     19 C           6.6936   -0.6504   33.9485 C.ar    1  UNL1        0.1006
     20 N           7.0828   -1.5228   32.7920 N.ar    1  UNL1       -0.2250
     21 C           7.6493   -3.2755   20.2201 C.3     1  UNL1        0.0312
     22 C           6.6027   -3.2194   21.2932 C.3     1  UNL1        0.1274
     23 C           5.3504   -2.4220   21.0784 C.ar    1  UNL1        0.0038
     24 C           5.1834   -1.0921   21.7517 C.ar    1  UNL1       -0.0025
     25 C           3.9312   -0.2948   21.5370 C.ar    1  UNL1        0.0036
     26 C           2.8459   -0.8274   20.6490 C.ar    1  UNL1        0.0714
     27 C           3.0129   -2.1574   19.9757 C.ar    1  UNL1        0.0074
     28 C           4.2652   -2.9547   20.1905 C.ar    1  UNL1        0.0692
     29 C           1.5936   -0.0300   20.4343 C.3     1  UNL1        0.4186
     30 F           0.3414    0.7673   20.2196 F       1  UNL1       -0.1659
     31 F           0.8599   -1.2833   20.0590 F       1  UNL1       -0.1659
     32 F           2.3274    1.2232   20.8095 F       1  UNL1       -0.1659
     33 C           4.4322   -4.2847   19.5172 C.3     1  UNL1        0.4183
     34 F           4.5993   -5.6146   18.8439 F       1  UNL1       -0.1659
     35 F           5.0275   -3.6040   18.3204 F       1  UNL1       -0.1659
     36 F           3.8370   -4.9653   20.7140 F       1  UNL1       -0.1659
@<TRIPOS>BOND
     1    22    21    1
     2    22    23    1
     3    23    24   ar
     4    24    25   ar
     5    25    26   ar
     6    26    29    1
     7    29    30    1
     8    29    31    1
     9    29    32    1
    10    26    27   ar
    11    27    28   ar
    12    28    33    1
    13    33    34    1
    14    33    35    1
    15    33    36    1
    16    22     1    1
    17     1     2   ar
    18     2     3   ar
    19     3     6    1
    20     6     7   am
    21     7     8    2
    22     7    10    1
    23    10    11   ar
    24    11    12   ar
    25    12    15    1
    26    15    16   ar
    27    16    17   ar
    28    17    18   ar
    29    18    19   ar
    30    19    20   ar
    31    12    13   ar
    32    13    14   ar
    33     3     4   ar
    34     4     5   ar
    35    28    23   ar
    36     5     1   ar
    37    14    10   ar
    38    20    15   ar
    39     6     9    1
@<TRIPOS>MOLECULE
*****
 36 39 0 0 0
SMALL
GASTEIGER

@<TRIPOS>ATOM
      1 N           4.6860    0.9514   33.4015 N.ar    1  UNL1       -0.2459
      2 C           5.7205    0.0768   32.7576 C.ar    1  UNL1        0.1116
      3 C           5.0335   -0.7764   31.7328 C.ar    1  UNL1        0.0908
      4 C           3.5743   -0.4290   31.7434 C.ar    1  UNL1        0.1363
      5 N           3.3596    0.6388   32.7747 N.ar    1  UNL1       -0.1661
      6 N           5.6904   -1.7976   30.8520 N.am    1  UNL1       -0.2766
      7 C           6.0478   -3.1456   31.4043 C.2     1  UNL1        0.2707
      8 O           5.7483   -3.4724   32.8374 O.2     1  UNL1       -0.2680
      9 H           5.8869   -1.5831   29.9115 H       1  UNL1        0.1553
     10 C           6.7046   -4.1668   30.5236 C.ar    1  UNL1        0.1770
     11 C           6.6289   -4.2194   29.0265 C.ar    1  UNL1        0.1293
     12 N           7.4300   -5.3998   28.5630 N.ar    1  UNL1       -0.1913
     13 N           8.0009   -6.0768   29.7737 N.ar    1  UNL1       -0.0580
     14 N           7.5526   -5.3147   30.9855 N.ar    1  UNL1       -0.1237
     15 C           7.6259   -5.8281   27.1389 C.ar    1  UNL1        0.1654
     16 C           7.7794   -7.2830   26.8075 C.ar    1  UNL1        0.0389
     17 C           7.9753   -7.7113   25.3834 C.ar    1  UNL1        0.0047
     18 C           8.0176   -6.6847   24.2905 C.ar    1  UNL1        0.0208
     19 C           7.8641   -5.2298   24.6219 C.ar    1  UNL1        0.1006
     20 N           7.6683   -4.8015   26.0460 N.ar    1  UNL1       -0.2250
     21 C           6.0516    2.9520   34.3411 C.3     1  UNL1        0.0312
     22 C           4.9342    1.9613   34.4825 C.3     1  UNL1        0.1274
     23 C           4.0651    1.9804   35.7050 C.ar    1  UNL1        0.0038
     24 C           2.9049    2.9277   35.7855 C.ar    1  UNL1       -0.0025
     25 C           2.0359    2.9469   37.0079 C.ar    1  UNL1        0.0036
     26 C           2.3270    2.0187   38.1498 C.ar    1  UNL1        0.0714
     27 C           3.4872    1.0714   38.0692 C.ar    1  UNL1        0.0074
     28 C           4.3562    1.0523   36.8468 C.ar    1  UNL1        0.0692
     29 C           1.4578    2.0379   39.3722 C.3     1  UNL1        0.4186
     30 F           0.5888    2.0571   40.5946 F       1  UNL1       -0.1659
     31 F           0.7591    0.7994   38.8949 F       1  UNL1       -0.1659
     32 F           2.1566    3.2764   39.8495 F       1  UNL1       -0.1659
     33 C           5.5165    0.1049   36.7661 C.3     1  UNL1        0.4183
     34 F           6.6767   -0.8424   36.6855 F       1  UNL1       -0.1659
     35 F           4.6491   -0.8976   36.0644 F       1  UNL1       -0.1659
     36 F           6.3839    1.1075   37.4679 F       1  UNL1       -0.1659
@<TRIPOS>BOND
     1    22    21    1
     2    22    23    1
     3    23    24   ar
     4    24    25   ar
     5    25    26   ar
     6    26    29    1
     7    29    30    1
     8    29    31    1
     9    29    32    1
    10    26    27   ar
    11    27    28   ar
    12    28    33    1
    13    33    34    1
    14    33    35    1
    15    33    36    1
    16    22     1    1
    17     1     2   ar
    18     2     3   ar
    19     3     6    1
    20     6     7   am
    21     7     8    2
    22     7    10    1
    23    10    11   ar
    24    11    12   ar
    25    12    15    1
    26    15    16   ar
    27    16    17   ar
    28    17    18   ar
    29    18    19   ar
    30    19    20   ar
    31    12    13   ar
    32    13    14   ar
    33     3     4   ar
    34     4     5   ar
    35    28    23   ar
    36     5     1   ar
    37    14    10   ar
    38    20    15   ar
    39     6     9    1
@<TRIPOS>MOLECULE
*****
 36 39 0 0 0
SMALL
GASTEIGER

@<TRIPOS>ATOM
      1 N           2.4550    1.1341   22.4887 N.ar    1  UNL1       -0.2459
      2 C           2.6154    0.7988   23.9419 C.ar    1  UNL1        0.1116
      3 C           1.3371    1.1515   24.6429 C.ar    1  UNL1        0.0908
      4 C           0.3865    1.7048   23.6229 C.ar    1  UNL1        0.1363
      5 N           1.0774    1.6940   22.2916 N.ar    1  UNL1       -0.1661
      6 N           1.0582    0.9809   26.1068 N.am    1  UNL1       -0.2766
      7 C           1.1753    2.1539   27.0343 C.2     1  UNL1        0.2707
      8 O           1.5712    3.4976   26.4978 O.2     1  UNL1       -0.2680
      9 H           0.7984    0.0990   26.4589 H       1  UNL1        0.1553
     10 C           0.8964    1.9833   28.4982 C.ar    1  UNL1        0.1770
     11 C           1.4256    2.8487   29.6033 C.ar    1  UNL1        0.1293
     12 N           0.8956    2.3175   30.9022 N.ar    1  UNL1       -0.1913
     13 N           0.0390    1.1239   30.5999 N.ar    1  UNL1       -0.0580
     14 N           0.0395    0.9173   29.1141 N.ar    1  UNL1       -0.1237
     15 C           1.1736    2.8810   32.2642 C.ar    1  UNL1        0.1654
     16 C           2.0072    2.1056   33.2409 C.ar    1  UNL1        0.0389
     17 C           2.2851    2.6691   34.6029 C.ar    1  UNL1        0.0047
     18 C           1.7295    4.0081   34.9883 C.ar    1  UNL1        0.0208
     19 C           0.8960    4.7835   34.0117 C.ar    1  UNL1        0.1006
     20 N           0.6180    4.2200   32.6496 N.ar    1  UNL1       -0.2250
     21 C           4.2573    2.1222   20.8996 C.3     1  UNL1        0.0312
     22 C           3.4903    0.9430   21.4202 C.3     1  UNL1        0.1274
     23 C           3.7586   -0.4274   20.8724 C.ar    1  UNL1        0.0038
     24 C           4.8851   -1.2490   21.4256 C.ar    1  UNL1       -0.0025
     25 C           5.1533   -2.6193   20.8777 C.ar    1  UNL1        0.0036
     26 C           4.2951   -3.1681   19.7767 C.ar    1  UNL1        0.0714
     27 C           3.1686   -2.3466   19.2235 C.ar    1  UNL1        0.0074
     28 C           2.9004   -0.9762   19.7713 C.ar    1  UNL1        0.0692
     29 C           4.5634   -4.5385   19.2289 C.3     1  UNL1        0.4186
     30 F           4.8317   -5.9089   18.6811 F       1  UNL1       -0.1659
     31 F           3.1510   -4.6156   18.7299 F       1  UNL1       -0.1659
     32 F           5.9758   -4.4614   19.7279 F       1  UNL1       -0.1659
     33 C           1.7738   -0.1546   19.2181 C.3     1  UNL1        0.4183
     34 F           0.6473    0.6669   18.6650 F       1  UNL1       -0.1659
     35 F           0.8330   -0.7806   20.2045 F       1  UNL1       -0.1659
     36 F           2.7147    0.4714   18.2318 F       1  UNL1       -0.1659
@<TRIPOS>BOND
     1    22    21    1
     2    22    23    1
     3    23    24   ar
     4    24    25   ar
     5    25    26   ar
     6    26    29    1
     7    29    30    1
     8    29    31    1
     9    29    32    1
    10    26    27   ar
    11    27    28   ar
    12    28    33    1
    13    33    34    1
    14    33    35    1
    15    33    36    1
    16    22     1    1
    17     1     2   ar
    18     2     3   ar
    19     3     6    1
    20     6     7   am
    21     7     8    2
    22     7    10    1
    23    10    11   ar
    24    11    12   ar
    25    12    15    1
    26    15    16   ar
    27    16    17   ar
    28    17    18   ar
    29    18    19   ar
    30    19    20   ar
    31    12    13   ar
    32    13    14   ar
    33     3     4   ar
    34     4     5   ar
    35    28    23   ar
    36     5     1   ar
    37    14    10   ar
    38    20    15   ar
    39     6     9    1
@<TRIPOS>MOLECULE
*****
 36 39 0 0 0
SMALL
GASTEIGER

@<TRIPOS>ATOM
      1 N           5.2727   -3.7470   21.6470 N.ar    1  UNL1       -0.2459
      2 C           4.8892   -3.4315   23.0624 C.ar    1  UNL1        0.1116
      3 C           6.0757   -3.7093   23.9371 C.ar    1  UNL1        0.0908
      4 C           7.1925   -4.1965   23.0622 C.ar    1  UNL1        0.1363
      5 N           6.6962   -4.2198   21.6469 N.ar    1  UNL1       -0.1661
      6 N           6.1350   -3.5312   25.4253 N.am    1  UNL1       -0.2766
      7 C           6.5565   -4.6736   26.3011 C.2     1  UNL1        0.2707
      8 O           6.9187   -5.9942   25.6888 O.2     1  UNL1       -0.2680
      9 H           5.8973   -2.6645   25.8271 H       1  UNL1        0.1553
     10 C           6.6157   -4.4955   27.7893 C.ar    1  UNL1        0.1770
     11 C           6.4147   -3.2078   28.5319 C.ar    1  UNL1        0.1293
     12 N           6.5612   -3.4903   29.9977 N.ar    1  UNL1       -0.1913
     13 N           6.8528   -4.9526   30.1612 N.ar    1  UNL1       -0.0580
     14 N           6.8865   -5.5739   28.7962 N.ar    1  UNL1       -0.1237
     15 C           6.4378   -2.4867   31.1057 C.ar    1  UNL1        0.1654
     16 C           5.4775   -2.7278   32.2326 C.ar    1  UNL1        0.0389
     17 C           5.3541   -1.7243   33.3405 C.ar    1  UNL1        0.0047
     18 C           6.1909   -0.4794   33.3216 C.ar    1  UNL1        0.0208
     19 C           7.1510   -0.2383   32.1947 C.ar    1  UNL1        0.1006
     20 N           7.2745   -1.2419   31.0867 N.ar    1  UNL1       -0.2250
     21 C           3.9076   -4.8396   19.7253 C.3     1  UNL1        0.0312
     22 C           4.3880   -3.6132   20.4431 C.3     1  UNL1        0.1274
     23 C           3.9836   -2.2530   19.9570 C.ar    1  UNL1        0.0038
     24 C           2.6394   -1.6955   20.3209 C.ar    1  UNL1       -0.0025
     25 C           2.2351   -0.3353   19.8347 C.ar    1  UNL1        0.0036
     26 C           3.1749    0.4674   18.9847 C.ar    1  UNL1        0.0714
     27 C           4.5191   -0.0901   18.6209 C.ar    1  UNL1        0.0074
     28 C           4.9234   -1.4503   19.1070 C.ar    1  UNL1        0.0692
     29 C           2.7705    1.8277   18.4986 C.3     1  UNL1        0.4186
     30 F           2.3661    3.1878   18.0125 F       1  UNL1       -0.1659
     31 F           4.1154    2.3664   18.8873 F       1  UNL1       -0.1659
     32 F           1.4257    1.2889   18.1099 F       1  UNL1       -0.1659
     33 C           6.2676   -2.0079   18.7431 C.3     1  UNL1        0.4183
     34 F           7.6117   -2.5654   18.3793 F       1  UNL1       -0.1659
     35 F           6.8779   -1.3032   19.9182 F       1  UNL1       -0.1659
     36 F           5.6572   -2.7126   17.5680 F       1  UNL1       -0.1659
@<TRIPOS>BOND
     1    22    21    1
     2    22    23    1
     3    23    24   ar
     4    24    25   ar
     5    25    26   ar
     6    26    29    1
     7    29    30    1
     8    29    31    1
     9    29    32    1
    10    26    27   ar
    11    27    28   ar
    12    28    33    1
    13    33    34    1
    14    33    35    1
    15    33    36    1
    16    22     1    1
    17     1     2   ar
    18     2     3   ar
    19     3     6    1
    20     6     7   am
    21     7     8    2
    22     7    10    1
    23    10    11   ar
    24    11    12   ar
    25    12    15    1
    26    15    16   ar
    27    16    17   ar
    28    17    18   ar
    29    18    19   ar
    30    19    20   ar
    31    12    13   ar
    32    13    14   ar
    33     3     4   ar
    34     4     5   ar
    35    28    23   ar
    36     5     1   ar
    37    14    10   ar
    38    20    15   ar
    39     6     9    1
@<TRIPOS>MOLECULE
*****
 36 39 0 0 0
SMALL
GASTEIGER

@<TRIPOS>ATOM
      1 N          -0.3257    2.0000   28.0356 N.ar    1  UNL1       -0.2459
      2 C           1.0158    1.5875   28.5650 C.ar    1  UNL1        0.1116
      3 C           0.9047    0.1761   29.0604 C.ar    1  UNL1        0.0908
      4 C          -0.5055   -0.2838   28.8373 C.ar    1  UNL1        0.1363
      5 N          -1.2659    0.8434   28.2039 N.ar    1  UNL1       -0.1661
      6 N           2.0098   -0.6333   29.6717 N.am    1  UNL1       -0.2766
      7 C           2.5518   -0.2644   31.0208 C.2     1  UNL1        0.2707
      8 O           1.9886    0.9140   31.7587 O.2     1  UNL1       -0.2680
      9 H           2.3794   -1.4067   29.1874 H       1  UNL1        0.1553
     10 C           3.6568   -1.0738   31.6321 C.ar    1  UNL1        0.1770
     11 C           4.8412   -1.6392   30.9058 C.ar    1  UNL1        0.1293
     12 N           5.6879   -2.3747   31.9019 N.ar    1  UNL1       -0.1913
     13 N           5.0268   -2.2639   33.2437 N.ar    1  UNL1       -0.0580
     14 N           3.7715   -1.4599   33.0770 N.ar    1  UNL1       -0.1237
     15 C           6.9705   -3.0947   31.6077 C.ar    1  UNL1        0.1654
     16 C           8.2160   -2.7499   32.3695 C.ar    1  UNL1        0.0389
     17 C           9.4985   -3.4698   32.0753 C.ar    1  UNL1        0.0047
     18 C           9.5359   -4.5345   31.0193 C.ar    1  UNL1        0.0208
     19 C           8.2905   -4.8792   30.2575 C.ar    1  UNL1        0.1006
     20 N           7.0078   -4.1593   30.5517 N.ar    1  UNL1       -0.2250
     21 C           0.1174    4.5520   27.8330 C.3     1  UNL1        0.0312
     22 C          -0.6670    3.3346   27.4422 C.3     1  UNL1        0.1274
     23 C          -1.7929    3.4520   26.4579 C.ar    1  UNL1        0.0038
     24 C          -3.1830    3.7439   26.9398 C.ar    1  UNL1       -0.0025
     25 C          -4.3088    3.8611   25.9555 C.ar    1  UNL1        0.0036
     26 C          -4.0444    3.6865   24.4894 C.ar    1  UNL1        0.0714
     27 C          -2.6543    3.3946   24.0075 C.ar    1  UNL1        0.0074
     28 C          -1.5285    3.2773   24.9918 C.ar    1  UNL1        0.0692
     29 C          -5.1703    3.8038   23.5051 C.3     1  UNL1        0.4186
     30 F          -6.2961    3.9212   22.5208 F       1  UNL1       -0.1659
     31 F          -5.0435    2.3437   23.1860 F       1  UNL1       -0.1659
     32 F          -5.2970    5.2640   23.8241 F       1  UNL1       -0.1659
     33 C          -0.1383    2.9854   24.5099 C.3     1  UNL1        0.4183
     34 F           1.2519    2.6935   24.0281 F       1  UNL1       -0.1659
     35 F          -0.3618    1.5220   24.7516 F       1  UNL1       -0.1659
     36 F           0.0853    4.4488   24.2682 F       1  UNL1       -0.1659
@<TRIPOS>BOND
     1    22    21    1
     2    22    23    1
     3    23    24   ar
     4    24    25   ar
     5    25    26   ar
     6    26    29    1
     7    29    30    1
     8    29    31    1
     9    29    32    1
    10    26    27   ar
    11    27    28   ar
    12    28    33    1
    13    33    34    1
    14    33    35    1
    15    33    36    1
    16    22     1    1
    17     1     2   ar
    18     2     3   ar
    19     3     6    1
    20     6     7   am
    21     7     8    2
    22     7    10    1
    23    10    11   ar
    24    11    12   ar
    25    12    15    1
    26    15    16   ar
    27    16    17   ar
    28    17    18   ar
    29    18    19   ar
    30    19    20   ar
    31    12    13   ar
    32    13    14   ar
    33     3     4   ar
    34     4     5   ar
    35    28    23   ar
    36     5     1   ar
    37    14    10   ar
    38    20    15   ar
    39     6     9    1
@<TRIPOS>MOLECULE
*****
 36 39 0 0 0
SMALL
GASTEIGER

@<TRIPOS>ATOM
      1 N           3.2732    1.8554   21.6216 N.ar    1  UNL1       -0.2459
      2 C           3.4833    1.3075   23.0021 C.ar    1  UNL1        0.1116
      3 C           2.5872    2.0599   23.9408 C.ar    1  UNL1        0.0908
      4 C           1.8234    3.0728   23.1404 C.ar    1  UNL1        0.1363
      5 N           2.2474    2.9464   21.7071 N.ar    1  UNL1       -0.1661
      6 N           2.4747    1.8383   25.4200 N.am    1  UNL1       -0.2766
      7 C           1.2101    1.2781   26.0004 C.2     1  UNL1        0.2707
      8 O           0.0580    0.9394   25.1016 O.2     1  UNL1       -0.2680
      9 H           3.2309    2.0605   26.0100 H       1  UNL1        0.1553
     10 C           1.0977    1.0564   27.4797 C.ar    1  UNL1        0.1770
     11 C           2.2371    0.8087   28.4233 C.ar    1  UNL1        0.1293
     12 N           1.6696    0.6428   29.8018 N.ar    1  UNL1       -0.1913
     13 N           0.1795    0.7880   29.7103 N.ar    1  UNL1       -0.0580
     14 N          -0.1741    1.0436   28.2751 N.ar    1  UNL1       -0.1237
     15 C           2.4545    0.3782   31.0524 C.ar    1  UNL1        0.1654
     16 C           3.2909   -0.8620   31.1647 C.ar    1  UNL1        0.0389
     17 C           4.0757   -1.1266   32.4152 C.ar    1  UNL1        0.0047
     18 C           4.0244   -0.1511   33.5535 C.ar    1  UNL1        0.0208
     19 C           3.1882    1.0891   33.4412 C.ar    1  UNL1        0.1006
     20 N           2.4032    1.3538   32.1906 N.ar    1  UNL1       -0.2250
     21 C           4.5344    2.3979   19.4160 C.3     1  UNL1        0.0312
     22 C           3.9672    1.3934   20.3747 C.3     1  UNL1        0.1274
     23 C           4.0940   -0.0732   20.0864 C.ar    1  UNL1        0.0038
     24 C           5.4377   -0.7368   20.1509 C.ar    1  UNL1       -0.0025
     25 C           5.5644   -2.2034   19.8626 C.ar    1  UNL1        0.0036
     26 C           4.3475   -3.0063   19.5100 C.ar    1  UNL1        0.0714
     27 C           3.0039   -2.3428   19.4456 C.ar    1  UNL1        0.0074
     28 C           2.8771   -0.8762   19.7338 C.ar    1  UNL1        0.0692
     29 C           4.4743   -4.4730   19.2218 C.3     1  UNL1        0.4186
     30 F           4.6012   -5.9395   18.9336 F       1  UNL1       -0.1659
     31 F           3.0493   -4.5044   18.7546 F       1  UNL1       -0.1659
     32 F           5.8994   -4.4415   19.6889 F       1  UNL1       -0.1659
     33 C           1.5334   -0.2125   19.6694 C.3     1  UNL1        0.4183
     34 F           0.1898    0.4511   19.6050 F       1  UNL1       -0.1659
     35 F           1.2780   -0.5912   21.0981 F       1  UNL1       -0.1659
     36 F           1.7888    0.1661   18.2407 F       1  UNL1       -0.1659
@<TRIPOS>BOND
     1    22    21    1
     2    22    23    1
     3    23    24   ar
     4    24    25   ar
     5    25    26   ar
     6    26    29    1
     7    29    30    1
     8    29    31    1
     9    29    32    1
    10    26    27   ar
    11    27    28   ar
    12    28    33    1
    13    33    34    1
    14    33    35    1
    15    33    36    1
    16    22     1    1
    17     1     2   ar
    18     2     3   ar
    19     3     6    1
    20     6     7   am
    21     7     8    2
    22     7    10    1
    23    10    11   ar
    24    11    12   ar
    25    12    15    1
    26    15    16   ar
    27    16    17   ar
    28    17    18   ar
    29    18    19   ar
    30    19    20   ar
    31    12    13   ar
    32    13    14   ar
    33     3     4   ar
    34     4     5   ar
    35    28    23   ar
    36     5     1   ar
    37    14    10   ar
    38    20    15   ar
    39     6     9    1
@<TRIPOS>MOLECULE
*****
 36 39 0 0 0
SMALL
GASTEIGER

@<TRIPOS>ATOM
      1 N           4.7607    2.4552   34.1386 N.ar    1  UNL1       -0.2459
      2 C           3.5209    2.6656   33.3209 C.ar    1  UNL1        0.1116
      3 C           3.7441    2.0468   31.9729 C.ar    1  UNL1        0.0908
      4 C           5.1219    1.4539   31.9574 C.ar    1  UNL1        0.1363
      5 N           5.7502    1.7063   33.2959 N.ar    1  UNL1       -0.1661
      6 N           2.7620    2.0247   30.8393 N.am    1  UNL1       -0.2766
      7 C           2.0322    0.7579   30.5039 C.2     1  UNL1        0.2707
      8 O           2.2845   -0.4868   31.3020 O.2     1  UNL1       -0.2680
      9 H           2.5964    2.8417   30.3155 H       1  UNL1        0.1553
     10 C           1.0500    0.7358   29.3704 C.ar    1  UNL1        0.1770
     11 C           1.0889    1.6112   28.1529 C.ar    1  UNL1        0.1293
     12 N          -0.0806    1.2508   27.2855 N.ar    1  UNL1       -0.1913
     13 N          -0.8423    0.1528   27.9668 N.ar    1  UNL1       -0.0580
     14 N          -0.1435   -0.1655   29.2554 N.ar    1  UNL1       -0.1237
     15 C          -0.4275    1.8784   25.9679 C.ar    1  UNL1        0.1654
     16 C           0.3742    1.5457   24.7445 C.ar    1  UNL1        0.0389
     17 C           0.0274    2.1732   23.4270 C.ar    1  UNL1        0.0047
     18 C          -1.1212    3.1334   23.3328 C.ar    1  UNL1        0.0208
     19 C          -1.9228    3.4661   24.5562 C.ar    1  UNL1        0.1006
     20 N          -1.5760    2.8386   25.8738 N.ar    1  UNL1       -0.2250
     21 C           6.1399    3.7952   35.8857 C.3     1  UNL1        0.0312
     22 C           4.9737    2.9132   35.5510 C.3     1  UNL1        0.1274
     23 C           4.0204    2.4891   36.6288 C.ar    1  UNL1        0.0038
     24 C           2.8835    3.3860   37.0199 C.ar    1  UNL1       -0.0025
     25 C           1.9303    2.9619   38.0976 C.ar    1  UNL1        0.0036
     26 C           2.1140    1.6410   38.7842 C.ar    1  UNL1        0.0714
     27 C           3.2509    0.7441   38.3931 C.ar    1  UNL1        0.0074
     28 C           4.2041    1.1682   37.3154 C.ar    1  UNL1        0.0692
     29 C           1.1607    1.2169   39.8620 C.3     1  UNL1        0.4186
     30 F           0.2075    0.7929   40.9397 F       1  UNL1       -0.1659
     31 F           1.0468    2.6403   40.3213 F       1  UNL1       -0.1659
     32 F           1.2747   -0.2064   39.4027 F       1  UNL1       -0.1659
     33 C           5.3411    0.2713   36.9242 C.3     1  UNL1        0.4183
     34 F           6.4781   -0.6255   36.5330 F       1  UNL1       -0.1659
     35 F           4.4147   -0.5226   36.0517 F       1  UNL1       -0.1659
     36 F           6.2676    1.0653   37.7967 F       1  UNL1       -0.1659
@<TRIPOS>BOND
     1    22    21    1
     2    22    23    1
     3    23    24   ar
     4    24    25   ar
     5    25    26   ar
     6    26    29    1
     7    29    30    1
     8    29    31    1
     9    29    32    1
    10    26    27   ar
    11    27    28   ar
    12    28    33    1
    13    33    34    1
    14    33    35    1
    15    33    36    1
    16    22     1    1
    17     1     2   ar
    18     2     3   ar
    19     3     6    1
    20     6     7   am
    21     7     8    2
    22     7    10    1
    23    10    11   ar
    24    11    12   ar
    25    12    15    1
    26    15    16   ar
    27    16    17   ar
    28    17    18   ar
    29    18    19   ar
    30    19    20   ar
    31    12    13   ar
    32    13    14   ar
    33     3     4   ar
    34     4     5   ar
    35    28    23   ar
    36     5     1   ar
    37    14    10   ar
    38    20    15   ar
    39     6     9    1
@<TRIPOS>MOLECULE
*****
 36 39 0 0 0
SMALL
GASTEIGER

@<TRIPOS>ATOM
      1 N           5.0385    0.0522   33.4772 N.ar    1  UNL1       -0.2459
      2 C           6.0477   -0.6083   32.5854 C.ar    1  UNL1        0.1116
      3 C           5.3334   -1.6358   31.7583 C.ar    1  UNL1        0.0908
      4 C           3.8828   -1.6104   32.1389 C.ar    1  UNL1        0.1363
      5 N           3.7005   -0.5672   33.2012 N.ar    1  UNL1       -0.1661
      6 N           5.9599   -2.5314   30.7310 N.am    1  UNL1       -0.2766
      7 C           6.4634   -3.8881   31.1258 C.2     1  UNL1        0.2707
      8 O           6.3404   -4.3492   32.5479 O.2     1  UNL1       -0.2680
      9 H           6.0406   -2.2288   29.7976 H       1  UNL1        0.1553
     10 C           7.0898   -4.7838   30.0985 C.ar    1  UNL1        0.1770
     11 C           7.0383   -4.5912   28.6118 C.ar    1  UNL1        0.1293
     12 N           7.7944   -5.7177   27.9720 N.ar    1  UNL1       -0.1913
     13 N           8.3133   -6.6065   29.0632 N.ar    1  UNL1       -0.0580
     14 N           7.8778   -6.0293   30.3776 N.ar    1  UNL1       -0.1237
     15 C           7.9963   -5.9199   26.4994 C.ar    1  UNL1        0.1654
     16 C           8.1232   -7.3073   25.9433 C.ar    1  UNL1        0.0389
     17 C           8.3250   -7.5095   24.4709 C.ar    1  UNL1        0.0047
     18 C           8.3999   -6.3243   23.5543 C.ar    1  UNL1        0.0208
     19 C           8.2730   -4.9370   24.1104 C.ar    1  UNL1        0.1006
     20 N           8.0712   -4.7348   25.5830 N.ar    1  UNL1       -0.2250
     21 C           6.5171    2.0252   34.2961 C.3     1  UNL1        0.0312
     22 C           5.3182    1.1408   34.4704 C.3     1  UNL1        0.1274
     23 C           4.3989    1.3450   35.6381 C.ar    1  UNL1        0.0038
     24 C           4.5802    0.5332   36.8863 C.ar    1  UNL1       -0.0025
     25 C           3.6609    0.7374   38.0538 C.ar    1  UNL1        0.0036
     26 C           2.5604    1.7534   37.9732 C.ar    1  UNL1        0.0714
     27 C           2.3791    2.5653   36.7250 C.ar    1  UNL1        0.0074
     28 C           3.2984    2.3611   35.5575 C.ar    1  UNL1        0.0692
     29 C           1.6411    1.9576   39.1408 C.3     1  UNL1        0.4186
     30 F           0.7219    2.1618   40.3084 F       1  UNL1       -0.1659
     31 F           2.3110    3.2661   39.4394 F       1  UNL1       -0.1659
     32 F           0.9713    0.6492   38.8422 F       1  UNL1       -0.1659
     33 C           3.1171    3.1729   34.3092 C.3     1  UNL1        0.4183
     34 F           2.9359    3.9848   33.0610 F       1  UNL1       -0.1659
     35 F           4.0784    4.1970   34.8357 F       1  UNL1       -0.1659
     36 F           2.1559    2.1489   33.7827 F       1  UNL1       -0.1659
@<TRIPOS>BOND
     1    22    21    1
     2    22    23    1
     3    23    24   ar
     4    24    25   ar
     5    25    26   ar
     6    26    29    1
     7    29    30    1
     8    29    31    1
     9    29    32    1
    10    26    27   ar
    11    27    28   ar
    12    28    33    1
    13    33    34    1
    14    33    35    1
    15    33    36    1
    16    22     1    1
    17     1     2   ar
    18     2     3   ar
    19     3     6    1
    20     6     7   am
    21     7     8    2
    22     7    10    1
    23    10    11   ar
    24    11    12   ar
    25    12    15    1
    26    15    16   ar
    27    16    17   ar
    28    17    18   ar
    29    18    19   ar
    30    19    20   ar
    31    12    13   ar
    32    13    14   ar
    33     3     4   ar
    34     4     5   ar
    35    28    23   ar
    36     5     1   ar
    37    14    10   ar
    38    20    15   ar
    39     6     9    1
