@<TRIPOS>MOLECULE
*****
 35 39 0 0 0
SMALL
GASTEIGER

@<TRIPOS>ATOM
      1 C           1.6464    0.8546   19.7228 C.3     1  UNL1        0.0933
      2 C           0.5210    0.9288   20.7118 C.3     1  UNL1        0.0442
      3 C          -0.5091    2.0130   20.5957 C.3     1  UNL1        0.0953
      4 N          -0.4138    3.0229   19.4907 N.am    1  UNL1       -0.2794
      5 C          -1.4439    4.1071   19.3747 C.2     1  UNL1        0.2252
      6 O          -1.3486    5.1170   18.2697 O.2     1  UNL1       -0.2749
      7 C           0.7116    2.9486   18.5018 C.3     1  UNL1        0.0953
      8 C           1.7417    1.8645   18.6179 C.3     1  UNL1        0.0442
      9 N           4.3269   -1.9159   19.2706 N.ar    1  UNL1       -0.2773
     10 C           3.3876   -0.8959   18.6985 C.ar    1  UNL1        0.3316
     11 O           3.1935   -0.5950   17.2419 O.2     1  UNL1       -0.2463
     12 N           2.6765   -0.2296   19.8388 N.ar    1  UNL1       -0.2817
     13 C           3.1763   -0.8379   21.1157 C.ar    1  UNL1        0.0796
     14 C           2.8344   -0.5773   22.5527 C.ar    1  UNL1        0.0188
     15 C           3.5125   -1.3590   23.6385 C.ar    1  UNL1        0.0016
     16 C           4.5326   -2.4012   23.2873 C.ar    1  UNL1        0.0016
     17 C           4.8745   -2.6618   21.8503 C.ar    1  UNL1        0.0188
     18 C           4.1964   -1.8801   20.7644 C.ar    1  UNL1        0.0798
     19 C           5.2370   -2.8142   18.4864 C.3     1  UNL1        0.1425
     20 C           6.5912   -2.3262   18.0644 C.3     1  UNL1        0.1668
     21 C           6.8947    0.2173   17.6303 C.3     1  UNL1        0.1742
     22 O           6.7097   -1.1767   17.1081 O.3     1  UNL1       -0.3490
     23 C          -2.5692    4.1813   20.3636 C.3     1  UNL1        0.0795
     24 C          -2.5397    5.2068   21.4579 C.3     1  UNL1        0.0264
     25 C          -3.6652    5.2809   22.4469 C.3     1  UNL1        0.0729
     26 N          -4.8201    4.3296   22.3415 N.3     1  UNL1       -0.2689
     27 C          -4.8496    3.3041   21.2472 C.3     1  UNL1        0.0729
     28 C          -3.7242    3.2299   20.2583 C.3     1  UNL1        0.0264
     29 C          -5.9454    4.4037   23.3304 C.3     1  UNL1        0.0992
     30 C          -5.6551    4.6637   24.7789 C.ar    1  UNL1       -0.0031
     31 C          -4.5713    3.8961   25.4761 C.ar    1  UNL1        0.0178
     32 C          -4.2810    4.1560   26.9246 C.ar    1  UNL1        0.0986
     33 N          -5.0745    5.1836   27.6759 N.ar    1  UNL1       -0.2423
     34 C          -6.1584    5.9512   26.9787 C.ar    1  UNL1        0.0986
     35 C          -6.4487    5.6912   25.5302 C.ar    1  UNL1        0.0178
@<TRIPOS>BOND
     1    21    22    1
     2    22    20    1
     3    20    19    1
     4    19     9    1
     5     9    10   ar
     6    10    11    2
     7    10    12   ar
     8    12     1    1
     9     1     2    1
    10     2     3    1
    11     3     4    1
    12     4     5   am
    13     5     6    2
    14     5    23    1
    15    23    24    1
    16    24    25    1
    17    25    26    1
    18    26    29    1
    19    29    30    1
    20    30    31   ar
    21    31    32   ar
    22    32    33   ar
    23    33    34   ar
    24    34    35   ar
    25    26    27    1
    26    27    28    1
    27     4     7    1
    28     7     8    1
    29    12    13   ar
    30    13    14   ar
    31    14    15   ar
    32    15    16   ar
    33    16    17   ar
    34    17    18   ar
    35    18     9   ar
    36     8     1    1
    37    18    13   ar
    38    28    23    1
    39    35    30   ar
@<TRIPOS>MOLECULE
*****
 35 39 0 0 0
SMALL
GASTEIGER

@<TRIPOS>ATOM
      1 C           8.1017   -3.9893   24.4014 C.3     1  UNL1        0.0933
      2 C           6.8737   -3.3490   23.8249 C.3     1  UNL1        0.0442
      3 C           6.8585   -2.9132   22.3897 C.3     1  UNL1        0.0953
      4 N           8.0713   -3.1177   21.5309 N.am    1  UNL1       -0.2794
      5 C           8.0561   -2.6820   20.0957 C.2     1  UNL1        0.2252
      6 O           9.2688   -2.8865   19.2369 O.2     1  UNL1       -0.2749
      7 C           9.2991   -3.7580   22.1074 C.3     1  UNL1        0.0953
      8 C           9.3143   -4.1938   23.5426 C.3     1  UNL1        0.0442
      9 N           8.0508   -4.3834   28.2624 N.ar    1  UNL1       -0.2773
     10 C           7.9812   -3.5287   27.0317 C.ar    1  UNL1        0.3316
     11 O           7.8065   -2.0392   27.0013 O.2     1  UNL1       -0.2463
     12 N           8.1168   -4.4251   25.8366 N.ar    1  UNL1       -0.2817
     13 C           8.2703   -5.8337   26.3287 C.ar    1  UNL1        0.0796
     14 C           8.4420   -7.1365   25.6054 C.ar    1  UNL1        0.0188
     15 C           8.5728   -8.4135   26.3813 C.ar    1  UNL1        0.0016
     16 C           8.5320   -8.3878   27.8805 C.ar    1  UNL1        0.0016
     17 C           8.3604   -7.0850   28.6038 C.ar    1  UNL1        0.0188
     18 C           8.2295   -5.8080   27.8279 C.ar    1  UNL1        0.0798
     19 C           7.9580   -3.8987   29.6788 C.3     1  UNL1        0.1425
     20 C           6.7567   -4.2377   30.5104 C.3     1  UNL1        0.1668
     21 C           5.6888   -2.8473   32.4279 C.3     1  UNL1        0.1742
     22 O           6.7089   -3.8407   31.9562 O.3     1  UNL1       -0.3490
     23 C           6.8282   -2.0417   19.5193 C.3     1  UNL1        0.0795
     24 C           5.8088   -2.8806   18.8071 C.3     1  UNL1        0.0264
     25 C           4.5808   -2.2402   18.2307 C.3     1  UNL1        0.0729
     26 N           4.3723   -0.7609   18.3665 N.3     1  UNL1       -0.2689
     27 C           5.3917    0.0779   19.0787 C.3     1  UNL1        0.0729
     28 C           6.6196   -0.5624   19.6550 C.3     1  UNL1        0.0264
     29 C           3.1445   -0.1206   17.7902 C.3     1  UNL1        0.0992
     30 C           2.0321    0.3184   18.6956 C.ar    1  UNL1       -0.0031
     31 C           1.5891   -0.5665   19.8229 C.ar    1  UNL1        0.0178
     32 C           0.4767   -0.1275   20.7283 C.ar    1  UNL1        0.0986
     33 N          -0.1926    1.1964   20.5066 N.ar    1  UNL1       -0.2423
     34 C           0.2504    2.0813   19.3793 C.ar    1  UNL1        0.0986
     35 C           1.3628    1.6423   18.4739 C.ar    1  UNL1        0.0178
@<TRIPOS>BOND
     1    21    22    1
     2    22    20    1
     3    20    19    1
     4    19     9    1
     5     9    10   ar
     6    10    11    2
     7    10    12   ar
     8    12     1    1
     9     1     2    1
    10     2     3    1
    11     3     4    1
    12     4     5   am
    13     5     6    2
    14     5    23    1
    15    23    24    1
    16    24    25    1
    17    25    26    1
    18    26    29    1
    19    29    30    1
    20    30    31   ar
    21    31    32   ar
    22    32    33   ar
    23    33    34   ar
    24    34    35   ar
    25    26    27    1
    26    27    28    1
    27     4     7    1
    28     7     8    1
    29    12    13   ar
    30    13    14   ar
    31    14    15   ar
    32    15    16   ar
    33    16    17   ar
    34    17    18   ar
    35    18     9   ar
    36     8     1    1
    37    18    13   ar
    38    28    23    1
    39    35    30   ar
@<TRIPOS>MOLECULE
*****
 35 39 0 0 0
SMALL
GASTEIGER

@<TRIPOS>ATOM
      1 C           6.3333   -3.1424   26.5937 C.3     1  UNL1        0.0933
      2 C           5.4975   -2.3548   25.6286 C.3     1  UNL1        0.0442
      3 C           5.6090   -2.6134   24.1553 C.3     1  UNL1        0.0953
      4 N           6.5563   -3.6595   23.6470 N.am    1  UNL1       -0.2794
      5 C           6.6677   -3.9181   22.1736 C.2     1  UNL1        0.2252
      6 O           7.6150   -4.9641   21.6653 O.2     1  UNL1       -0.2749
      7 C           7.3920   -4.4470   24.6120 C.3     1  UNL1        0.0953
      8 C           7.2806   -4.1884   26.0853 C.3     1  UNL1        0.0442
      9 N           5.7902   -1.7967   30.1936 N.ar    1  UNL1       -0.2773
     10 C           5.7355   -1.6166   28.7055 C.ar    1  UNL1        0.3316
     11 O           5.2752   -0.3855   27.9827 O.2     1  UNL1       -0.2463
     12 N           6.2219   -2.8838   28.0670 N.ar    1  UNL1       -0.2817
     13 C           6.5772   -3.8471   29.1606 C.ar    1  UNL1        0.0796
     14 C           7.1092   -5.2492   29.1293 C.ar    1  UNL1        0.0188
     15 C           7.3745   -5.9794   30.4124 C.ar    1  UNL1        0.0016
     16 C           7.1077   -5.3075   31.7267 C.ar    1  UNL1        0.0016
     17 C           6.5757   -3.9054   31.7580 C.ar    1  UNL1        0.0188
     18 C           6.3104   -3.1752   30.4749 C.ar    1  UNL1        0.0798
     19 C           5.3943   -0.7773   31.2202 C.3     1  UNL1        0.1425
     20 C           4.2267   -1.0383   32.1249 C.3     1  UNL1        0.1668
     21 C           2.4737   -0.4857   30.2887 C.3     1  UNL1        0.1742
     22 O           2.8533   -1.2092   31.5467 O.3     1  UNL1       -0.3490
     23 C           5.8319   -3.1305   21.2087 C.3     1  UNL1        0.0795
     24 C           4.5756   -3.7257   20.6452 C.3     1  UNL1        0.0264
     25 C           3.7398   -2.9381   19.6802 C.3     1  UNL1        0.0729
     26 N           4.1603   -1.5553   19.2787 N.3     1  UNL1       -0.2689
     27 C           5.4166   -0.9601   19.8422 C.3     1  UNL1        0.0729
     28 C           6.2523   -1.7477   20.8072 C.3     1  UNL1        0.0264
     29 C           3.3245   -0.7678   18.3138 C.3     1  UNL1        0.0992
     30 C           2.2618    0.1593   18.8249 C.ar    1  UNL1       -0.0031
     31 C           2.1960    1.5724   18.3262 C.ar    1  UNL1        0.0178
     32 C           1.1334    2.4995   18.8373 C.ar    1  UNL1        0.0986
     33 N           0.1365    2.0134   19.8472 N.ar    1  UNL1       -0.2423
     34 C           0.2022    0.6003   20.3460 C.ar    1  UNL1        0.0986
     35 C           1.2649   -0.3268   19.8348 C.ar    1  UNL1        0.0178
@<TRIPOS>BOND
     1    21    22    1
     2    22    20    1
     3    20    19    1
     4    19     9    1
     5     9    10   ar
     6    10    11    2
     7    10    12   ar
     8    12     1    1
     9     1     2    1
    10     2     3    1
    11     3     4    1
    12     4     5   am
    13     5     6    2
    14     5    23    1
    15    23    24    1
    16    24    25    1
    17    25    26    1
    18    26    29    1
    19    29    30    1
    20    30    31   ar
    21    31    32   ar
    22    32    33   ar
    23    33    34   ar
    24    34    35   ar
    25    26    27    1
    26    27    28    1
    27     4     7    1
    28     7     8    1
    29    12    13   ar
    30    13    14   ar
    31    14    15   ar
    32    15    16   ar
    33    16    17   ar
    34    17    18   ar
    35    18     9   ar
    36     8     1    1
    37    18    13   ar
    38    28    23    1
    39    35    30   ar
@<TRIPOS>MOLECULE
*****
 35 39 0 0 0
SMALL
GASTEIGER

@<TRIPOS>ATOM
      1 C           6.2056   -3.5832   23.8774 C.3     1  UNL1        0.0933
      2 C           5.0677   -2.6238   24.0645 C.3     1  UNL1        0.0442
      3 C           4.4501   -1.9515   22.8743 C.3     1  UNL1        0.0953
      4 N           4.9702   -2.2386   21.4970 N.am    1  UNL1       -0.2794
      5 C           4.3526   -1.5663   20.3068 C.2     1  UNL1        0.2252
      6 O           4.8727   -1.8534   18.9295 O.2     1  UNL1       -0.2749
      7 C           6.1080   -3.1980   21.3099 C.3     1  UNL1        0.0953
      8 C           6.7257   -3.8702   22.5001 C.3     1  UNL1        0.0442
      9 N           7.4981   -4.7537   27.3450 N.ar    1  UNL1       -0.2773
     10 C           6.7404   -3.7828   26.4887 C.ar    1  UNL1        0.3316
     11 O           6.0254   -2.5549   26.9693 O.2     1  UNL1       -0.2463
     12 N           6.8232   -4.2555   25.0676 N.ar    1  UNL1       -0.2817
     13 C           7.6321   -5.5185   25.0455 C.ar    1  UNL1        0.0796
     14 C           8.0427   -6.4280   23.9256 C.ar    1  UNL1        0.0188
     15 C           8.8705   -7.6454   24.2133 C.ar    1  UNL1        0.0016
     16 C           9.2876   -7.9533   25.6208 C.ar    1  UNL1        0.0016
     17 C           8.8770   -7.0438   26.7407 C.ar    1  UNL1        0.0188
     18 C           8.0492   -5.8265   26.4531 C.ar    1  UNL1        0.0798
     19 C           7.6739   -4.6671   28.8322 C.3     1  UNL1        0.1425
     20 C           6.8507   -5.5356   29.7365 C.3     1  UNL1        0.1668
     21 C           6.7147   -4.1016   31.8988 C.3     1  UNL1        0.1742
     22 O           6.9901   -5.4132   31.2250 O.3     1  UNL1       -0.3490
     23 C           3.2148   -0.6070   20.4940 C.3     1  UNL1        0.0795
     24 C           1.8043   -1.0619   20.2626 C.3     1  UNL1        0.0264
     25 C           0.6665   -0.1025   20.4499 C.3     1  UNL1        0.0729
     26 N           0.9392    1.3119   20.8685 N.3     1  UNL1       -0.2689
     27 C           2.3497    1.7668   21.0999 C.3     1  UNL1        0.0729
     28 C           3.4874    0.8074   20.9127 C.3     1  UNL1        0.0264
     29 C          -0.1985    2.2712   21.0557 C.3     1  UNL1        0.0992
     30 C          -0.8258    2.9325   19.8644 C.ar    1  UNL1       -0.0031
     31 C          -0.0659    3.0316   18.5750 C.ar    1  UNL1        0.0178
     32 C          -0.6932    3.6929   17.3837 C.ar    1  UNL1        0.0986
     33 N          -2.0804    4.2550   17.4818 N.ar    1  UNL1       -0.2423
     34 C          -2.8403    4.1559   18.7713 C.ar    1  UNL1        0.0986
     35 C          -2.2130    3.4946   19.9626 C.ar    1  UNL1        0.0178
@<TRIPOS>BOND
     1    21    22    1
     2    22    20    1
     3    20    19    1
     4    19     9    1
     5     9    10   ar
     6    10    11    2
     7    10    12   ar
     8    12     1    1
     9     1     2    1
    10     2     3    1
    11     3     4    1
    12     4     5   am
    13     5     6    2
    14     5    23    1
    15    23    24    1
    16    24    25    1
    17    25    26    1
    18    26    29    1
    19    29    30    1
    20    30    31   ar
    21    31    32   ar
    22    32    33   ar
    23    33    34   ar
    24    34    35   ar
    25    26    27    1
    26    27    28    1
    27     4     7    1
    28     7     8    1
    29    12    13   ar
    30    13    14   ar
    31    14    15   ar
    32    15    16   ar
    33    16    17   ar
    34    17    18   ar
    35    18     9   ar
    36     8     1    1
    37    18    13   ar
    38    28    23    1
    39    35    30   ar
@<TRIPOS>MOLECULE
*****
 35 39 0 0 0
SMALL
GASTEIGER

@<TRIPOS>ATOM
      1 C          -1.9561    3.7445   21.1467 C.3     1  UNL1        0.0933
      2 C          -0.9771    2.6203   21.3144 C.3     1  UNL1        0.0442
      3 C           0.2421    2.5514   20.4433 C.3     1  UNL1        0.0953
      4 N           0.4824    3.6064   19.4045 N.am    1  UNL1       -0.2794
      5 C           1.7016    3.5374   18.5334 C.2     1  UNL1        0.2252
      6 O           1.9418    4.5925   17.4947 O.2     1  UNL1       -0.2749
      7 C          -0.4966    4.7305   19.2369 C.3     1  UNL1        0.0953
      8 C          -1.7158    4.7995   20.1079 C.3     1  UNL1        0.0442
      9 N          -5.4875    3.9158   22.7481 N.ar    1  UNL1       -0.2773
     10 C          -4.5976    3.8479   21.5426 C.ar    1  UNL1        0.3316
     11 O          -5.0505    3.8193   20.1129 O.2     1  UNL1       -0.2463
     12 N          -3.1753    3.8135   22.0178 N.ar    1  UNL1       -0.2817
     13 C          -3.1862    3.8602   23.5170 C.ar    1  UNL1        0.0796
     14 C          -2.0795    3.8533   24.5295 C.ar    1  UNL1        0.0188
     15 C          -2.4018    3.9097   25.9933 C.ar    1  UNL1        0.0016
     16 C          -3.8309    3.9729   26.4447 C.ar    1  UNL1        0.0016
     17 C          -4.9376    3.9798   25.4323 C.ar    1  UNL1        0.0188
     18 C          -4.6153    3.9235   23.9684 C.ar    1  UNL1        0.0798
     19 C          -6.9866    3.9672   22.7357 C.3     1  UNL1        0.1425
     20 C          -7.6974    5.2243   23.1409 C.3     1  UNL1        0.1668
     21 C          -7.6297    6.0684   20.6848 C.3     1  UNL1        0.1742
     22 O          -7.9346    6.3100   22.1335 O.3     1  UNL1       -0.3490
     23 C           2.6804    2.4133   18.7012 C.3     1  UNL1        0.0795
     24 C           4.0346    2.6794   19.2889 C.3     1  UNL1        0.0264
     25 C           5.0135    1.5552   19.4566 C.3     1  UNL1        0.0729
     26 N           4.6381    0.1649   19.0366 N.3     1  UNL1       -0.2689
     27 C           3.2839   -0.1011   18.4489 C.3     1  UNL1        0.0729
     28 C           2.3051    1.0231   18.2812 C.3     1  UNL1        0.0264
     29 C           5.6170   -0.9592   19.2044 C.3     1  UNL1        0.0992
     30 C           5.1335   -2.3211   19.6060 C.ar    1  UNL1       -0.0031
     31 C           4.7551   -2.5924   21.0319 C.ar    1  UNL1        0.0178
     32 C           4.2716   -3.9543   21.4335 C.ar    1  UNL1        0.0986
     33 N           4.1665   -5.0450   20.4091 N.ar    1  UNL1       -0.2423
     34 C           4.5448   -4.7738   18.9832 C.ar    1  UNL1        0.0986
     35 C           5.0283   -3.4118   18.5816 C.ar    1  UNL1        0.0178
@<TRIPOS>BOND
     1    21    22    1
     2    22    20    1
     3    20    19    1
     4    19     9    1
     5     9    10   ar
     6    10    11    2
     7    10    12   ar
     8    12     1    1
     9     1     2    1
    10     2     3    1
    11     3     4    1
    12     4     5   am
    13     5     6    2
    14     5    23    1
    15    23    24    1
    16    24    25    1
    17    25    26    1
    18    26    29    1
    19    29    30    1
    20    30    31   ar
    21    31    32   ar
    22    32    33   ar
    23    33    34   ar
    24    34    35   ar
    25    26    27    1
    26    27    28    1
    27     4     7    1
    28     7     8    1
    29    12    13   ar
    30    13    14   ar
    31    14    15   ar
    32    15    16   ar
    33    16    17   ar
    34    17    18   ar
    35    18     9   ar
    36     8     1    1
    37    18    13   ar
    38    28    23    1
    39    35    30   ar
@<TRIPOS>MOLECULE
*****
 35 39 0 0 0
SMALL
GASTEIGER

@<TRIPOS>ATOM
      1 C           0.2431    2.5455   19.0010 C.3     1  UNL1        0.0933
      2 C          -0.6094    2.6324   20.2323 C.3     1  UNL1        0.0442
      3 C          -1.9057    3.3861   20.1953 C.3     1  UNL1        0.0953
      4 N          -2.3497    4.0529   18.9271 N.am    1  UNL1       -0.2794
      5 C          -3.6461    4.8065   18.8901 C.2     1  UNL1        0.2252
      6 O          -4.0901    5.4733   17.6220 O.2     1  UNL1       -0.2749
      7 C          -1.4973    3.9659   17.6959 C.3     1  UNL1        0.0953
      8 C          -0.2010    3.2123   17.7329 C.3     1  UNL1        0.0442
      9 N           3.1771    0.0309   19.3657 N.ar    1  UNL1       -0.2773
     10 C           1.7234    0.3760   19.4979 C.ar    1  UNL1        0.3316
     11 O           0.6432   -0.5348   20.0016 O.2     1  UNL1       -0.2463
     12 N           1.5395    1.7918   19.0380 N.ar    1  UNL1       -0.2817
     13 C           2.8795    2.3218   18.6215 C.ar    1  UNL1        0.0796
     14 C           3.3089    3.6547   18.0841 C.ar    1  UNL1        0.0188
     15 C           4.7504    3.8992   17.7492 C.ar    1  UNL1        0.0016
     16 C           5.7625    2.8109   17.9517 C.ar    1  UNL1        0.0016
     17 C           5.3332    1.4779   18.4891 C.ar    1  UNL1        0.0188
     18 C           3.8917    1.2334   18.8241 C.ar    1  UNL1        0.0798
     19 C           3.8060   -1.2857   19.7139 C.3     1  UNL1        0.1425
     20 C           3.8639   -2.3827   18.6927 C.3     1  UNL1        0.1668
     21 C           4.5289   -4.8709   19.0347 C.3     1  UNL1        0.1742
     22 O           3.4948   -3.7851   19.0765 O.3     1  UNL1       -0.3490
     23 C          -4.4984    4.8934   20.1213 C.3     1  UNL1        0.0795
     24 C          -4.3813    6.0791   21.0326 C.3     1  UNL1        0.0264
     25 C          -5.2337    6.1659   22.2639 C.3     1  UNL1        0.0729
     26 N          -6.2032    5.0669   22.5839 N.3     1  UNL1       -0.2689
     27 C          -6.3204    3.8812   21.6726 C.3     1  UNL1        0.0729
     28 C          -5.4680    3.7945   20.4414 C.3     1  UNL1        0.0264
     29 C          -7.0556    5.1538   23.8151 C.3     1  UNL1        0.0992
     30 C          -6.4148    5.3277   25.1601 C.ar    1  UNL1       -0.0031
     31 C          -5.2798    4.4372   25.5710 C.ar    1  UNL1        0.0178
     32 C          -4.6391    4.6111   26.9161 C.ar    1  UNL1        0.0986
     33 N          -5.1334    5.6755   27.8503 N.ar    1  UNL1       -0.2423
     34 C          -6.2684    6.5660   27.4394 C.ar    1  UNL1        0.0986
     35 C          -6.9091    6.3921   26.0943 C.ar    1  UNL1        0.0178
@<TRIPOS>BOND
     1    21    22    1
     2    22    20    1
     3    20    19    1
     4    19     9    1
     5     9    10   ar
     6    10    11    2
     7    10    12   ar
     8    12     1    1
     9     1     2    1
    10     2     3    1
    11     3     4    1
    12     4     5   am
    13     5     6    2
    14     5    23    1
    15    23    24    1
    16    24    25    1
    17    25    26    1
    18    26    29    1
    19    29    30    1
    20    30    31   ar
    21    31    32   ar
    22    32    33   ar
    23    33    34   ar
    24    34    35   ar
    25    26    27    1
    26    27    28    1
    27     4     7    1
    28     7     8    1
    29    12    13   ar
    30    13    14   ar
    31    14    15   ar
    32    15    16   ar
    33    16    17   ar
    34    17    18   ar
    35    18     9   ar
    36     8     1    1
    37    18    13   ar
    38    28    23    1
    39    35    30   ar
@<TRIPOS>MOLECULE
*****
 35 39 0 0 0
SMALL
GASTEIGER

@<TRIPOS>ATOM
      1 C           6.1754   -2.1774   20.9463 C.3     1  UNL1        0.0933
      2 C           6.1737   -1.9694   22.4319 C.3     1  UNL1        0.0442
      3 C           6.7477   -3.0191   23.3368 C.3     1  UNL1        0.0953
      4 N           7.3232   -4.2767   22.7562 N.am    1  UNL1       -0.2794
      5 C           7.8971   -5.3264   23.6611 C.2     1  UNL1        0.2252
      6 O           8.4727   -6.5840   23.0804 O.2     1  UNL1       -0.2749
      7 C           7.3248   -4.4847   21.2707 C.3     1  UNL1        0.0953
      8 C           6.7509   -3.4350   20.3658 C.3     1  UNL1        0.0442
      9 N           5.4099    0.6759   18.4289 N.ar    1  UNL1       -0.2773
     10 C           6.3833   -0.2059   19.1533 C.ar    1  UNL1        0.3316
     11 O           7.8765   -0.1718   19.0141 O.2     1  UNL1       -0.2463
     12 N           5.6014   -1.1277   20.0415 N.ar    1  UNL1       -0.2817
     13 C           4.1448   -0.8157   19.8659 C.ar    1  UNL1        0.0796
     14 C           2.9109   -1.4025   20.4848 C.ar    1  UNL1        0.0188
     15 C           1.5587   -0.8746   20.1070 C.ar    1  UNL1        0.0016
     16 C           1.4403    0.2401   19.1104 C.ar    1  UNL1        0.0016
     17 C           2.6742    0.8270   18.4915 C.ar    1  UNL1        0.0188
     18 C           4.0264    0.2991   18.8692 C.ar    1  UNL1        0.0798
     19 C           5.7588    1.7467   17.4380 C.3     1  UNL1        0.1425
     20 C           6.5191    1.3976   16.1930 C.3     1  UNL1        0.1668
     21 C           8.6046    2.9033   16.5583 C.3     1  UNL1        0.1742
     22 O           8.0055    1.5925   16.1424 O.3     1  UNL1       -0.3490
     23 C           7.8955   -5.1184   25.1465 C.3     1  UNL1        0.0795
     24 C           9.0032   -4.3436   25.7966 C.3     1  UNL1        0.0264
     25 C           9.0015   -4.1355   27.2822 C.3     1  UNL1        0.0729
     26 N           7.8921   -4.7024   28.1176 N.3     1  UNL1       -0.2689
     27 C           6.7844   -5.4772   27.4675 C.3     1  UNL1        0.0729
     28 C           6.7861   -5.6852   25.9820 C.3     1  UNL1        0.0264
     29 C           7.8904   -4.4944   29.6031 C.3     1  UNL1        0.0992
     30 C           6.9407   -3.5120   30.2218 C.ar    1  UNL1       -0.0031
     31 C           6.4103   -2.3679   29.4095 C.ar    1  UNL1        0.0178
     32 C           5.4605   -1.3856   30.0283 C.ar    1  UNL1        0.0986
     33 N           5.0411   -1.5472   31.4594 N.ar    1  UNL1       -0.2423
     34 C           5.5715   -2.6913   32.2717 C.ar    1  UNL1        0.0986
     35 C           6.5213   -3.6737   31.6529 C.ar    1  UNL1        0.0178
@<TRIPOS>BOND
     1    21    22    1
     2    22    20    1
     3    20    19    1
     4    19     9    1
     5     9    10   ar
     6    10    11    2
     7    10    12   ar
     8    12     1    1
     9     1     2    1
    10     2     3    1
    11     3     4    1
    12     4     5   am
    13     5     6    2
    14     5    23    1
    15    23    24    1
    16    24    25    1
    17    25    26    1
    18    26    29    1
    19    29    30    1
    20    30    31   ar
    21    31    32   ar
    22    32    33   ar
    23    33    34   ar
    24    34    35   ar
    25    26    27    1
    26    27    28    1
    27     4     7    1
    28     7     8    1
    29    12    13   ar
    30    13    14   ar
    31    14    15   ar
    32    15    16   ar
    33    16    17   ar
    34    17    18   ar
    35    18     9   ar
    36     8     1    1
    37    18    13   ar
    38    28    23    1
    39    35    30   ar
@<TRIPOS>MOLECULE
*****
 35 39 0 0 0
SMALL
GASTEIGER

@<TRIPOS>ATOM
      1 C           2.5086   -0.2749   22.3899 C.3     1  UNL1        0.0933
      2 C           2.7830   -0.2952   23.8646 C.3     1  UNL1        0.0442
      3 C           1.9260    0.5074   24.7980 C.3     1  UNL1        0.0953
      4 N           0.7947    1.3304   24.2570 N.am    1  UNL1       -0.2794
      5 C          -0.0624    2.1330   25.1904 C.2     1  UNL1        0.2252
      6 O          -1.1937    2.9559   24.6494 O.2     1  UNL1       -0.2749
      7 C           0.5203    1.3507   22.7824 C.3     1  UNL1        0.0953
      8 C           1.3773    0.5481   21.8490 C.3     1  UNL1        0.0442
      9 N           4.8953   -2.7510   20.5907 N.ar    1  UNL1       -0.2773
     10 C           4.2107   -2.2588   21.8312 C.ar    1  UNL1        0.3316
     11 O           4.3470   -2.8449   23.2052 O.2     1  UNL1       -0.2463
     12 N           3.3657   -1.0775   21.4565 N.ar    1  UNL1       -0.2817
     13 C           3.5281   -0.8396   19.9844 C.ar    1  UNL1        0.0796
     14 C           2.9373    0.1852   19.0620 C.ar    1  UNL1        0.0188
     15 C           3.2919    0.1756   17.6046 C.ar    1  UNL1        0.0016
     16 C           4.2373   -0.8587   17.0695 C.ar    1  UNL1        0.0016
     17 C           4.8281   -1.8835   17.9918 C.ar    1  UNL1        0.0188
     18 C           4.4735   -1.8739   19.4493 C.ar    1  UNL1        0.0798
     19 C           5.8366   -3.9159   20.5063 C.3     1  UNL1        0.1425
     20 C           7.0667   -3.9499   21.3640 C.3     1  UNL1        0.1668
     21 C           7.6326   -4.1789   23.8893 C.3     1  UNL1        0.1742
     22 O           7.0806   -4.7645   22.6234 O.3     1  UNL1       -0.3490
     23 C           0.2121    2.1126   26.6649 C.3     1  UNL1        0.0795
     24 C           1.2462    3.0294   27.2481 C.3     1  UNL1        0.0264
     25 C           1.5206    3.0089   28.7228 C.3     1  UNL1        0.0729
     26 N           0.7609    2.0717   29.6141 N.3     1  UNL1       -0.2689
     27 C          -0.2732    1.1550   29.0309 C.3     1  UNL1        0.0729
     28 C          -0.5476    1.1754   27.5564 C.3     1  UNL1        0.0264
     29 C           1.0353    2.0514   31.0886 C.3     1  UNL1        0.0992
     30 C           2.1106    1.1622   31.6392 C.ar    1  UNL1       -0.0031
     31 C           2.6179    0.0076   30.8271 C.ar    1  UNL1        0.0178
     32 C           3.6932   -0.8816   31.3777 C.ar    1  UNL1        0.0986
     33 N           4.2611   -0.6161   32.7404 N.ar    1  UNL1       -0.2423
     34 C           3.7538    0.5385   33.5525 C.ar    1  UNL1        0.0986
     35 C           2.6786    1.4277   33.0019 C.ar    1  UNL1        0.0178
@<TRIPOS>BOND
     1    21    22    1
     2    22    20    1
     3    20    19    1
     4    19     9    1
     5     9    10   ar
     6    10    11    2
     7    10    12   ar
     8    12     1    1
     9     1     2    1
    10     2     3    1
    11     3     4    1
    12     4     5   am
    13     5     6    2
    14     5    23    1
    15    23    24    1
    16    24    25    1
    17    25    26    1
    18    26    29    1
    19    29    30    1
    20    30    31   ar
    21    31    32   ar
    22    32    33   ar
    23    33    34   ar
    24    34    35   ar
    25    26    27    1
    26    27    28    1
    27     4     7    1
    28     7     8    1
    29    12    13   ar
    30    13    14   ar
    31    14    15   ar
    32    15    16   ar
    33    16    17   ar
    34    17    18   ar
    35    18     9   ar
    36     8     1    1
    37    18    13   ar
    38    28    23    1
    39    35    30   ar
@<TRIPOS>MOLECULE
*****
 35 39 0 0 0
SMALL
GASTEIGER

@<TRIPOS>ATOM
      1 C           2.5916   -0.3558   22.5123 C.3     1  UNL1        0.0933
      2 C           2.9334   -0.4574   23.9694 C.3     1  UNL1        0.0442
      3 C           2.1547    0.3323   24.9794 C.3     1  UNL1        0.0953
      4 N           1.0342    1.2236   24.5323 N.am    1  UNL1       -0.2794
      5 C           0.2555    2.0133   25.5423 C.2     1  UNL1        0.2252
      6 O          -0.8651    2.9047   25.0952 O.2     1  UNL1       -0.2749
      7 C           0.6924    1.3253   23.0753 C.3     1  UNL1        0.0953
      8 C           1.4711    0.5356   22.0654 C.3     1  UNL1        0.0442
      9 N           4.7706   -2.8458   20.4834 N.ar    1  UNL1       -0.2773
     10 C           4.1549   -2.3946   21.7746 C.ar    1  UNL1        0.3316
     11 O           4.2986   -3.0733   23.1045 O.2     1  UNL1       -0.2463
     12 N           3.3703   -1.1455   21.5024 N.ar    1  UNL1       -0.2817
     13 C           3.5011   -0.8247   20.0430 C.ar    1  UNL1        0.0796
     14 C           2.9439    0.2885   19.2062 C.ar    1  UNL1        0.0188
     15 C           3.2522    0.3509   17.7395 C.ar    1  UNL1        0.0016
     16 C           4.1177   -0.7000   17.1097 C.ar    1  UNL1        0.0016
     17 C           4.6748   -1.8132   17.9465 C.ar    1  UNL1        0.0188
     18 C           4.3665   -1.8756   19.4131 C.ar    1  UNL1        0.0798
     19 C           5.6381   -4.0550   20.2953 C.3     1  UNL1        0.1425
     20 C           7.0842   -4.0094   20.6908 C.3     1  UNL1        0.1668
     21 C           7.5782   -4.6176   23.1679 C.3     1  UNL1        0.1742
     22 O           7.6136   -4.9731   21.7111 O.3     1  UNL1       -0.3490
     23 C           0.5974    1.9116   26.9992 C.3     1  UNL1        0.0795
     24 C          -0.1906    1.0001   27.8927 C.3     1  UNL1        0.0264
     25 C           0.1514    0.8985   29.3497 C.3     1  UNL1        0.0729
     26 N           1.2813    1.7083   29.9132 N.3     1  UNL1       -0.2689
     27 C           2.0693    2.6198   29.0197 C.3     1  UNL1        0.0729
     28 C           1.7273    2.7214   27.5628 C.3     1  UNL1        0.0264
     29 C           1.6232    1.6066   31.3701 C.3     1  UNL1        0.0992
     30 C           1.2788    2.7307   32.3016 C.ar    1  UNL1       -0.0031
     31 C           0.1986    3.7047   31.9346 C.ar    1  UNL1        0.0178
     32 C          -0.1458    4.8288   32.8662 C.ar    1  UNL1        0.0986
     33 N           0.5899    4.9789   34.1647 N.ar    1  UNL1       -0.2423
     34 C           1.6700    4.0049   34.5317 C.ar    1  UNL1        0.0986
     35 C           2.0145    2.8808   33.6002 C.ar    1  UNL1        0.0178
@<TRIPOS>BOND
     1    21    22    1
     2    22    20    1
     3    20    19    1
     4    19     9    1
     5     9    10   ar
     6    10    11    2
     7    10    12   ar
     8    12     1    1
     9     1     2    1
    10     2     3    1
    11     3     4    1
    12     4     5   am
    13     5     6    2
    14     5    23    1
    15    23    24    1
    16    24    25    1
    17    25    26    1
    18    26    29    1
    19    29    30    1
    20    30    31   ar
    21    31    32   ar
    22    32    33   ar
    23    33    34   ar
    24    34    35   ar
    25    26    27    1
    26    27    28    1
    27     4     7    1
    28     7     8    1
    29    12    13   ar
    30    13    14   ar
    31    14    15   ar
    32    15    16   ar
    33    16    17   ar
    34    17    18   ar
    35    18     9   ar
    36     8     1    1
    37    18    13   ar
    38    28    23    1
    39    35    30   ar
