@<TRIPOS>MOLECULE
*****
 24 26 0 0 0
SMALL
GASTEIGER

@<TRIPOS>ATOM
      1 C          -3.4892  -20.6863   20.0963 C.3     1  UNL1        0.0307
      2 C          -4.1730  -19.6770   20.9703 C.ar    1  UNL1       -0.0244
      3 C          -3.3752  -18.5883   21.6245 C.ar    1  UNL1       -0.0045
      4 C          -4.0590  -17.5790   22.4985 C.ar    1  UNL1        0.0013
      5 C          -5.5406  -17.6585   22.7182 C.ar    1  UNL1        0.0214
      6 C          -6.2244  -16.6493   23.5922 C.ar    1  UNL1        0.0506
      7 C          -7.7061  -16.7287   23.8119 C.ar    1  UNL1        0.1522
      8 O          -8.3899  -15.7195   24.6859 O.3     1  UNL1       -0.5039
      9 C          -8.5040  -17.8175   23.1576 C.ar    1  UNL1        0.1148
     10 N          -7.8202  -18.8268   22.2837 N.ar    1  UNL1       -0.2426
     11 C          -6.3385  -18.7472   22.0640 C.ar    1  UNL1        0.0772
     12 C          -5.6547  -19.7565   21.1900 C.ar    1  UNL1       -0.0081
     13 C          -6.4526  -20.8453   20.5357 C.3     1  UNL1        0.0323
     14 H          -7.8915  -15.0394   25.0945 H       1  UNL1        0.2923
     15 C          -9.9857  -17.8970   23.3774 C.ar    1  UNL1        0.0207
     16 C         -10.9142  -17.0745   22.5338 C.ar    1  UNL1        0.0025
     17 C         -12.3959  -17.1540   22.7535 C.ar    1  UNL1        0.0114
     18 C         -12.9491  -18.0559   23.8168 C.ar    1  UNL1        0.0577
     19 CL        -14.4307  -18.1354   24.0365 Cl      1  UNL1       -0.0822
     20 C         -12.0207  -18.8783   24.6603 C.ar    1  UNL1        0.0114
     21 C         -10.5389  -18.7989   24.4406 C.ar    1  UNL1        0.0025
     22 C          -5.4266  -15.5605   24.2464 C.2     1  UNL1        0.0759
     23 O          -4.6807  -14.5679   23.4046 O.co2   1  UNL1       -0.5445
     24 O          -5.3746  -15.4643   25.7424 O.co2   1  UNL1       -0.5445
@<TRIPOS>UNITY_ATOM_ATTR
23 1
charge -1
@<TRIPOS>BOND
     1     1     2    1
     2     2     3   ar
     3     3     4   ar
     4     4     5   ar
     5     5     6   ar
     6     6    22    1
     7    22    23   ar
     8    22    24   ar
     9     6     7   ar
    10     7     8    1
    11     7     9   ar
    12     9    15    1
    13    15    16   ar
    14    16    17   ar
    15    17    18   ar
    16    18    19    1
    17    18    20   ar
    18    20    21   ar
    19     9    10   ar
    20    10    11   ar
    21    11    12   ar
    22    12    13    1
    23    12     2   ar
    24    11     5   ar
    25    21    15   ar
    26     8    14    1
@<TRIPOS>MOLECULE
*****
 24 26 0 0 0
SMALL
GASTEIGER

@<TRIPOS>ATOM
      1 C          -7.7104  -21.7690   18.2301 C.3     1  UNL1        0.0307
      2 C          -8.4643  -20.7000   18.9643 C.ar    1  UNL1       -0.0244
      3 C          -9.8285  -20.2881   18.4961 C.ar    1  UNL1       -0.0045
      4 C         -10.5824  -19.2191   19.2302 C.ar    1  UNL1        0.0013
      5 C          -9.9721  -18.5620   20.4325 C.ar    1  UNL1        0.0214
      6 C         -10.7259  -17.4930   21.1666 C.ar    1  UNL1        0.0506
      7 C         -10.1156  -16.8359   22.3690 C.ar    1  UNL1        0.1522
      8 O         -10.8695  -15.7669   23.1031 O.3     1  UNL1       -0.5039
      9 C          -8.7513  -17.2477   22.8372 C.ar    1  UNL1        0.1148
     10 N          -7.9974  -18.3167   22.1031 N.ar    1  UNL1       -0.2426
     11 C          -8.6078  -18.9738   20.9007 C.ar    1  UNL1        0.0772
     12 C          -7.8540  -20.0428   20.1666 C.ar    1  UNL1       -0.0081
     13 C          -6.4897  -20.4547   20.6349 C.3     1  UNL1        0.0323
     14 H         -11.7217  -15.5096   22.8106 H       1  UNL1        0.2923
     15 C          -8.1410  -16.5906   24.0395 C.ar    1  UNL1        0.0207
     16 C          -8.8266  -16.6776   25.3709 C.ar    1  UNL1        0.0025
     17 C          -8.2163  -16.0205   26.5732 C.ar    1  UNL1        0.0114
     18 C          -6.9203  -15.2763   26.4443 C.ar    1  UNL1        0.0577
     19 CL         -6.3100  -14.6192   27.6466 Cl      1  UNL1       -0.0822
     20 C          -6.2347  -15.1893   25.1130 C.ar    1  UNL1        0.0114
     21 C          -6.8450  -15.8464   23.9106 C.ar    1  UNL1        0.0025
     22 C         -12.0901  -17.0811   20.6984 C.2     1  UNL1        0.0759
     23 O         -12.2365  -15.9793   19.6912 O.co2   1  UNL1       -0.5445
     24 O         -13.3081  -17.7711   21.2375 O.co2   1  UNL1       -0.5445
@<TRIPOS>UNITY_ATOM_ATTR
23 1
charge -1
@<TRIPOS>BOND
     1     1     2    1
     2     2     3   ar
     3     3     4   ar
     4     4     5   ar
     5     5     6   ar
     6     6    22    1
     7    22    23   ar
     8    22    24   ar
     9     6     7   ar
    10     7     8    1
    11     7     9   ar
    12     9    15    1
    13    15    16   ar
    14    16    17   ar
    15    17    18   ar
    16    18    19    1
    17    18    20   ar
    18    20    21   ar
    19     9    10   ar
    20    10    11   ar
    21    11    12   ar
    22    12    13    1
    23    12     2   ar
    24    11     5   ar
    25    21    15   ar
    26     8    14    1
@<TRIPOS>MOLECULE
*****
 24 26 0 0 0
SMALL
GASTEIGER

@<TRIPOS>ATOM
      1 C           0.4443    5.8824   34.4635 C.3     1  UNL1        0.0307
      2 C           1.2320    4.8112   35.1579 C.ar    1  UNL1       -0.0244
      3 C           1.2799    4.7676   36.6565 C.ar    1  UNL1       -0.0045
      4 C           2.0676    3.6965   37.3508 C.ar    1  UNL1        0.0013
      5 C           2.8074    2.6689   36.5467 C.ar    1  UNL1        0.0214
      6 C           3.5951    1.5978   37.2411 C.ar    1  UNL1        0.0506
      7 C           4.3349    0.5702   36.4369 C.ar    1  UNL1        0.1522
      8 O           5.1226   -0.5009   37.1313 O.3     1  UNL1       -0.5039
      9 C           4.2871    0.6138   34.9382 C.ar    1  UNL1        0.1148
     10 N           3.4994    1.6850   34.2438 N.ar    1  UNL1       -0.2426
     11 C           2.7596    2.7126   35.0481 C.ar    1  UNL1        0.0772
     12 C           1.9719    3.7837   34.3537 C.ar    1  UNL1       -0.0081
     13 C           1.9241    3.8273   32.8550 C.3     1  UNL1        0.0323
     14 H           5.1525   -0.5281   38.0674 H       1  UNL1        0.2923
     15 C           5.0270   -0.4137   34.1340 C.ar    1  UNL1        0.0207
     16 C           4.3365   -1.6777   33.7148 C.ar    1  UNL1        0.0025
     17 C           5.0763   -2.7052   32.9107 C.ar    1  UNL1        0.0114
     18 C           6.5066   -2.4689   32.5256 C.ar    1  UNL1        0.0577
     19 CL          7.2465   -3.4964   31.7215 Cl      1  UNL1       -0.0822
     20 C           7.1972   -1.2050   32.9448 C.ar    1  UNL1        0.0114
     21 C           6.4573   -0.1774   33.7490 C.ar    1  UNL1        0.0025
     22 C           3.6429    1.5542   38.7396 C.2     1  UNL1        0.0759
     23 O           4.7374    2.2681   39.4762 O.co2   1  UNL1       -0.5445
     24 O           2.5963    0.7966   39.5017 O.co2   1  UNL1       -0.5445
@<TRIPOS>UNITY_ATOM_ATTR
23 1
charge -1
@<TRIPOS>BOND
     1     1     2    1
     2     2     3   ar
     3     3     4   ar
     4     4     5   ar
     5     5     6   ar
     6     6    22    1
     7    22    23   ar
     8    22    24   ar
     9     6     7   ar
    10     7     8    1
    11     7     9   ar
    12     9    15    1
    13    15    16   ar
    14    16    17   ar
    15    17    18   ar
    16    18    19    1
    17    18    20   ar
    18    20    21   ar
    19     9    10   ar
    20    10    11   ar
    21    11    12   ar
    22    12    13    1
    23    12     2   ar
    24    11     5   ar
    25    21    15   ar
    26     8    14    1
@<TRIPOS>MOLECULE
*****
 24 26 0 0 0
SMALL
GASTEIGER

@<TRIPOS>ATOM
      1 C           0.6474    0.8998   21.5411 C.3     1  UNL1        0.0307
      2 C           1.7146   -0.1122   21.2460 C.ar    1  UNL1       -0.0244
      3 C           1.8364   -0.6938   19.8687 C.ar    1  UNL1       -0.0045
      4 C           2.9036   -1.7057   19.5736 C.ar    1  UNL1        0.0013
      5 C           3.8490   -2.1360   20.6557 C.ar    1  UNL1        0.0214
      6 C           4.9162   -3.1479   20.3605 C.ar    1  UNL1        0.0506
      7 C           5.8616   -3.5783   21.4427 C.ar    1  UNL1        0.1522
      8 O           6.9288   -4.5902   21.1475 O.3     1  UNL1       -0.5039
      9 C           5.7398   -2.9967   22.8200 C.ar    1  UNL1        0.1148
     10 N           4.6726   -1.9847   23.1151 N.ar    1  UNL1       -0.2426
     11 C           3.7272   -1.5544   22.0329 C.ar    1  UNL1        0.0772
     12 C           2.6600   -0.5425   22.3281 C.ar    1  UNL1       -0.0081
     13 C           2.5382    0.0391   23.7054 C.3     1  UNL1        0.0323
     14 H           7.0049   -4.9535   20.2872 H       1  UNL1        0.2923
     15 C           6.6852   -3.4270   23.9021 C.ar    1  UNL1        0.0207
     16 C           7.7923   -2.5135   24.3378 C.ar    1  UNL1        0.0025
     17 C           8.7377   -2.9438   25.4199 C.ar    1  UNL1        0.0114
     18 C           8.5760   -4.2876   26.0664 C.ar    1  UNL1        0.0577
     19 CL          9.5214   -4.7180   27.1485 Cl      1  UNL1       -0.0822
     20 C           7.4690   -5.2012   25.6307 C.ar    1  UNL1        0.0114
     21 C           6.5235   -4.7708   24.5486 C.ar    1  UNL1        0.0025
     22 C           5.0380   -3.7295   18.9833 C.2     1  UNL1        0.0759
     23 O           4.6469   -5.1561   18.7342 O.co2   1  UNL1       -0.5445
     24 O           5.5509   -2.8846   17.8550 O.co2   1  UNL1       -0.5445
@<TRIPOS>UNITY_ATOM_ATTR
23 1
charge -1
@<TRIPOS>BOND
     1     1     2    1
     2     2     3   ar
     3     3     4   ar
     4     4     5   ar
     5     5     6   ar
     6     6    22    1
     7    22    23   ar
     8    22    24   ar
     9     6     7   ar
    10     7     8    1
    11     7     9   ar
    12     9    15    1
    13    15    16   ar
    14    16    17   ar
    15    17    18   ar
    16    18    19    1
    17    18    20   ar
    18    20    21   ar
    19     9    10   ar
    20    10    11   ar
    21    11    12   ar
    22    12    13    1
    23    12     2   ar
    24    11     5   ar
    25    21    15   ar
    26     8    14    1
@<TRIPOS>MOLECULE
*****
 24 26 0 0 0
SMALL
GASTEIGER

@<TRIPOS>ATOM
      1 C           4.0275   -1.5212   25.5260 C.3     1  UNL1        0.0307
      2 C           3.9268   -1.5063   24.0294 C.ar    1  UNL1       -0.0244
      3 C           4.4085   -2.6830   23.2335 C.ar    1  UNL1       -0.0045
      4 C           4.3078   -2.6681   21.7370 C.ar    1  UNL1        0.0013
      5 C           3.7254   -1.4765   21.0363 C.ar    1  UNL1        0.0214
      6 C           3.6247   -1.4616   19.5398 C.ar    1  UNL1        0.0506
      7 C           3.0422   -0.2701   18.8391 C.ar    1  UNL1        0.1522
      8 O           2.9415   -0.2552   17.3426 O.3     1  UNL1       -0.5039
      9 C           2.5605    0.9066   19.6350 C.ar    1  UNL1        0.1148
     10 N           2.6612    0.8917   21.1315 N.ar    1  UNL1       -0.2426
     11 C           3.2437   -0.2999   21.8322 C.ar    1  UNL1        0.0772
     12 C           3.3444   -0.3148   23.3287 C.ar    1  UNL1       -0.0081
     13 C           2.8627    0.8619   24.1246 C.3     1  UNL1        0.0323
     14 H           3.2424   -0.9902   16.8454 H       1  UNL1        0.2923
     15 C           1.9781    2.0981   18.9343 C.ar    1  UNL1        0.0207
     16 C           2.8504    3.2716   18.5991 C.ar    1  UNL1        0.0025
     17 C           2.2680    4.4631   17.8984 C.ar    1  UNL1        0.0114
     18 C           0.8133    4.4813   17.5329 C.ar    1  UNL1        0.0577
     19 CL          0.2309    5.6728   16.8323 Cl      1  UNL1       -0.0822
     20 C          -0.0590    3.3080   17.8681 C.ar    1  UNL1        0.0114
     21 C           0.5234    2.1163   18.5688 C.ar    1  UNL1        0.0025
     22 C           4.1063   -2.6383   18.7439 C.2     1  UNL1        0.0759
     23 O           3.4705   -3.9835   18.9343 O.co2   1  UNL1       -0.5445
     24 O           5.2239   -2.4698   17.7577 O.co2   1  UNL1       -0.5445
@<TRIPOS>UNITY_ATOM_ATTR
23 1
charge -1
@<TRIPOS>BOND
     1     1     2    1
     2     2     3   ar
     3     3     4   ar
     4     4     5   ar
     5     5     6   ar
     6     6    22    1
     7    22    23   ar
     8    22    24   ar
     9     6     7   ar
    10     7     8    1
    11     7     9   ar
    12     9    15    1
    13    15    16   ar
    14    16    17   ar
    15    17    18   ar
    16    18    19    1
    17    18    20   ar
    18    20    21   ar
    19     9    10   ar
    20    10    11   ar
    21    11    12   ar
    22    12    13    1
    23    12     2   ar
    24    11     5   ar
    25    21    15   ar
    26     8    14    1
