@<TRIPOS>MOLECULE
*****
 35 39 0 0 0
SMALL
GASTEIGER

@<TRIPOS>ATOM
      1 N           6.1429   -2.5726   29.4918 N.ar    1  UNL1       -0.3047
      2 C           6.2827   -3.0922   30.8919 C.ar    1  UNL1        0.1441
      3 N           6.7525   -4.5146   30.8137 N.ar    1  UNL1       -0.2267
      4 C           6.9032   -4.8741   29.3652 C.ar    1  UNL1        0.1010
      5 C           7.3347   -6.1392   28.6846 C.ar    1  UNL1        0.0526
      6 C           7.3895   -6.2040   27.1871 C.ar    1  UNL1        0.1690
      7 F           7.8210   -7.4692   26.5064 F       1  UNL1       -0.2017
      8 C           7.0127   -5.0038   26.3701 C.ar    1  UNL1        0.1689
      9 F           7.0675   -5.0687   24.8724 F       1  UNL1       -0.2017
     10 C           6.5812   -3.7387   27.0506 C.ar    1  UNL1        0.0507
     11 C           6.5264   -3.6738   28.5482 C.ar    1  UNL1        0.0816
     12 C           6.0019   -2.3243   32.1495 C.ar    1  UNL1        0.0342
     13 C           4.6338   -2.3644   32.7631 C.ar    1  UNL1        0.0039
     14 C           4.3530   -1.5965   34.0207 C.ar    1  UNL1        0.0115
     15 C           5.4404   -0.7886   34.6647 C.ar    1  UNL1        0.0577
     16 CL          5.1596   -0.0207   35.9222 Cl      1  UNL1       -0.0822
     17 C           6.8085   -0.7485   34.0511 C.ar    1  UNL1        0.0115
     18 C           7.0893   -1.5164   32.7935 C.ar    1  UNL1        0.0039
     19 C           5.6979   -1.1938   29.1033 C.3     1  UNL1        0.1628
     20 C           6.6434   -0.0365   29.2314 C.3     1  UNL1        0.0297
     21 C           7.7301    0.1601   28.2162 C.3     1  UNL1        0.0024
     22 C           8.6757    1.3174   28.3443 C.3     1  UNL1        0.0001
     23 C           8.5347    2.2782   29.4875 C.3     1  UNL1        0.0000
     24 C           7.4480    2.0816   30.5027 C.3     1  UNL1        0.0001
     25 C           6.5024    0.9243   30.3746 C.3     1  UNL1        0.0024
     26 O           3.4323   -1.6953   27.6059 O.2     1  UNL1       -0.2731
     27 C           4.3071   -0.9724   28.5868 C.2     1  UNL1        0.2431
     28 N           3.5016    0.1941   29.0774 N.am    1  UNL1       -0.3044
     29 H           3.8858    0.8143   29.7385 H       1  UNL1        0.1494
     30 C           2.1110    0.4155   28.5608 C.3     1  UNL1        0.0716
     31 C           1.8894    1.2628   27.3431 C.3     1  UNL1        0.0196
     32 C           0.4986    1.4843   26.8264 C.3     1  UNL1        0.0017
     33 C          -0.6705    0.8584   27.5275 C.3     1  UNL1        0.0001
     34 C          -0.4488    0.0111   28.7453 C.3     1  UNL1        0.0017
     35 C           0.9419   -0.2104   29.2619 C.3     1  UNL1        0.0196
@<TRIPOS>BOND
     1    26    27    2
     2    27    28   am
     3    28    30    1
     4    30    31    1
     5    31    32    1
     6    32    33    1
     7    33    34    1
     8    34    35    1
     9    27    19    1
    10    19    20    1
    11    20    21    1
    12    21    22    1
    13    22    23    1
    14    23    24    1
    15    24    25    1
    16    19     1    1
    17     1     2   ar
    18     2    12    1
    19    12    13   ar
    20    13    14   ar
    21    14    15   ar
    22    15    16    1
    23    15    17   ar
    24    17    18   ar
    25     2     3   ar
    26     3     4   ar
    27     4     5   ar
    28     5     6   ar
    29     6     7    1
    30     6     8   ar
    31     8     9    1
    32     8    10   ar
    33    10    11   ar
    34    35    30    1
    35    25    20    1
    36    11     1   ar
    37    18    12   ar
    38    11     4   ar
    39    28    29    1
@<TRIPOS>MOLECULE
*****
 35 39 0 0 0
SMALL
GASTEIGER

@<TRIPOS>ATOM
      1 N           5.5440   -1.7183   23.4463 N.ar    1  UNL1       -0.3047
      2 C           4.3103   -1.2426   22.7380 C.ar    1  UNL1        0.1441
      3 N           3.2959   -0.8654   23.7766 N.ar    1  UNL1       -0.2267
      4 C           3.9027   -1.1080   25.1268 C.ar    1  UNL1        0.1010
      5 C           3.3695   -0.9170   26.5158 C.ar    1  UNL1        0.0526
      6 C           4.2258   -1.2531   27.7006 C.ar    1  UNL1        0.1690
      7 F           3.6927   -1.0622   29.0896 F       1  UNL1       -0.2017
      8 C           5.6152   -1.7803   27.4964 C.ar    1  UNL1        0.1689
      9 F           6.4715   -2.1164   28.6813 F       1  UNL1       -0.2017
     10 C           6.1483   -1.9713   26.1075 C.ar    1  UNL1        0.0507
     11 C           5.2921   -1.6351   24.9227 C.ar    1  UNL1        0.0816
     12 C           4.1237   -1.1588   21.2520 C.ar    1  UNL1        0.0342
     13 C           4.2161    0.1678   20.5582 C.ar    1  UNL1        0.0039
     14 C           4.0295    0.2516   19.0722 C.ar    1  UNL1        0.0115
     15 C           3.7506   -0.9913   18.2800 C.ar    1  UNL1        0.0577
     16 CL          3.5640   -0.9075   16.7940 Cl      1  UNL1       -0.0822
     17 C           3.6582   -2.3179   18.9739 C.ar    1  UNL1        0.0115
     18 C           3.8448   -2.4017   20.4599 C.ar    1  UNL1        0.0039
     19 C           6.8077   -2.1938   22.7930 C.3     1  UNL1        0.1628
     20 C           7.2850   -1.5496   21.5253 C.3     1  UNL1        0.0297
     21 C           7.3715   -2.3535   20.2618 C.3     1  UNL1        0.0024
     22 C           7.8488   -1.7094   18.9941 C.3     1  UNL1        0.0001
     23 C           8.2395   -0.2611   18.9897 C.3     1  UNL1        0.0000
     24 C           8.1530    0.5428   20.2531 C.3     1  UNL1        0.0001
     25 C           7.6757   -0.1013   21.5209 C.3     1  UNL1        0.0024
     26 O           8.9717   -3.4214   23.9916 O.2     1  UNL1       -0.2731
     27 C           7.5944   -3.3136   23.4074 C.2     1  UNL1        0.2431
     28 N           6.9872   -4.6801   23.5252 N.am    1  UNL1       -0.3044
     29 H           6.0725   -4.8422   23.1992 H       1  UNL1        0.1494
     30 C           7.7738   -5.7998   24.1396 C.3     1  UNL1        0.0716
     31 C           7.5850   -6.1425   25.5877 C.3     1  UNL1        0.0196
     32 C           8.3716   -7.2622   26.2022 C.3     1  UNL1        0.0017
     33 C           9.3471   -8.0392   25.3686 C.3     1  UNL1        0.0001
     34 C           9.5359   -7.6964   23.9206 C.3     1  UNL1        0.0017
     35 C           8.7493   -6.5767   23.3061 C.3     1  UNL1        0.0196
@<TRIPOS>BOND
     1    26    27    2
     2    27    28   am
     3    28    30    1
     4    30    31    1
     5    31    32    1
     6    32    33    1
     7    33    34    1
     8    34    35    1
     9    27    19    1
    10    19    20    1
    11    20    21    1
    12    21    22    1
    13    22    23    1
    14    23    24    1
    15    24    25    1
    16    19     1    1
    17     1     2   ar
    18     2    12    1
    19    12    13   ar
    20    13    14   ar
    21    14    15   ar
    22    15    16    1
    23    15    17   ar
    24    17    18   ar
    25     2     3   ar
    26     3     4   ar
    27     4     5   ar
    28     5     6   ar
    29     6     7    1
    30     6     8   ar
    31     8     9    1
    32     8    10   ar
    33    10    11   ar
    34    35    30    1
    35    25    20    1
    36    11     1   ar
    37    18    12   ar
    38    11     4   ar
    39    28    29    1
@<TRIPOS>MOLECULE
*****
 35 39 0 0 0
SMALL
GASTEIGER

@<TRIPOS>ATOM
      1 N           4.4687    0.7858   33.9285 N.ar    1  UNL1       -0.3047
      2 C           5.2293   -0.4032   34.4360 C.ar    1  UNL1        0.1441
      3 N           5.0173   -0.4908   35.9184 N.ar    1  UNL1       -0.2267
      4 C           4.1257    0.6441   36.3270 C.ar    1  UNL1        0.1010
      5 C           3.5787    1.0610   37.6600 C.ar    1  UNL1        0.0526
      6 C           2.6927    2.2669   37.7633 C.ar    1  UNL1        0.1690
      7 F           2.1457    2.6838   39.0963 F       1  UNL1       -0.2017
      8 C           2.3536    3.0559   36.5334 C.ar    1  UNL1        0.1689
      9 F           1.4675    4.2619   36.6367 F       1  UNL1       -0.2017
     10 C           2.9006    2.6390   35.2004 C.ar    1  UNL1        0.0507
     11 C           3.7866    1.4331   35.0972 C.ar    1  UNL1        0.0816
     12 C           6.0567   -1.3401   33.6068 C.ar    1  UNL1        0.0342
     13 C           5.4011   -2.4776   32.8812 C.ar    1  UNL1        0.0039
     14 C           6.2285   -3.4145   32.0520 C.ar    1  UNL1        0.0115
     15 C           7.7114   -3.2140   31.9483 C.ar    1  UNL1        0.0577
     16 CL          8.5387   -4.1510   31.1191 Cl      1  UNL1       -0.0822
     17 C           8.3669   -2.0766   32.6739 C.ar    1  UNL1        0.0115
     18 C           7.5396   -1.1397   33.5031 C.ar    1  UNL1        0.0039
     19 C           4.4018    1.2468   32.5026 C.3     1  UNL1        0.1628
     20 C           5.6441    1.7212   31.8087 C.3     1  UNL1        0.0297
     21 C           6.3227    0.8415   30.8009 C.3     1  UNL1        0.0024
     22 C           7.5650    1.3159   30.1069 C.3     1  UNL1        0.0001
     23 C           8.1287    2.6700   30.4208 C.3     1  UNL1        0.0000
     24 C           7.4502    3.5497   31.4286 C.3     1  UNL1        0.0001
     25 C           6.2079    3.0753   32.1225 C.3     1  UNL1        0.0024
     26 O           1.6582    1.3276   32.1990 O.2     1  UNL1       -0.2731
     27 C           3.0926    1.2332   31.7706 C.2     1  UNL1        0.2431
     28 N           3.0700    1.1014   30.2766 N.am    1  UNL1       -0.3044
     29 H           3.9144    1.0238   29.7764 H       1  UNL1        0.1494
     30 C           1.7607    1.0879   29.5447 C.3     1  UNL1        0.0716
     31 C           1.0078   -0.1988   29.3785 C.3     1  UNL1        0.0196
     32 C          -0.3015   -0.2124   28.6465 C.3     1  UNL1        0.0017
     33 C          -0.8578    1.0606   28.0808 C.3     1  UNL1        0.0001
     34 C          -0.1048    2.3472   28.2471 C.3     1  UNL1        0.0017
     35 C           1.2045    2.3609   28.9790 C.3     1  UNL1        0.0196
@<TRIPOS>BOND
     1    26    27    2
     2    27    28   am
     3    28    30    1
     4    30    31    1
     5    31    32    1
     6    32    33    1
     7    33    34    1
     8    34    35    1
     9    27    19    1
    10    19    20    1
    11    20    21    1
    12    21    22    1
    13    22    23    1
    14    23    24    1
    15    24    25    1
    16    19     1    1
    17     1     2   ar
    18     2    12    1
    19    12    13   ar
    20    13    14   ar
    21    14    15   ar
    22    15    16    1
    23    15    17   ar
    24    17    18   ar
    25     2     3   ar
    26     3     4   ar
    27     4     5   ar
    28     5     6   ar
    29     6     7    1
    30     6     8   ar
    31     8     9    1
    32     8    10   ar
    33    10    11   ar
    34    35    30    1
    35    25    20    1
    36    11     1   ar
    37    18    12   ar
    38    11     4   ar
    39    28    29    1
@<TRIPOS>MOLECULE
*****
 35 39 0 0 0
SMALL
GASTEIGER

@<TRIPOS>ATOM
      1 N           1.0137    2.1455   20.3730 N.ar    1  UNL1       -0.3047
      2 C           1.5151    2.2531   18.9634 C.ar    1  UNL1        0.1441
      3 N           0.4716    2.9637   18.1533 N.ar    1  UNL1       -0.2267
      4 C          -0.6747    3.2952   19.0622 C.ar    1  UNL1        0.1010
      5 C          -1.9802    3.9922   18.8179 C.ar    1  UNL1        0.0526
      6 C          -2.9507    4.1835   19.9454 C.ar    1  UNL1        0.1690
      7 F          -4.2564    4.8805   19.7011 F       1  UNL1       -0.2017
      8 C          -2.6157    3.6778   21.3173 C.ar    1  UNL1        0.1689
      9 F          -3.5863    3.8692   22.4449 F       1  UNL1       -0.2017
     10 C          -1.3102    2.9808   21.5616 C.ar    1  UNL1        0.0507
     11 C          -0.3397    2.7895   20.4341 C.ar    1  UNL1        0.0816
     12 C           2.8292    1.7402   18.4534 C.ar    1  UNL1        0.0342
     13 C           2.9175    0.3675   17.8554 C.ar    1  UNL1        0.0039
     14 C           4.2316   -0.1454   17.3455 C.ar    1  UNL1        0.0115
     15 C           5.4575    0.7145   17.4335 C.ar    1  UNL1        0.0577
     16 CL          6.7716    0.2016   16.9236 Cl      1  UNL1       -0.0822
     17 C           5.3692    2.0872   18.0316 C.ar    1  UNL1        0.0115
     18 C           4.0551    2.6001   18.5415 C.ar    1  UNL1        0.0039
     19 C           1.7384    1.5061   21.5202 C.3     1  UNL1        0.1628
     20 C           2.7454    0.4249   21.2621 C.3     1  UNL1        0.0297
     21 C           4.2091    0.7077   21.4297 C.3     1  UNL1        0.0024
     22 C           5.2162   -0.3735   21.1716 C.3     1  UNL1        0.0001
     23 C           4.7598   -1.7375   20.7459 C.3     1  UNL1        0.0000
     24 C           3.2963   -2.0203   20.5783 C.3     1  UNL1        0.0001
     25 C           2.2891   -0.9391   20.8364 C.3     1  UNL1        0.0024
     26 O           1.7460    3.1974   23.7033 O.2     1  UNL1       -0.2731
     27 C           1.4559    1.9480   22.9256 C.2     1  UNL1        0.2431
     28 N           0.7292    1.0342   23.8674 N.am    1  UNL1       -0.3044
     29 H           0.4377    0.1444   23.5631 H       1  UNL1        0.1494
     30 C           0.4468    1.4761   25.2727 C.3     1  UNL1        0.0716
     31 C           1.4607    1.2370   26.3520 C.3     1  UNL1        0.0196
     32 C           1.1783    1.6789   27.7575 C.3     1  UNL1        0.0017
     33 C          -0.1178    2.3599   28.0834 C.3     1  UNL1        0.0001
     34 C          -1.1316    2.5990   27.0040 C.3     1  UNL1        0.0017
     35 C          -0.8493    2.1571   25.5986 C.3     1  UNL1        0.0196
@<TRIPOS>BOND
     1    26    27    2
     2    27    28   am
     3    28    30    1
     4    30    31    1
     5    31    32    1
     6    32    33    1
     7    33    34    1
     8    34    35    1
     9    27    19    1
    10    19    20    1
    11    20    21    1
    12    21    22    1
    13    22    23    1
    14    23    24    1
    15    24    25    1
    16    19     1    1
    17     1     2   ar
    18     2    12    1
    19    12    13   ar
    20    13    14   ar
    21    14    15   ar
    22    15    16    1
    23    15    17   ar
    24    17    18   ar
    25     2     3   ar
    26     3     4   ar
    27     4     5   ar
    28     5     6   ar
    29     6     7    1
    30     6     8   ar
    31     8     9    1
    32     8    10   ar
    33    10    11   ar
    34    35    30    1
    35    25    20    1
    36    11     1   ar
    37    18    12   ar
    38    11     4   ar
    39    28    29    1
@<TRIPOS>MOLECULE
*****
 35 39 0 0 0
SMALL
GASTEIGER

@<TRIPOS>ATOM
      1 N          -1.3971    3.3631   21.5367 N.ar    1  UNL1       -0.3047
      2 C          -2.7102    4.0740   21.3938 C.ar    1  UNL1        0.1441
      3 N          -3.2835    4.2688   22.7661 N.ar    1  UNL1       -0.2267
      4 C          -2.3247    3.6784   23.7572 C.ar    1  UNL1        0.1010
      5 C          -2.3627    3.5782   25.2533 C.ar    1  UNL1        0.0526
      6 C          -1.2348    2.9182   25.9896 C.ar    1  UNL1        0.1690
      7 F          -1.2727    2.8179   27.4858 F       1  UNL1       -0.2017
      8 C          -0.0689    2.3584   25.2297 C.ar    1  UNL1        0.1689
      9 F           1.0590    1.6983   25.9661 F       1  UNL1       -0.2017
     10 C          -0.0309    2.4586   23.7336 C.ar    1  UNL1        0.0507
     11 C          -1.1588    3.1186   22.9973 C.ar    1  UNL1        0.0816
     12 C          -3.3395    4.5129   20.1049 C.ar    1  UNL1        0.0342
     13 C          -4.1575    3.5454   19.3020 C.ar    1  UNL1        0.0039
     14 C          -4.7868    3.9843   18.0130 C.ar    1  UNL1        0.0115
     15 C          -4.5981    5.3908   17.5270 C.ar    1  UNL1        0.0577
     16 CL         -5.2274    5.8297   16.2381 Cl      1  UNL1       -0.0822
     17 C          -3.7800    6.3583   18.3299 C.ar    1  UNL1        0.0115
     18 C          -3.1507    5.9193   19.6188 C.ar    1  UNL1        0.0039
     19 C          -0.4827    2.9663   20.4157 C.3     1  UNL1        0.1628
     20 C          -0.2783    3.8901   19.2519 C.3     1  UNL1        0.0297
     21 C          -0.7720    3.5012   17.8898 C.3     1  UNL1        0.0024
     22 C          -0.5676    4.4249   16.7258 C.3     1  UNL1        0.0001
     23 C           0.1306    5.7377   16.9239 C.3     1  UNL1        0.0000
     24 C           0.6243    6.1266   18.2858 C.3     1  UNL1        0.0001
     25 C           0.4199    5.2029   19.4498 C.3     1  UNL1        0.0024
     26 O          -0.2290    0.2199   20.5538 O.2     1  UNL1       -0.2731
     27 C           0.2273    1.6456   20.4587 C.2     1  UNL1        0.2431
     28 N           1.7254    1.5972   20.4016 N.am    1  UNL1       -0.3044
     29 H           2.2427    2.4323   20.3359 H       1  UNL1        0.1494
     30 C           2.4353    0.2766   20.4446 C.3     1  UNL1        0.0716
     31 C           2.8287   -0.3208   21.7631 C.3     1  UNL1        0.0196
     32 C           3.5386   -1.6416   21.8061 C.3     1  UNL1        0.0017
     33 C           3.8550   -2.3648   20.5307 C.3     1  UNL1        0.0001
     34 C           3.4616   -1.7674   19.2122 C.3     1  UNL1        0.0017
     35 C           2.7517   -0.4467   19.1692 C.3     1  UNL1        0.0196
@<TRIPOS>BOND
     1    26    27    2
     2    27    28   am
     3    28    30    1
     4    30    31    1
     5    31    32    1
     6    32    33    1
     7    33    34    1
     8    34    35    1
     9    27    19    1
    10    19    20    1
    11    20    21    1
    12    21    22    1
    13    22    23    1
    14    23    24    1
    15    24    25    1
    16    19     1    1
    17     1     2   ar
    18     2    12    1
    19    12    13   ar
    20    13    14   ar
    21    14    15   ar
    22    15    16    1
    23    15    17   ar
    24    17    18   ar
    25     2     3   ar
    26     3     4   ar
    27     4     5   ar
    28     5     6   ar
    29     6     7    1
    30     6     8   ar
    31     8     9    1
    32     8    10   ar
    33    10    11   ar
    34    35    30    1
    35    25    20    1
    36    11     1   ar
    37    18    12   ar
    38    11     4   ar
    39    28    29    1
@<TRIPOS>MOLECULE
*****
 35 39 0 0 0
SMALL
GASTEIGER

@<TRIPOS>ATOM
      1 N          -1.3889    3.2874   22.4402 N.ar    1  UNL1       -0.3047
      2 C          -1.4058    2.7633   21.0348 C.ar    1  UNL1        0.1441
      3 N          -2.8204    2.8131   20.5386 N.ar    1  UNL1       -0.2267
      4 C          -3.6778    3.3681   21.6372 C.ar    1  UNL1        0.1010
      5 C          -5.1499    3.6443   21.7192 C.ar    1  UNL1        0.0526
      6 C          -5.7371    4.2137   22.9765 C.ar    1  UNL1        0.1690
      7 F          -7.2092    4.4900   23.0585 F       1  UNL1       -0.2017
      8 C          -4.8524    4.5068   24.1518 C.ar    1  UNL1        0.1689
      9 F          -5.4397    5.0763   25.4091 F       1  UNL1       -0.2017
     10 C          -3.3804    4.2306   24.0698 C.ar    1  UNL1        0.0507
     11 C          -2.7931    3.6612   22.8125 C.ar    1  UNL1        0.0816
     12 C          -0.2168    2.2750   20.2616 C.ar    1  UNL1        0.0342
     13 C           0.5870    3.2355   19.4361 C.ar    1  UNL1        0.0039
     14 C           1.7759    2.7473   18.6629 C.ar    1  UNL1        0.0115
     15 C           2.1611    1.2985   18.7150 C.ar    1  UNL1        0.0577
     16 CL          3.3501    0.8103   17.9418 Cl      1  UNL1       -0.0822
     17 C           1.3574    0.3381   19.5405 C.ar    1  UNL1        0.0115
     18 C           0.1684    0.8263   20.3137 C.ar    1  UNL1        0.0039
     19 C          -0.1801    3.4153   23.3190 C.3     1  UNL1        0.1628
     20 C           0.7764    4.5531   23.1179 C.3     1  UNL1        0.0297
     21 C           0.3275    5.9629   23.3649 C.3     1  UNL1        0.0024
     22 C           1.2840    7.1008   23.1639 C.3     1  UNL1        0.0001
     23 C           2.6894    6.8288   22.7158 C.3     1  UNL1        0.0000
     24 C           3.1383    5.4191   22.4688 C.3     1  UNL1        0.0001
     25 C           2.1819    4.2812   22.6698 C.3     1  UNL1        0.0024
     26 O           0.3815    0.9376   24.4015 O.2     1  UNL1       -0.2731
     27 C           0.0723    2.4054   24.3991 C.2     1  UNL1        0.2431
     28 N           0.0373    2.8229   25.8394 N.am    1  UNL1       -0.3044
     29 H          -0.1514    3.7598   26.0759 H       1  UNL1        0.1494
     30 C           0.2896    1.8129   26.9193 C.3     1  UNL1        0.0716
     31 C           1.6962    1.4434   27.2866 C.3     1  UNL1        0.0196
     32 C           1.9487    0.4334   28.3666 C.3     1  UNL1        0.0017
     33 C           0.7945   -0.2071   29.0791 C.3     1  UNL1        0.0001
     34 C          -0.6121    0.1625   28.7118 C.3     1  UNL1        0.0017
     35 C          -0.8645    1.1725   27.6318 C.3     1  UNL1        0.0196
@<TRIPOS>BOND
     1    26    27    2
     2    27    28   am
     3    28    30    1
     4    30    31    1
     5    31    32    1
     6    32    33    1
     7    33    34    1
     8    34    35    1
     9    27    19    1
    10    19    20    1
    11    20    21    1
    12    21    22    1
    13    22    23    1
    14    23    24    1
    15    24    25    1
    16    19     1    1
    17     1     2   ar
    18     2    12    1
    19    12    13   ar
    20    13    14   ar
    21    14    15   ar
    22    15    16    1
    23    15    17   ar
    24    17    18   ar
    25     2     3   ar
    26     3     4   ar
    27     4     5   ar
    28     5     6   ar
    29     6     7    1
    30     6     8   ar
    31     8     9    1
    32     8    10   ar
    33    10    11   ar
    34    35    30    1
    35    25    20    1
    36    11     1   ar
    37    18    12   ar
    38    11     4   ar
    39    28    29    1
@<TRIPOS>MOLECULE
*****
 35 39 0 0 0
SMALL
GASTEIGER

@<TRIPOS>ATOM
      1 N           0.2855    2.5398   22.2342 N.ar    1  UNL1       -0.3047
      2 C           1.1945    1.3555   22.0888 C.ar    1  UNL1        0.1441
      3 N           1.2361    0.6387   23.4057 N.ar    1  UNL1       -0.2267
      4 C           0.3527    1.3798   24.3651 C.ar    1  UNL1        0.1010
      5 C           0.0074    1.1367   25.8043 C.ar    1  UNL1        0.0526
      6 C          -0.9255    2.0685   26.5195 C.ar    1  UNL1        0.1690
      7 F          -1.2708    1.8253   27.9589 F       1  UNL1       -0.2017
      8 C          -1.5129    3.2434   25.7955 C.ar    1  UNL1        0.1689
      9 F          -2.4458    4.1753   26.5108 F       1  UNL1       -0.2017
     10 C          -1.1676    3.4866   24.3562 C.ar    1  UNL1        0.0507
     11 C          -0.2348    2.5548   23.6410 C.ar    1  UNL1        0.0816
     12 C           1.9325    0.9579   20.8449 C.ar    1  UNL1        0.0342
     13 C           1.1989    0.2942   19.7174 C.ar    1  UNL1        0.0039
     14 C           1.9368   -0.1034   18.4735 C.ar    1  UNL1        0.0115
     15 C           3.4084    0.1628   18.3570 C.ar    1  UNL1        0.0577
     16 CL          4.1464   -0.2348   17.1131 Cl      1  UNL1       -0.0822
     17 C           4.1420    0.8265   19.4845 C.ar    1  UNL1        0.0115
     18 C           3.4041    1.2241   20.7284 C.ar    1  UNL1        0.0039
     19 C          -0.0452    3.5344   21.1612 C.3     1  UNL1        0.1628
     20 C           1.0398    4.0703   20.2750 C.3     1  UNL1        0.0297
     21 C           0.9556    3.8827   18.7891 C.3     1  UNL1        0.0024
     22 C           2.0407    4.4186   17.9027 C.3     1  UNL1        0.0001
     23 C           3.2099    5.1420   18.5024 C.3     1  UNL1        0.0000
     24 C           3.2941    5.3295   19.9882 C.3     1  UNL1        0.0001
     25 C           2.2091    4.7937   20.8745 C.3     1  UNL1        0.0024
     26 O          -2.1183    5.3391   20.8935 O.2     1  UNL1       -0.2731
     27 C          -1.4611    3.9932   20.9744 C.2     1  UNL1        0.2431
     28 N          -2.5621    2.9858   20.8222 N.am    1  UNL1       -0.3044
     29 H          -2.3554    2.0235   20.8449 H       1  UNL1        0.1494
     30 C          -3.9779    3.4447   20.6354 C.3     1  UNL1        0.0716
     31 C          -4.5289    3.6333   19.2531 C.3     1  UNL1        0.0196
     32 C          -5.9448    4.0922   19.0662 C.3     1  UNL1        0.0017
     33 C          -6.8096    4.3624   20.2617 C.3     1  UNL1        0.0001
     34 C          -6.2585    4.1737   21.6440 C.3     1  UNL1        0.0017
     35 C          -4.8427    3.7149   21.8308 C.3     1  UNL1        0.0196
@<TRIPOS>BOND
     1    26    27    2
     2    27    28   am
     3    28    30    1
     4    30    31    1
     5    31    32    1
     6    32    33    1
     7    33    34    1
     8    34    35    1
     9    27    19    1
    10    19    20    1
    11    20    21    1
    12    21    22    1
    13    22    23    1
    14    23    24    1
    15    24    25    1
    16    19     1    1
    17     1     2   ar
    18     2    12    1
    19    12    13   ar
    20    13    14   ar
    21    14    15   ar
    22    15    16    1
    23    15    17   ar
    24    17    18   ar
    25     2     3   ar
    26     3     4   ar
    27     4     5   ar
    28     5     6   ar
    29     6     7    1
    30     6     8   ar
    31     8     9    1
    32     8    10   ar
    33    10    11   ar
    34    35    30    1
    35    25    20    1
    36    11     1   ar
    37    18    12   ar
    38    11     4   ar
    39    28    29    1
@<TRIPOS>MOLECULE
*****
 35 39 0 0 0
SMALL
GASTEIGER

@<TRIPOS>ATOM
      1 N          -1.5273    3.1660   21.5254 N.ar    1  UNL1       -0.3047
      2 C          -1.2631    3.2953   22.9963 C.ar    1  UNL1        0.1441
      3 N          -2.5471    3.6880   23.6650 N.ar    1  UNL1       -0.2267
      4 C          -3.6048    3.8015   22.6074 C.ar    1  UNL1        0.1010
      5 C          -5.0604    4.1568   22.6777 C.ar    1  UNL1        0.0526
      6 C          -5.8856    4.1896   21.4256 C.ar    1  UNL1        0.1690
      7 F          -7.3413    4.5450   21.4959 F       1  UNL1       -0.2017
      8 C          -5.2554    3.8671   20.1033 C.ar    1  UNL1        0.1689
      9 F          -6.0807    3.8999   18.8511 F       1  UNL1       -0.2017
     10 C          -3.7998    3.5117   20.0330 C.ar    1  UNL1        0.0507
     11 C          -2.9745    3.4789   21.2851 C.ar    1  UNL1        0.0816
     12 C           0.0537    3.0711   23.6786 C.ar    1  UNL1        0.0342
     13 C           0.2777    1.8273   24.4865 C.ar    1  UNL1        0.0039
     14 C           1.5946    1.6032   25.1688 C.ar    1  UNL1        0.0115
     15 C           2.6875    2.6229   25.0433 C.ar    1  UNL1        0.0577
     16 CL          4.0044    2.3988   25.7256 Cl      1  UNL1       -0.0822
     17 C           2.4635    3.8667   24.2354 C.ar    1  UNL1        0.0115
     18 C           1.1466    4.0908   23.5530 C.ar    1  UNL1        0.0039
     19 C          -0.5210    2.7900   20.4786 C.3     1  UNL1        0.1628
     20 C          -0.2522    3.7159   19.3296 C.3     1  UNL1        0.0297
     21 C          -0.7003    3.3451   17.9468 C.3     1  UNL1        0.0024
     22 C          -0.4316    4.2711   16.7977 C.3     1  UNL1        0.0001
     23 C           0.2853    5.5679   17.0313 C.3     1  UNL1        0.0000
     24 C           0.7333    5.9387   18.4140 C.3     1  UNL1        0.0001
     25 C           0.4646    5.0127   19.5631 C.3     1  UNL1        0.0024
     26 O          -0.2078    0.0496   20.6155 O.2     1  UNL1       -0.2731
     27 C           0.2167    1.4878   20.5808 C.2     1  UNL1        0.2431
     28 N           1.7137    1.4794   20.6756 N.am    1  UNL1       -0.3044
     29 H           2.2121    2.3284   20.6707 H       1  UNL1        0.1494
     30 C           2.4513    0.1773   20.7778 C.3     1  UNL1        0.0716
     31 C           2.8287   -0.3672   22.1236 C.3     1  UNL1        0.0196
     32 C           3.5663   -1.6694   22.2259 C.3     1  UNL1        0.0017
     33 C           3.9265   -2.4270   20.9824 C.3     1  UNL1        0.0001
     34 C           3.5491   -1.8824   19.6366 C.3     1  UNL1        0.0017
     35 C           2.8115   -0.5803   19.5343 C.3     1  UNL1        0.0196
@<TRIPOS>BOND
     1    26    27    2
     2    27    28   am
     3    28    30    1
     4    30    31    1
     5    31    32    1
     6    32    33    1
     7    33    34    1
     8    34    35    1
     9    27    19    1
    10    19    20    1
    11    20    21    1
    12    21    22    1
    13    22    23    1
    14    23    24    1
    15    24    25    1
    16    19     1    1
    17     1     2   ar
    18     2    12    1
    19    12    13   ar
    20    13    14   ar
    21    14    15   ar
    22    15    16    1
    23    15    17   ar
    24    17    18   ar
    25     2     3   ar
    26     3     4   ar
    27     4     5   ar
    28     5     6   ar
    29     6     7    1
    30     6     8   ar
    31     8     9    1
    32     8    10   ar
    33    10    11   ar
    34    35    30    1
    35    25    20    1
    36    11     1   ar
    37    18    12   ar
    38    11     4   ar
    39    28    29    1
@<TRIPOS>MOLECULE
*****
 35 39 0 0 0
SMALL
GASTEIGER

@<TRIPOS>ATOM
      1 N           3.6792    0.4114   29.7702 N.ar    1  UNL1       -0.3047
      2 C           4.4551    0.4483   28.4871 C.ar    1  UNL1        0.1441
      3 N           5.5105   -0.6155   28.5529 N.ar    1  UNL1       -0.2267
      4 C           5.3869   -1.3099   29.8768 C.ar    1  UNL1        0.1010
      5 C           6.1587   -2.4380   30.4944 C.ar    1  UNL1        0.0526
      6 C           5.7986   -2.9315   31.8643 C.ar    1  UNL1        0.1690
      7 F           6.5705   -4.0598   32.4820 F       1  UNL1       -0.2017
      8 C           4.6668   -2.2968   32.6167 C.ar    1  UNL1        0.1689
      9 F           4.3067   -2.7904   33.9867 F       1  UNL1       -0.2017
     10 C           3.8950   -1.1687   31.9991 C.ar    1  UNL1        0.0507
     11 C           4.2550   -0.6752   30.6291 C.ar    1  UNL1        0.0816
     12 C           4.2174    1.3846   27.3395 C.ar    1  UNL1        0.0342
     13 C           4.8456    2.7467   27.3403 C.ar    1  UNL1        0.0039
     14 C           4.6079    3.6830   26.1928 C.ar    1  UNL1        0.0115
     15 C           3.7419    3.2572   25.0445 C.ar    1  UNL1        0.0577
     16 CL          3.5041    4.1935   23.8970 Cl      1  UNL1       -0.0822
     17 C           3.1136    1.8952   25.0437 C.ar    1  UNL1        0.0115
     18 C           3.3514    0.9589   26.1912 C.ar    1  UNL1        0.0039
     19 C           2.5292    1.3044   30.1312 C.3     1  UNL1        0.1628
     20 C           1.2925    1.3147   29.2826 C.3     1  UNL1        0.0297
     21 C           0.9102    2.5542   28.5290 C.3     1  UNL1        0.0024
     22 C          -0.3265    2.5646   27.6803 C.3     1  UNL1        0.0001
     23 C          -1.1811    1.3354   27.5852 C.3     1  UNL1        0.0000
     24 C          -0.7989    0.0960   28.3387 C.3     1  UNL1        0.0001
     25 C           0.4379    0.0857   29.1873 C.3     1  UNL1        0.0024
     26 O           3.5775    3.2469   31.7907 O.2     1  UNL1       -0.2731
     27 C           2.6161    2.1871   31.3409 C.2     1  UNL1        0.2431
     28 N           1.5744    2.0907   32.4160 N.am    1  UNL1       -0.3044
     29 H           0.8338    1.4482   32.3277 H       1  UNL1        0.1494
     30 C           1.6613    2.9734   33.6256 C.3     1  UNL1        0.0716
     31 C           0.9985    4.3191   33.6212 C.3     1  UNL1        0.0196
     32 C           1.0854    5.2019   34.8309 C.3     1  UNL1        0.0017
     33 C           1.8350    4.7390   36.0449 C.3     1  UNL1        0.0001
     34 C           2.4978    3.3934   36.0492 C.3     1  UNL1        0.0017
     35 C           2.4110    2.5106   34.8396 C.3     1  UNL1        0.0196
@<TRIPOS>BOND
     1    26    27    2
     2    27    28   am
     3    28    30    1
     4    30    31    1
     5    31    32    1
     6    32    33    1
     7    33    34    1
     8    34    35    1
     9    27    19    1
    10    19    20    1
    11    20    21    1
    12    21    22    1
    13    22    23    1
    14    23    24    1
    15    24    25    1
    16    19     1    1
    17     1     2   ar
    18     2    12    1
    19    12    13   ar
    20    13    14   ar
    21    14    15   ar
    22    15    16    1
    23    15    17   ar
    24    17    18   ar
    25     2     3   ar
    26     3     4   ar
    27     4     5   ar
    28     5     6   ar
    29     6     7    1
    30     6     8   ar
    31     8     9    1
    32     8    10   ar
    33    10    11   ar
    34    35    30    1
    35    25    20    1
    36    11     1   ar
    37    18    12   ar
    38    11     4   ar
    39    28    29    1
