@<TRIPOS>MOLECULE
*****
 27 29 0 0 0
SMALL
GASTEIGER

@<TRIPOS>ATOM
      1 C          -9.4046  -19.2960   21.8804 C.2     1  UNK1        0.0253
      2 C          -8.0558  -18.6967   22.1486 C.ar    1  UNK1        0.1135
      3 N          -7.8805  -17.7160   23.2699 N.ar    1  UNK1       -0.3163
      4 C          -6.5318  -17.1167   23.5380 C.ar    2  PHE2        0.2734
      5 O          -6.3564  -16.1359   24.6594 O.2     2  PHE2       -0.2656
      6 CA         -5.3585  -17.4981   22.6848 C.ar    2  PHE2        0.1156
      7 CB         -4.0098  -16.8988   22.9530 C.2     2  PHE2        0.0219
      8 N          -5.5339  -18.4788   21.5635 N.ar    2  PHE2       -0.3161
      9 C          -6.8826  -19.0781   21.2954 C.ar    1  UNK1        0.2732
     10 O          -7.0580  -20.0589   20.1740 O.2     1  UNK1       -0.2656
     11 H          -8.6505  -17.4656   23.8299 H       1  UNK1        0.1691
     12 H          -4.7639  -18.7292   21.0035 H       2  PHE2        0.1691
     13 CG         -2.8365  -17.2802   22.0998 C.ar    2  PHE2        0.0016
     14 CD1        -2.0192  -16.2160   21.4295 C.ar    2  PHE2        0.0000
     15 CE1        -0.8459  -16.5975   20.5763 C.ar    2  PHE2        0.0000
     16 CZ         -0.4900  -18.0431   20.3934 C.ar    2  PHE2        0.0000
     17 CE2        -1.3074  -19.1074   21.0637 C.ar    2  PHE2        0.0000
     18 CD2        -2.4807  -18.7259   21.9169 C.ar    2  PHE2        0.0000
     19 C         -11.5957  -17.8606   22.4128 C.2     1  UNK1        0.0642
     20 N         -12.5862  -17.8148   23.5383 N.2     1  UNK1       -0.2308
     21 C         -12.1805  -18.8405   24.5548 C.2     1  UNK1        0.1942
     22 N         -10.9393  -19.5203   24.0574 N.2     1  UNK1       -0.2418
     23 C         -10.5778  -18.9146   22.7336 C.3     1  UNK1        0.1641
     24 C         -11.5334  -15.7736   22.0376 C.3     1  UNK1        0.0057
     25 C         -11.6190  -17.0029   21.1824 C.3     1  UNK1        0.0339
     26 C         -11.7046  -18.2321   20.3271 C.3     1  UNK1        0.0057
     27 C         -11.6423  -16.1452   19.9519 C.3     1  UNK1        0.0057
@<TRIPOS>BOND
     1    24    25    1
     2    25    26    1
     3    25    27    1
     4    25    19    1
     5    19    20    2
     6    20    21    1
     7    21    22    2
     8    22    23    1
     9    23     1    1
    10     1     2    2
    11     2     3   ar
    12     3     4   ar
    13     4     5    2
    14     4     6   ar
    15     6     7    2
    16     7    13    1
    17    13    14   ar
    18    14    15   ar
    19    15    16   ar
    20    16    17   ar
    21    17    18   ar
    22     6     8   ar
    23     8     9   ar
    24     9    10    2
    25    23    19    1
    26     9     2   ar
    27    18    13   ar
    28     3    11    1
    29     8    12    1
@<TRIPOS>MOLECULE
*****
 27 29 0 0 0
SMALL
GASTEIGER

@<TRIPOS>ATOM
      1 C          -9.7920  -18.4086   21.1682 C.2     1  UNK1        0.0253
      2 C          -8.3993  -18.0892   21.6248 C.ar    1  UNK1        0.1135
      3 N          -8.1823  -17.3647   22.9201 N.ar    1  UNK1       -0.3163
      4 C          -6.7897  -17.0453   23.3766 C.ar    2  PHE2        0.2734
      5 O          -6.5726  -16.3207   24.6720 O.2     2  PHE2       -0.2656
      6 CA         -5.6140  -17.4505   22.5378 C.ar    2  PHE2        0.1156
      7 CB         -4.2212  -17.1311   22.9944 C.2     2  PHE2        0.0219
      8 N          -5.8309  -18.1751   21.2425 N.ar    2  PHE2       -0.3161
      9 C          -7.2236  -18.4944   20.7860 C.ar    1  UNK1        0.2732
     10 O          -7.4406  -19.2190   19.4906 O.2     1  UNK1       -0.2656
     11 H          -8.9540  -17.0987   23.4706 H       1  UNK1        0.1691
     12 H          -5.0593  -18.4410   20.6920 H       2  PHE2        0.1691
     13 CG         -3.0456  -17.5363   22.1556 C.ar    2  PHE2        0.0016
     14 CD1        -2.1626  -16.4883   21.5457 C.ar    2  PHE2        0.0000
     15 CE1        -0.9869  -16.8935   20.7069 C.ar    2  PHE2        0.0000
     16 CZ         -0.6942  -18.3468   20.4781 C.ar    2  PHE2        0.0000
     17 CE2        -1.5771  -19.3949   21.0880 C.ar    2  PHE2        0.0000
     18 CD2        -2.7528  -18.9896   21.9268 C.ar    2  PHE2        0.0000
     19 C         -11.3400  -18.5803   23.3405 C.2     1  UNK1        0.0642
     20 N         -12.5799  -17.8836   23.8172 N.2     1  UNK1       -0.2308
     21 C         -12.9739  -16.8761   22.7782 C.2     1  UNK1        0.1942
     22 N         -11.9775  -16.9501   21.6594 N.2     1  UNK1       -0.2418
     23 C         -10.9677  -18.0034   22.0069 C.3     1  UNK1        0.1641
     24 C         -10.2469  -18.6916   25.1551 C.3     1  UNK1        0.0057
     25 C         -10.6020  -19.6638   24.0695 C.3     1  UNK1        0.0339
     26 C         -10.9571  -20.6361   22.9840 C.3     1  UNK1        0.0057
     27 C          -9.8640  -20.7474   24.7985 C.3     1  UNK1        0.0057
@<TRIPOS>BOND
     1    24    25    1
     2    25    26    1
     3    25    27    1
     4    25    19    1
     5    19    20    2
     6    20    21    1
     7    21    22    2
     8    22    23    1
     9    23     1    1
    10     1     2    2
    11     2     3   ar
    12     3     4   ar
    13     4     5    2
    14     4     6   ar
    15     6     7    2
    16     7    13    1
    17    13    14   ar
    18    14    15   ar
    19    15    16   ar
    20    16    17   ar
    21    17    18   ar
    22     6     8   ar
    23     8     9   ar
    24     9    10    2
    25    23    19    1
    26     9     2   ar
    27    18    13   ar
    28     3    11    1
    29     8    12    1
@<TRIPOS>MOLECULE
*****
 27 29 0 0 0
SMALL
GASTEIGER

@<TRIPOS>ATOM
      1 C           3.7447   -1.0675   21.4989 C.2     1  UNK1        0.0253
      2 C           2.8251   -0.3412   22.4354 C.ar    1  UNK1        0.1135
      3 N           1.7865    0.5943   21.8914 N.ar    1  UNK1       -0.3163
      4 C           0.8670    1.3205   22.8280 C.ar    2  PHE2        0.2734
      5 O          -0.1717    2.2561   22.2840 O.2     2  PHE2       -0.2656
      6 CA          0.9861    1.1111   24.3085 C.ar    2  PHE2        0.1156
      7 CB          0.0665    1.8373   25.2451 C.2     2  PHE2        0.0219
      8 N           2.0247    0.1756   24.8525 N.ar    2  PHE2       -0.3161
      9 C           2.9442   -0.5506   23.9160 C.ar    1  UNK1        0.2732
     10 O           3.9829   -1.4862   24.4599 O.2     1  UNK1       -0.2656
     11 H           1.7083    0.7317   20.9197 H       1  UNK1        0.1691
     12 H           2.1029    0.0381   25.8242 H       2  PHE2        0.1691
     13 CG          0.1856    1.6280   26.7256 C.ar    2  PHE2        0.0016
     14 CD1        -0.6196    0.5563   27.3987 C.ar    2  PHE2        0.0000
     15 CE1        -0.5005    0.3470   28.8792 C.ar    2  PHE2        0.0000
     16 CZ          0.4239    1.2092   29.6867 C.ar    2  PHE2        0.0000
     17 CE2         1.2292    2.2809   29.0136 C.ar    2  PHE2        0.0000
     18 CD2         1.1101    2.4903   27.5330 C.ar    2  PHE2        0.0000
     19 C           4.0210   -1.8388   18.9545 C.2     1  UNK1        0.0642
     20 N           3.7299   -1.2181   17.6204 N.2     1  UNK1       -0.2308
     21 C           3.1545    0.1463   17.8596 C.2     1  UNK1        0.1942
     22 N           3.0900    0.3688   19.3416 N.2     1  UNK1       -0.2418
     23 C           3.6255   -0.8581   20.0183 C.3     1  UNK1        0.1641
     24 C           3.2247   -3.7868   19.2210 C.3     1  UNK1        0.0057
     25 C           4.6050   -3.2012   19.1845 C.3     1  UNK1        0.0339
     26 C           5.9855   -2.6156   19.1479 C.3     1  UNK1        0.0057
     27 C           5.1892   -4.5636   19.4144 C.3     1  UNK1        0.0057
@<TRIPOS>BOND
     1    24    25    1
     2    25    26    1
     3    25    27    1
     4    25    19    1
     5    19    20    2
     6    20    21    1
     7    21    22    2
     8    22    23    1
     9    23     1    1
    10     1     2    2
    11     2     3   ar
    12     3     4   ar
    13     4     5    2
    14     4     6   ar
    15     6     7    2
    16     7    13    1
    17    13    14   ar
    18    14    15   ar
    19    15    16   ar
    20    16    17   ar
    21    17    18   ar
    22     6     8   ar
    23     8     9   ar
    24     9    10    2
    25    23    19    1
    26     9     2   ar
    27    18    13   ar
    28     3    11    1
    29     8    12    1
@<TRIPOS>MOLECULE
*****
 27 29 0 0 0
SMALL
GASTEIGER

@<TRIPOS>ATOM
      1 C           1.3007    1.2066   25.3078 C.2     1  UNK1        0.0253
      2 C           1.5033    0.7369   23.8976 C.ar    1  UNK1        0.1135
      3 N           0.4913    1.0728   22.8426 N.ar    1  UNK1       -0.3163
      4 C           0.6939    0.6032   21.4326 C.ar    2  PHE2        0.2734
      5 O          -0.3181    0.9390   20.3775 O.2     2  PHE2       -0.2656
      6 CA          1.9084   -0.2023   21.0775 C.ar    2  PHE2        0.1156
      7 CB          2.1110   -0.6719   19.6673 C.2     2  PHE2        0.0219
      8 N           2.9204   -0.5381   22.1325 N.ar    2  PHE2       -0.3161
      9 C           2.7178   -0.0685   23.5425 C.ar    1  UNK1        0.2732
     10 O           3.7298   -0.4043   24.5976 O.2     1  UNK1       -0.2656
     11 H          -0.3059    1.6014   23.0757 H       1  UNK1        0.1691
     12 H           3.7176   -1.0667   21.8994 H       2  PHE2        0.1691
     13 CG          3.3255   -1.4773   19.3122 C.ar    2  PHE2        0.0016
     14 CD1         4.5606   -0.7902   18.8098 C.ar    2  PHE2        0.0000
     15 CE1         5.7751   -1.5956   18.4547 C.ar    2  PHE2        0.0000
     16 CZ          5.7547   -3.0882   18.6020 C.ar    2  PHE2        0.0000
     17 CE2         4.5196   -3.7754   19.1045 C.ar    2  PHE2        0.0000
     18 CD2         3.3050   -2.9700   19.4596 C.ar    2  PHE2        0.0000
     19 C          -0.4899    2.1793   27.0377 C.2     1  UNK1        0.0642
     20 N          -1.6977    3.0622   26.9301 N.2     1  UNK1       -0.2308
     21 C          -1.8681    3.4407   25.4886 C.2     1  UNK1        0.1942
     22 N          -0.7656    2.7916   24.7055 N.2     1  UNK1       -0.2418
     23 C           0.0862    2.0120   25.6629 C.3     1  UNK1        0.1641
     24 C           0.9355    2.7630   28.4963 C.3     1  UNK1        0.0057
     25 C           0.0475    1.5704   28.2989 C.3     1  UNK1        0.0339
     26 C          -0.8406    0.3778   28.1016 C.3     1  UNK1        0.0057
     27 C           0.5848    0.9615   29.5601 C.3     1  UNK1        0.0057
@<TRIPOS>BOND
     1    24    25    1
     2    25    26    1
     3    25    27    1
     4    25    19    1
     5    19    20    2
     6    20    21    1
     7    21    22    2
     8    22    23    1
     9    23     1    1
    10     1     2    2
    11     2     3   ar
    12     3     4   ar
    13     4     5    2
    14     4     6   ar
    15     6     7    2
    16     7    13    1
    17    13    14   ar
    18    14    15   ar
    19    15    16   ar
    20    16    17   ar
    21    17    18   ar
    22     6     8   ar
    23     8     9   ar
    24     9    10    2
    25    23    19    1
    26     9     2   ar
    27    18    13   ar
    28     3    11    1
    29     8    12    1
@<TRIPOS>MOLECULE
*****
 27 29 0 0 0
SMALL
GASTEIGER

@<TRIPOS>ATOM
      1 C           3.1418   -2.2372   19.7573 C.2     1  UNK1        0.0253
      2 C           3.9940   -2.5106   20.9611 C.ar    1  UNK1        0.1135
      3 N           4.3431   -1.3956   21.9018 N.ar    1  UNK1       -0.3163
      4 C           5.1954   -1.6690   23.1055 C.ar    2  PHE2        0.2734
      5 O           5.5445   -0.5540   24.0462 O.2     2  PHE2       -0.2656
      6 CA          5.6985   -3.0575   23.3685 C.ar    2  PHE2        0.1156
      7 CB          6.5508   -3.3308   24.5723 C.2     2  PHE2        0.0219
      8 N           5.3494   -4.1724   22.4278 N.ar    2  PHE2       -0.3161
      9 C           4.4972   -3.8990   21.2241 C.ar    1  UNK1        0.2732
     10 O           4.1480   -5.0140   20.2834 O.2     1  UNK1       -0.2656
     11 H           4.0129   -0.4844   21.7291 H       1  UNK1        0.1691
     12 H           5.6796   -5.0837   22.6005 H       2  PHE2        0.1691
     13 CG          7.0539   -4.7193   24.8353 C.ar    2  PHE2        0.0016
     14 CD1         7.8648   -5.4328   23.7946 C.ar    2  PHE2        0.0000
     15 CE1         8.3679   -6.8213   24.0576 C.ar    2  PHE2        0.0000
     16 CZ          8.0601   -7.4961   25.3613 C.ar    2  PHE2        0.0000
     17 CE2         7.2492   -6.7825   26.4022 C.ar    2  PHE2        0.0000
     18 CD2         6.7461   -5.3941   26.1391 C.ar    2  PHE2        0.0000
     19 C           3.3265    0.1962   18.6668 C.2     1  UNK1        0.0642
     20 N           2.4723    1.4293   18.6737 N.2     1  UNK1       -0.2308
     21 C           1.2565    1.1463   19.5054 C.2     1  UNK1        0.1942
     22 N           1.3594   -0.2616   20.0126 N.2     1  UNK1       -0.2418
     23 C           2.6387   -0.8488   19.4943 C.3     1  UNK1        0.1641
     24 C           5.3314    0.7553   19.0761 C.3     1  UNK1        0.0057
     25 C           4.6382    0.0363   17.9570 C.3     1  UNK1        0.0339
     26 C           3.9450   -0.6827   16.8378 C.3     1  UNK1        0.0057
     27 C           5.9499   -0.1236   17.2471 C.3     1  UNK1        0.0057
@<TRIPOS>BOND
     1    24    25    1
     2    25    26    1
     3    25    27    1
     4    25    19    1
     5    19    20    2
     6    20    21    1
     7    21    22    2
     8    22    23    1
     9    23     1    1
    10     1     2    2
    11     2     3   ar
    12     3     4   ar
    13     4     5    2
    14     4     6   ar
    15     6     7    2
    16     7    13    1
    17    13    14   ar
    18    14    15   ar
    19    15    16   ar
    20    16    17   ar
    21    17    18   ar
    22     6     8   ar
    23     8     9   ar
    24     9    10    2
    25    23    19    1
    26     9     2   ar
    27    18    13   ar
    28     3    11    1
    29     8    12    1
@<TRIPOS>MOLECULE
*****
 27 29 0 0 0
SMALL
GASTEIGER

@<TRIPOS>ATOM
      1 C           2.8862    2.5775   35.3073 C.2     1  UNK1        0.0253
      2 C           2.7723    1.8539   33.9982 C.ar    1  UNK1        0.1135
      3 N           3.6131    0.6395   33.7369 N.ar    1  UNK1       -0.3163
      4 C           3.4991   -0.0840   32.4279 C.ar    2  PHE2        0.2734
      5 O           4.3399   -1.2984   32.1665 O.2     2  PHE2       -0.2656
      6 CA          2.5443    0.4069   31.3803 C.ar    2  PHE2        0.1156
      7 CB          2.4304   -0.3167   30.0712 C.2     2  PHE2        0.0219
      8 N           1.7036    1.6212   31.6416 N.ar    2  PHE2       -0.3161
      9 C           1.8175    2.3447   32.9506 C.ar    1  UNK1        0.2732
     10 O           0.9767    3.5592   33.2120 O.2     1  UNK1       -0.2656
     11 H           4.2397    0.3174   34.4245 H       1  UNK1        0.1691
     12 H           1.0769    1.9434   30.9540 H       2  PHE2        0.1691
     13 CG          1.4756    0.1741   29.0236 C.ar    2  PHE2        0.0016
     14 CD1         1.9772    1.0127   27.8856 C.ar    2  PHE2        0.0000
     15 CE1         1.0224    1.5036   26.8380 C.ar    2  PHE2        0.0000
     16 CZ         -0.4339    1.1558   26.9284 C.ar    2  PHE2        0.0000
     17 CE2        -0.9355    0.3171   28.0664 C.ar    2  PHE2        0.0000
     18 CD2         0.0193   -0.1737   29.1140 C.ar    2  PHE2        0.0000
     19 C           3.5360    1.9110   37.8130 C.2     1  UNK1        0.0642
     20 N           4.7749    1.4010   38.4876 N.2     1  UNK1       -0.2308
     21 C           5.8456    1.2615   37.4464 C.2     1  UNK1        0.1942
     22 N           5.2684    1.6852   36.1284 N.2     1  UNK1       -0.2418
     23 C           3.8410    2.0866   36.3549 C.3     1  UNK1        0.1641
     24 C           2.4966    3.6674   38.3914 C.3     1  UNK1        0.0057
     25 C           2.2226    2.1953   38.4795 C.3     1  UNK1        0.0339
     26 C           1.9486    0.7232   38.5677 C.3     1  UNK1        0.0057
     27 C           0.9092    2.4796   39.1461 C.3     1  UNK1        0.0057
@<TRIPOS>BOND
     1    24    25    1
     2    25    26    1
     3    25    27    1
     4    25    19    1
     5    19    20    2
     6    20    21    1
     7    21    22    2
     8    22    23    1
     9    23     1    1
    10     1     2    2
    11     2     3   ar
    12     3     4   ar
    13     4     5    2
    14     4     6   ar
    15     6     7    2
    16     7    13    1
    17    13    14   ar
    18    14    15   ar
    19    15    16   ar
    20    16    17   ar
    21    17    18   ar
    22     6     8   ar
    23     8     9   ar
    24     9    10    2
    25    23    19    1
    26     9     2   ar
    27    18    13   ar
    28     3    11    1
    29     8    12    1
@<TRIPOS>MOLECULE
*****
 27 29 0 0 0
SMALL
GASTEIGER

@<TRIPOS>ATOM
      1 C           2.4870   -1.0554   19.7526 C.2     1  UNK1        0.0253
      2 C           2.4228   -0.6366   21.1916 C.ar    1  UNK1        0.1135
      3 N           3.3240   -1.2827   22.2017 N.ar    1  UNK1       -0.3163
      4 C           3.2599   -0.8638   23.6405 C.ar    2  PHE2        0.2734
      5 O           4.1611   -1.5099   24.6507 O.2     2  PHE2       -0.2656
      6 CA          2.2944    0.2011   24.0694 C.ar    2  PHE2        0.1156
      7 CB          2.2303    0.6199   25.5083 C.2     2  PHE2        0.0219
      8 N           1.3932    0.8472   23.0593 N.ar    2  PHE2       -0.3161
      9 C           1.4574    0.4284   21.6204 C.ar    1  UNK1        0.2732
     10 O           0.5561    1.0745   20.6103 O.2     1  UNK1       -0.2656
     11 H           3.9577   -1.9816   21.9202 H       1  UNK1        0.1691
     12 H           0.7596    1.5462   23.3407 H       2  PHE2        0.1691
     13 CG          1.2649    1.6849   25.9371 C.ar    2  PHE2        0.0016
     14 CD1         1.6896    3.1234   25.9442 C.ar    2  PHE2        0.0000
     15 CE1         0.7241    4.1884   26.3730 C.ar    2  PHE2        0.0000
     16 CZ         -0.6660    3.8147   26.7947 C.ar    2  PHE2        0.0000
     17 CE2        -1.0907    2.3761   26.7877 C.ar    2  PHE2        0.0000
     18 CD2        -0.1253    1.3112   26.3589 C.ar    2  PHE2        0.0000
     19 C           4.6350   -1.9268   18.4217 C.2     1  UNK1        0.0642
     20 N           5.3182   -3.2527   18.2621 N.2     1  UNK1       -0.2308
     21 C           4.5578   -4.2656   19.0658 C.2     1  UNK1        0.1942
     22 N           3.4047   -3.5658   19.7219 N.2     1  UNK1       -0.2418
     23 C           3.4524   -2.1203   19.3238 C.3     1  UNK1        0.1641
     24 C           4.0314   -0.8220   16.7143 C.3     1  UNK1        0.0057
     25 C           5.0599   -0.6344   17.7899 C.3     1  UNK1        0.0339
     26 C           6.0884   -0.4468   18.8654 C.3     1  UNK1        0.0057
     27 C           5.4848    0.6580   17.1581 C.3     1  UNK1        0.0057
@<TRIPOS>BOND
     1    24    25    1
     2    25    26    1
     3    25    27    1
     4    25    19    1
     5    19    20    2
     6    20    21    1
     7    21    22    2
     8    22    23    1
     9    23     1    1
    10     1     2    2
    11     2     3   ar
    12     3     4   ar
    13     4     5    2
    14     4     6   ar
    15     6     7    2
    16     7    13    1
    17    13    14   ar
    18    14    15   ar
    19    15    16   ar
    20    16    17   ar
    21    17    18   ar
    22     6     8   ar
    23     8     9   ar
    24     9    10    2
    25    23    19    1
    26     9     2   ar
    27    18    13   ar
    28     3    11    1
    29     8    12    1
@<TRIPOS>MOLECULE
*****
 27 29 0 0 0
SMALL
GASTEIGER

@<TRIPOS>ATOM
      1 C           2.9716   -1.2283   20.8100 C.2     1  UNK1        0.0253
      2 C           3.2653   -1.1863   22.2804 C.ar    1  UNK1        0.1135
      3 N           4.3278   -2.0732   22.8586 N.ar    1  UNK1       -0.3163
      4 C           4.6214   -2.0312   24.3290 C.ar    2  PHE2        0.2734
      5 O           5.6840   -2.9180   24.9073 O.2     2  PHE2       -0.2656
      6 CA          3.8524   -1.1023   25.2211 C.ar    2  PHE2        0.1156
      7 CB          4.1460   -1.0604   26.6916 C.2     2  PHE2        0.0219
      8 N           2.7898   -0.2155   24.6429 N.ar    2  PHE2       -0.3161
      9 C           2.4963   -0.2575   23.1725 C.ar    1  UNK1        0.2732
     10 O           1.4336    0.6294   22.5942 O.2     1  UNK1       -0.2656
     11 H           4.8326   -2.6828   22.2731 H       1  UNK1        0.1691
     12 H           2.2851    0.3941   25.2284 H       2  PHE2        0.1691
     13 CG          3.3770   -0.1315   27.5837 C.ar    2  PHE2        0.0016
     14 CD1         3.8059    1.2989   27.7252 C.ar    2  PHE2        0.0000
     15 CE1         3.0369    2.2277   28.6173 C.ar    2  PHE2        0.0000
     16 CZ          1.8390    1.7262   29.3679 C.ar    2  PHE2        0.0000
     17 CE2         1.4101    0.2957   29.2265 C.ar    2  PHE2        0.0000
     18 CD2         2.1791   -0.6331   28.3344 C.ar    2  PHE2        0.0000
     19 C           4.5694   -1.7571   18.7333 C.2     1  UNK1        0.0642
     20 N           5.1569   -3.0018   18.1370 N.2     1  UNK1       -0.2308
     21 C           4.6912   -4.1711   18.9530 C.2     1  UNK1        0.1942
     22 N           3.8159   -3.6491   20.0536 N.2     1  UNK1       -0.2418
     23 C           3.7406   -2.1571   19.9178 C.3     1  UNK1        0.1641
     24 C           5.9623   -0.2090   19.1367 C.3     1  UNK1        0.0057
     25 C           4.7747   -0.3581   18.2329 C.3     1  UNK1        0.0339
     26 C           3.5869   -0.5071   17.3290 C.3     1  UNK1        0.0057
     27 C           4.9799    1.0411   17.7324 C.3     1  UNK1        0.0057
@<TRIPOS>BOND
     1    24    25    1
     2    25    26    1
     3    25    27    1
     4    25    19    1
     5    19    20    2
     6    20    21    1
     7    21    22    2
     8    22    23    1
     9    23     1    1
    10     1     2    2
    11     2     3   ar
    12     3     4   ar
    13     4     5    2
    14     4     6   ar
    15     6     7    2
    16     7    13    1
    17    13    14   ar
    18    14    15   ar
    19    15    16   ar
    20    16    17   ar
    21    17    18   ar
    22     6     8   ar
    23     8     9   ar
    24     9    10    2
    25    23    19    1
    26     9     2   ar
    27    18    13   ar
    28     3    11    1
    29     8    12    1
@<TRIPOS>MOLECULE
*****
 27 29 0 0 0
SMALL
GASTEIGER

@<TRIPOS>ATOM
      1 C           7.1683   -3.7590   27.2601 C.2     1  UNK1        0.0253
      2 C           6.3859   -3.3616   26.0436 C.ar    1  UNK1        0.1135
      3 N           5.2958   -2.3373   26.1545 N.ar    1  UNK1       -0.3163
      4 C           4.5134   -1.9400   24.9380 C.ar    2  PHE2        0.2734
      5 O           3.4232   -0.9157   25.0488 O.2     2  PHE2       -0.2656
      6 CA          4.8211   -2.5671   23.6105 C.ar    2  PHE2        0.1156
      7 CB          4.0387   -2.1697   22.3939 C.2     2  PHE2        0.0219
      8 N           5.9112   -3.5914   23.4996 N.ar    2  PHE2       -0.3161
      9 C           6.6936   -3.9887   24.7161 C.ar    1  UNK1        0.2732
     10 O           7.7838   -5.0131   24.6053 O.2     1  UNK1       -0.2656
     11 H           5.0938   -1.9258   27.0257 H       1  UNK1        0.1691
     12 H           6.1132   -4.0030   22.6283 H       2  PHE2        0.1691
     13 CG          4.3464   -2.7968   21.0665 C.ar    2  PHE2        0.0016
     14 CD1         3.8472   -4.1765   20.7550 C.ar    2  PHE2        0.0000
     15 CE1         4.1550   -4.8036   19.4276 C.ar    2  PHE2        0.0000
     16 CZ          4.9619   -4.0509   18.4116 C.ar    2  PHE2        0.0000
     17 CE2         5.4612   -2.6711   18.7230 C.ar    2  PHE2        0.0000
     18 CD2         5.1534   -2.0440   20.0505 C.ar    2  PHE2        0.0000
     19 C           7.3042   -3.6408   29.9271 C.2     1  UNK1        0.0642
     20 N           6.7730   -2.7093   30.9760 N.2     1  UNK1       -0.2308
     21 C           6.0010   -1.6247   30.2847 C.2     1  UNK1        0.1942
     22 N           6.0552   -1.8860   28.8086 N.2     1  UNK1       -0.2418
     23 C           6.8606   -3.1319   28.5876 C.3     1  UNK1        0.1641
     24 C           9.3821   -4.0407   30.0764 C.3     1  UNK1        0.0057
     25 C           8.1335   -4.8660   30.1744 C.3     1  UNK1        0.0339
     26 C           6.8848   -5.6913   30.2724 C.3     1  UNK1        0.0057
     27 C           8.9627   -6.0913   30.4216 C.3     1  UNK1        0.0057
@<TRIPOS>BOND
     1    24    25    1
     2    25    26    1
     3    25    27    1
     4    25    19    1
     5    19    20    2
     6    20    21    1
     7    21    22    2
     8    22    23    1
     9    23     1    1
    10     1     2    2
    11     2     3   ar
    12     3     4   ar
    13     4     5    2
    14     4     6   ar
    15     6     7    2
    16     7    13    1
    17    13    14   ar
    18    14    15   ar
    19    15    16   ar
    20    16    17   ar
    21    17    18   ar
    22     6     8   ar
    23     8     9   ar
    24     9    10    2
    25    23    19    1
    26     9     2   ar
    27    18    13   ar
    28     3    11    1
    29     8    12    1
