@<TRIPOS>MOLECULE
*****
 24 27 0 0 0
SMALL
GASTEIGER

@<TRIPOS>ATOM
      1 C          -5.8810  -16.2006   24.1546 C.2     1  UNL1        0.3270
      2 N          -4.3945  -16.4004   24.1713 N.2     1  UNL1       -0.0380
      3 C          -4.0648  -17.5077   23.2145 C.2     1  UNL1        0.2637
      4 C          -2.7624  -18.1373   22.8183 C.2     1  UNL1        0.2821
      5 N          -2.7426  -19.2515   21.8141 N.2     1  UNL1       -0.0268
      6 C          -4.0255  -19.7359   21.2061 C.2     1  UNL1        0.3760
      7 N          -4.3165  -20.8082   20.1985 N.2     1  UNL1       -0.0306
      8 C          -5.7989  -20.8413   19.9719 C.2     1  UNL1        0.2361
      9 C          -6.4240  -19.7894   20.8395 C.2     1  UNL1        0.0583
     10 C          -5.3280  -19.1062   21.6023 C.2     1  UNL1        0.1203
     11 C          -5.3477  -17.9921   22.6065 C.3     1  UNL1        0.2596
     12 N          -6.4701  -17.1843   23.1875 N.pl3   1  UNL1       -0.1887
     13 C          -7.9260  -17.3339   22.8591 C.3     1  UNL1        0.1605
     14 C          -8.6982  -18.5051   23.3901 C.3     1  UNL1        0.0477
     15 C         -10.1542  -18.6547   23.0616 C.3     1  UNL1        0.0192
     16 C         -10.8379  -17.6330   22.2022 C.3     1  UNL1        0.0917
     17 C         -10.0658  -16.4618   21.6712 C.3     1  UNL1        0.0192
     18 C          -8.6099  -16.3122   21.9996 C.3     1  UNL1        0.0477
     19 C         -12.2938  -17.7826   21.8738 C.1     1  UNL1        0.0721
     20 N         -13.7498  -17.9321   21.5454 N.1     1  UNL1       -0.1959
     21 C          -6.6281  -15.2671   26.4612 C.3     1  UNL1        0.0450
     22 C          -6.6444  -15.1938   24.9631 C.3     1  UNL1        0.2165
     23 O          -7.4239  -14.1137   24.2734 O.3     1  UNL1       -0.3737
     24 H          -7.3289  -14.2095   23.3128 H       1  UNL1        0.2111
@<TRIPOS>BOND
     1    22    21    1
     2    22    23    1
     3    22     1    1
     4     1     2    2
     5     2     3    1
     6     3     4    2
     7     4     5    1
     8     5     6    2
     9     6     7    1
    10     7     8    2
    11     8     9    1
    12     9    10    2
    13    10    11    1
    14    11    12    1
    15    13    12    1
    16    13    14    1
    17    14    15    1
    18    15    16    1
    19    16    19    1
    20    19    20    3
    21    16    17    1
    22    17    18    1
    23    12     1    1
    24    18    13    1
    25    11     3    1
    26    10     6    1
    27    23    24    1
@<TRIPOS>MOLECULE
*****
 24 27 0 0 0
SMALL
GASTEIGER

@<TRIPOS>ATOM
      1 C         -11.2674  -17.6967   21.9099 C.2     1  UNL1        0.3270
      2 N         -11.4349  -18.5007   20.6547 N.2     1  UNL1       -0.0380
      3 C         -10.0929  -19.0536   20.2758 C.2     1  UNL1        0.2637
      4 C          -9.6498  -19.9182   19.1331 C.2     1  UNL1        0.2821
      5 N          -8.2099  -20.3205   19.0113 N.2     1  UNL1       -0.0268
      6 C          -7.2131  -19.8582   20.0324 C.2     1  UNL1        0.3760
      7 N          -5.7382  -20.0924   20.1730 N.2     1  UNL1       -0.0306
      8 C          -5.2698  -19.3725   21.4028 C.2     1  UNL1        0.2361
      9 C          -6.4551  -18.6934   22.0221 C.2     1  UNL1        0.0583
     10 C          -7.6562  -18.9935   21.1752 C.2     1  UNL1        0.1203
     11 C          -9.0961  -18.5912   21.2969 C.3     1  UNL1        0.2596
     12 N          -9.8220  -17.7526   22.3068 N.pl3   1  UNL1       -0.1887
     13 C          -9.2100  -17.0869   23.5035 C.3     1  UNL1        0.1605
     14 C          -9.4442  -17.6472   24.8751 C.3     1  UNL1        0.0477
     15 C          -8.8321  -16.9813   26.0718 C.3     1  UNL1        0.0192
     16 C          -7.9858  -15.7553   25.8969 C.3     1  UNL1        0.0917
     17 C          -7.7516  -15.1950   24.5253 C.3     1  UNL1        0.0192
     18 C          -8.3636  -15.8608   23.3287 C.3     1  UNL1        0.0477
     19 C          -7.3738  -15.0896   27.0936 C.1     1  UNL1        0.0721
     20 N          -6.7616  -14.4238   28.2903 N.1     1  UNL1       -0.1959
     21 C         -13.4415  -17.7333   23.3319 C.3     1  UNL1        0.0450
     22 C         -12.3546  -16.9653   22.6400 C.3     1  UNL1        0.2165
     23 O         -12.3549  -15.4658   22.6781 O.3     1  UNL1       -0.3737
     24 H         -11.5896  -15.1297   22.1857 H       1  UNL1        0.2111
@<TRIPOS>BOND
     1    22    21    1
     2    22    23    1
     3    22     1    1
     4     1     2    2
     5     2     3    1
     6     3     4    2
     7     4     5    1
     8     5     6    2
     9     6     7    1
    10     7     8    2
    11     8     9    1
    12     9    10    2
    13    10    11    1
    14    11    12    1
    15    13    12    1
    16    13    14    1
    17    14    15    1
    18    15    16    1
    19    16    19    1
    20    19    20    3
    21    16    17    1
    22    17    18    1
    23    12     1    1
    24    18    13    1
    25    11     3    1
    26    10     6    1
    27    23    24    1
@<TRIPOS>MOLECULE
*****
 24 27 0 0 0
SMALL
GASTEIGER

@<TRIPOS>ATOM
      1 C         -11.0245   -3.2144   18.3051 C.2     1  UNL1        0.3270
      2 N         -10.9063   -1.7192   18.3272 N.2     1  UNL1       -0.0380
      3 C         -12.2918   -1.1444   18.3107 C.2     1  UNL1        0.2637
      4 C         -12.7919    0.2696   18.3209 C.2     1  UNL1        0.2821
      5 N         -14.2665    0.5438   18.2989 N.2     1  UNL1       -0.0268
      6 C         -15.2409   -0.5961   18.2666 C.2     1  UNL1        0.3760
      7 N         -16.7401   -0.6345   18.2399 N.2     1  UNL1       -0.0306
      8 C         -17.1665   -2.0724   18.2132 C.2     1  UNL1        0.2361
      9 C         -15.9308   -2.9226   18.2234 C.2     1  UNL1        0.0583
     10 C         -14.7407   -2.0102   18.2564 C.2     1  UNL1        0.1203
     11 C         -13.2661   -2.2844   18.2784 C.3     1  UNL1        0.2596
     12 N         -12.4829   -3.5637   18.2750 N.pl3   1  UNL1       -0.1887
     13 C         -13.0573   -4.9490   18.2464 C.3     1  UNL1        0.1605
     14 C         -13.7619   -5.4939   19.4533 C.3     1  UNL1        0.0477
     15 C         -14.3363   -6.8793   19.4247 C.3     1  UNL1        0.0192
     16 C         -14.2060   -7.7198   18.1892 C.3     1  UNL1        0.0917
     17 C         -13.5014   -7.1750   16.9822 C.3     1  UNL1        0.0192
     18 C         -12.9270   -5.7896   17.0108 C.3     1  UNL1        0.0477
     19 C         -14.7804   -9.1052   18.1606 C.1     1  UNL1        0.0721
     20 N         -15.3548  -10.4906   18.1320 N.1     1  UNL1       -0.1959
     21 C          -9.2714   -4.6353   17.0177 C.3     1  UNL1        0.0450
     22 C          -9.8844   -4.1891   18.3119 C.3     1  UNL1        0.2165
     23 O          -9.3572   -4.7175   19.6130 O.3     1  UNL1       -0.3737
     24 H          -9.8607   -4.3313   20.3466 H       1  UNL1        0.2111
@<TRIPOS>BOND
     1    22    21    1
     2    22    23    1
     3    22     1    1
     4     1     2    2
     5     2     3    1
     6     3     4    2
     7     4     5    1
     8     5     6    2
     9     6     7    1
    10     7     8    2
    11     8     9    1
    12     9    10    2
    13    10    11    1
    14    11    12    1
    15    13    12    1
    16    13    14    1
    17    14    15    1
    18    15    16    1
    19    16    19    1
    20    19    20    3
    21    16    17    1
    22    17    18    1
    23    12     1    1
    24    18    13    1
    25    11     3    1
    26    10     6    1
    27    23    24    1
@<TRIPOS>MOLECULE
*****
 24 27 0 0 0
SMALL
GASTEIGER

@<TRIPOS>ATOM
      1 C          -6.0779  -16.1734   24.3543 C.2     1  UNL1        0.3270
      2 N          -4.6181  -16.3153   24.0397 N.2     1  UNL1       -0.0380
      3 C          -4.4682  -17.4000   23.0144 C.2     1  UNL1        0.2637
      4 C          -3.2635  -17.9747   22.3302 C.2     1  UNL1        0.2821
      5 N          -3.4258  -19.0779   21.3269 N.2     1  UNL1       -0.0268
      6 C          -4.7929  -19.6064   21.0078 C.2     1  UNL1        0.3760
      7 N          -5.2603  -20.6799   20.0703 N.2     1  UNL1       -0.0306
      8 C          -6.7540  -20.7686   20.1752 C.2     1  UNL1        0.2361
      9 C          -7.2097  -19.7499   21.1775 C.2     1  UNL1        0.0583
     10 C          -5.9976  -19.0316   21.6921 C.2     1  UNL1        0.1203
     11 C          -5.8353  -17.9284   22.6954 C.3     1  UNL1        0.2596
     12 N          -6.8301  -17.1704   23.5235 N.pl3   1  UNL1       -0.1887
     13 C          -8.3163  -17.3736   23.5212 C.3     1  UNL1        0.1605
     14 C          -9.1815  -16.5712   22.5952 C.3     1  UNL1        0.0477
     15 C         -10.6678  -16.7745   22.5929 C.3     1  UNL1        0.0192
     16 C         -11.2886  -17.7801   23.5165 C.3     1  UNL1        0.0917
     17 C         -10.4233  -18.5825   24.4425 C.3     1  UNL1        0.0192
     18 C          -8.9372  -18.3793   24.4448 C.3     1  UNL1        0.0477
     19 C         -12.7748  -17.9833   23.5142 C.1     1  UNL1        0.0721
     20 N         -14.2610  -18.1865   23.5119 N.1     1  UNL1       -0.1959
     21 C          -8.1638  -15.1833   25.5453 C.3     1  UNL1        0.0450
     22 C          -6.6797  -15.2047   25.3286 C.3     1  UNL1        0.2165
     23 O          -5.7974  -14.2573   26.0861 O.3     1  UNL1       -0.3737
     24 H          -4.8730  -14.4016   25.8302 H       1  UNL1        0.2111
@<TRIPOS>BOND
     1    22    21    1
     2    22    23    1
     3    22     1    1
     4     1     2    2
     5     2     3    1
     6     3     4    2
     7     4     5    1
     8     5     6    2
     9     6     7    1
    10     7     8    2
    11     8     9    1
    12     9    10    2
    13    10    11    1
    14    11    12    1
    15    13    12    1
    16    13    14    1
    17    14    15    1
    18    15    16    1
    19    16    19    1
    20    19    20    3
    21    16    17    1
    22    17    18    1
    23    12     1    1
    24    18    13    1
    25    11     3    1
    26    10     6    1
    27    23    24    1
@<TRIPOS>MOLECULE
*****
 24 27 0 0 0
SMALL
GASTEIGER

@<TRIPOS>ATOM
      1 C         -11.3854   -5.7176   18.4098 C.2     1  UNL1        0.3270
      2 N         -11.9127   -7.1101   18.5917 N.2     1  UNL1       -0.0380
      3 C         -13.4090   -7.0544   18.5025 C.2     1  UNL1        0.2637
      4 C         -14.4609   -8.1186   18.6065 C.2     1  UNL1        0.2821
      5 N         -15.9104   -7.7560   18.4735 N.2     1  UNL1       -0.0268
      6 C         -16.3078   -6.3291   18.2365 C.2     1  UNL1        0.3760
      7 N         -17.6470   -5.6754   18.0655 N.2     1  UNL1       -0.0306
      8 C         -17.4227   -4.2072   17.8558 C.2     1  UNL1        0.2361
      9 C         -15.9449   -3.9535   17.8972 C.2     1  UNL1        0.0583
     10 C         -15.2558   -5.2649   18.1325 C.2     1  UNL1        0.1203
     11 C         -13.8064   -5.6276   18.2655 C.3     1  UNL1        0.2596
     12 N         -12.5557   -4.8014   18.2082 N.pl3   1  UNL1       -0.1887
     13 C         -12.4874   -3.3193   17.9880 C.3     1  UNL1        0.1605
     14 C         -12.6352   -2.7590   16.6044 C.3     1  UNL1        0.0477
     15 C         -12.5669   -1.2768   16.3842 C.3     1  UNL1        0.0192
     16 C         -12.3508   -0.3549   17.5475 C.3     1  UNL1        0.0917
     17 C         -12.2030   -0.9152   18.9311 C.3     1  UNL1        0.0192
     18 C         -12.2713   -2.3973   19.1513 C.3     1  UNL1        0.0477
     19 C         -12.2825    1.1272   17.3273 C.1     1  UNL1        0.0721
     20 N         -12.2142    2.6095   17.1071 N.1     1  UNL1       -0.1959
     21 C          -9.2242   -5.0381   17.1379 C.3     1  UNL1        0.0450
     22 C          -9.9412   -5.3126   18.4265 C.3     1  UNL1        0.2165
     23 O          -9.2140   -5.1821   19.7320 O.3     1  UNL1       -0.3737
     24 H          -9.8179   -5.3932   20.4610 H       1  UNL1        0.2111
@<TRIPOS>BOND
     1    22    21    1
     2    22    23    1
     3    22     1    1
     4     1     2    2
     5     2     3    1
     6     3     4    2
     7     4     5    1
     8     5     6    2
     9     6     7    1
    10     7     8    2
    11     8     9    1
    12     9    10    2
    13    10    11    1
    14    11    12    1
    15    13    12    1
    16    13    14    1
    17    14    15    1
    18    15    16    1
    19    16    19    1
    20    19    20    3
    21    16    17    1
    22    17    18    1
    23    12     1    1
    24    18    13    1
    25    11     3    1
    26    10     6    1
    27    23    24    1
@<TRIPOS>MOLECULE
*****
 24 27 0 0 0
SMALL
GASTEIGER

@<TRIPOS>ATOM
      1 C         -11.2426   -5.8355   18.2559 C.2     1  UNL1        0.3270
      2 N         -10.4163   -4.5913   18.3944 N.2     1  UNL1       -0.0380
      3 C         -11.3514   -3.4225   18.4933 C.2     1  UNL1        0.2637
      4 C         -11.1057   -1.9505   18.6438 C.2     1  UNL1        0.2821
      5 N         -12.2641   -1.0003   18.7169 N.2     1  UNL1       -0.0268
      6 C         -13.6682   -1.5223   18.6395 C.2     1  UNL1        0.3760
      7 N         -14.9993   -0.8322   18.6837 N.2     1  UNL1       -0.0306
      8 C         -16.0677   -1.8778   18.5605 C.2     1  UNL1        0.2361
      9 C         -15.3969   -3.2141   18.4402 C.2     1  UNL1        0.0583
     10 C         -13.9139   -2.9943   18.4890 C.2     1  UNL1        0.1203
     11 C         -12.7555   -3.9445   18.4159 C.3     1  UNL1        0.2596
     12 N         -12.6883   -5.4358   18.2692 N.pl3   1  UNL1       -0.1887
     13 C         -13.8608   -6.3643   18.1557 C.3     1  UNL1        0.1605
     14 C         -14.6316   -6.7526   19.3826 C.3     1  UNL1        0.0477
     15 C         -15.8042   -7.6811   19.2690 C.3     1  UNL1        0.0192
     16 C         -16.2060   -8.2214   17.9287 C.3     1  UNL1        0.0917
     17 C         -15.4352   -7.8331   16.7018 C.3     1  UNL1        0.0192
     18 C         -14.2627   -6.9046   16.8153 C.3     1  UNL1        0.0477
     19 C         -17.3785   -9.1499   17.8152 C.1     1  UNL1        0.0721
     20 N         -18.5511  -10.0785   17.7017 N.1     1  UNL1       -0.1959
     21 C         -10.9311   -8.0024   16.8567 C.3     1  UNL1        0.0450
     22 C         -10.7156   -7.2340   18.1268 C.3     1  UNL1        0.2165
     23 O          -9.9732   -7.8640   19.2678 O.3     1  UNL1       -0.3737
     24 H          -9.9229   -7.2371   20.0063 H       1  UNL1        0.2111
@<TRIPOS>BOND
     1    22    21    1
     2    22    23    1
     3    22     1    1
     4     1     2    2
     5     2     3    1
     6     3     4    2
     7     4     5    1
     8     5     6    2
     9     6     7    1
    10     7     8    2
    11     8     9    1
    12     9    10    2
    13    10    11    1
    14    11    12    1
    15    13    12    1
    16    13    14    1
    17    14    15    1
    18    15    16    1
    19    16    19    1
    20    19    20    3
    21    16    17    1
    22    17    18    1
    23    12     1    1
    24    18    13    1
    25    11     3    1
    26    10     6    1
    27    23    24    1
@<TRIPOS>MOLECULE
*****
 24 27 0 0 0
SMALL
GASTEIGER

@<TRIPOS>ATOM
      1 C         -13.6595   -7.5974   18.3202 C.2     1  UNL1        0.3270
      2 N         -14.4487   -8.8618   18.4891 N.2     1  UNL1       -0.0380
      3 C         -15.8507   -8.4862   18.8676 C.2     1  UNL1        0.2637
      4 C         -17.0669   -9.3134   19.1614 C.2     1  UNL1        0.2821
      5 N         -18.3605   -8.6442   19.5202 N.2     1  UNL1       -0.0268
      6 C         -18.4378   -7.1476   19.5852 C.2     1  UNL1        0.3760
      7 N         -19.5664   -6.2140   19.9088 N.2     1  UNL1       -0.0306
      8 C         -19.0477   -4.8097   19.8149 C.2     1  UNL1        0.2361
      9 C         -17.5985   -4.8754   19.4333 C.2     1  UNL1        0.0583
     10 C         -17.2216   -6.3203   19.2914 C.2     1  UNL1        0.1203
     11 C         -15.9280   -6.9896   18.9326 C.3     1  UNL1        0.2596
     12 N         -14.5738   -6.4403   18.5943 N.pl3   1  UNL1       -0.1887
     13 C         -14.1996   -4.9888   18.5397 C.3     1  UNL1        0.1605
     14 C         -13.6115   -4.3200   19.7467 C.3     1  UNL1        0.0477
     15 C         -13.2373   -2.8684   19.6920 C.3     1  UNL1        0.0192
     16 C         -13.4511   -2.0857   18.4304 C.3     1  UNL1        0.0917
     17 C         -14.0392   -2.7546   17.2234 C.3     1  UNL1        0.0192
     18 C         -14.4134   -4.2061   17.2780 C.3     1  UNL1        0.0477
     19 C         -13.0769   -0.6342   18.3758 C.1     1  UNL1        0.0721
     20 N         -12.7026    0.8174   18.3211 N.1     1  UNL1       -0.1959
     21 C         -11.8124   -7.4704   16.4977 C.3     1  UNL1        0.0450
     22 C         -12.2105   -7.5062   17.9434 C.3     1  UNL1        0.2165
     23 O         -11.1597   -7.4509   19.0123 O.3     1  UNL1       -0.3737
     24 H         -11.5834   -7.4837   19.8843 H       1  UNL1        0.2111
@<TRIPOS>BOND
     1    22    21    1
     2    22    23    1
     3    22     1    1
     4     1     2    2
     5     2     3    1
     6     3     4    2
     7     4     5    1
     8     5     6    2
     9     6     7    1
    10     7     8    2
    11     8     9    1
    12     9    10    2
    13    10    11    1
    14    11    12    1
    15    13    12    1
    16    13    14    1
    17    14    15    1
    18    15    16    1
    19    16    19    1
    20    19    20    3
    21    16    17    1
    22    17    18    1
    23    12     1    1
    24    18    13    1
    25    11     3    1
    26    10     6    1
    27    23    24    1
@<TRIPOS>MOLECULE
*****
 24 27 0 0 0
SMALL
GASTEIGER

@<TRIPOS>ATOM
      1 C         -18.7197   -4.6477   19.8555 C.2     1  UNL1        0.3270
      2 N         -19.6870   -5.7895   19.9585 N.2     1  UNL1       -0.0380
      3 C         -18.9430   -7.0561   19.6550 C.2     1  UNL1        0.2637
      4 C         -19.3807   -8.4899   19.6056 C.2     1  UNL1        0.2821
      5 N         -18.3912   -9.5649   19.2657 N.2     1  UNL1       -0.0268
      6 C         -16.9641   -9.2059   18.9751 C.2     1  UNL1        0.3760
      7 N         -15.7724  -10.0421   18.6136 N.2     1  UNL1       -0.0306
      8 C         -14.5983   -9.1250   18.4395 C.2     1  UNL1        0.2361
      9 C         -15.0643   -7.7220   18.6934 C.2     1  UNL1        0.0583
     10 C         -16.5265   -7.7720   19.0244 C.2     1  UNL1        0.1203
     11 C         -17.5159   -6.6971   19.3644 C.3     1  UNL1        0.2596
     12 N         -17.3779   -5.2086   19.4883 N.pl3   1  UNL1       -0.1887
     13 C         -16.1191   -4.4196   19.2814 C.3     1  UNL1        0.1605
     14 C         -15.7704   -3.9085   17.9149 C.3     1  UNL1        0.0477
     15 C         -14.5116   -3.1194   17.7080 C.3     1  UNL1        0.0192
     16 C         -13.6015   -2.8415   18.8675 C.3     1  UNL1        0.0917
     17 C         -13.9502   -3.3527   20.2340 C.3     1  UNL1        0.0192
     18 C         -15.2090   -4.1417   20.4409 C.3     1  UNL1        0.0477
     19 C         -12.3427   -2.0525   18.6606 C.1     1  UNL1        0.0721
     20 N         -11.0839   -1.2634   18.4536 N.1     1  UNL1       -0.1959
     21 C         -19.1797   -2.2720   18.9097 C.3     1  UNL1        0.0450
     22 C         -19.0383   -3.1993   20.0803 C.3     1  UNL1        0.2165
     23 O         -19.2156   -2.6781   21.4756 O.3     1  UNL1       -0.3737
     24 H         -19.0919   -3.4020   22.1093 H       1  UNL1        0.2111
@<TRIPOS>BOND
     1    22    21    1
     2    22    23    1
     3    22     1    1
     4     1     2    2
     5     2     3    1
     6     3     4    2
     7     4     5    1
     8     5     6    2
     9     6     7    1
    10     7     8    2
    11     8     9    1
    12     9    10    2
    13    10    11    1
    14    11    12    1
    15    13    12    1
    16    13    14    1
    17    14    15    1
    18    15    16    1
    19    16    19    1
    20    19    20    3
    21    16    17    1
    22    17    18    1
    23    12     1    1
    24    18    13    1
    25    11     3    1
    26    10     6    1
    27    23    24    1
@<TRIPOS>MOLECULE
*****
 24 27 0 0 0
SMALL
GASTEIGER

@<TRIPOS>ATOM
      1 C           4.9383   -3.1064   20.3568 C.2     1  UNL1        0.3270
      2 N           5.6927   -3.8722   21.4030 N.2     1  UNL1       -0.0380
      3 C           5.4190   -3.2337   22.7325 C.2     1  UNL1        0.2637
      4 C           5.8913   -3.5590   24.1184 C.2     1  UNL1        0.2821
      5 N           5.4401   -2.7239   25.2800 N.2     1  UNL1       -0.0268
      6 C           4.5165   -1.5635   25.0554 C.2     1  UNL1        0.3760
      7 N           3.9076   -0.5683   25.9982 N.2     1  UNL1       -0.0306
      8 C           3.0589    0.3720   25.1948 C.2     1  UNL1        0.2361
      9 C           3.1433   -0.0420   23.7555 C.2     1  UNL1        0.0583
     10 C           4.0441   -1.2382   23.6694 C.2     1  UNL1        0.1203
     11 C           4.4954   -2.0733   22.5079 C.3     1  UNL1        0.2596
     12 N           4.1983   -1.9946   21.0397 N.pl3   1  UNL1       -0.1887
     13 C           3.3161   -0.9820   20.3717 C.3     1  UNL1        0.1605
     14 C           3.9257    0.1624   19.6175 C.3     1  UNL1        0.0477
     15 C           3.0434    1.1751   18.9494 C.3     1  UNL1        0.0192
     16 C           1.5517    1.0433   19.0356 C.3     1  UNL1        0.0917
     17 C           0.9422   -0.1012   19.7897 C.3     1  UNL1        0.0192
     18 C           1.8244   -1.1138   20.4578 C.3     1  UNL1        0.0477
     19 C           0.6696    2.0559   18.3675 C.1     1  UNL1        0.0721
     20 N          -0.2127    3.0685   17.6994 N.1     1  UNL1       -0.1959
     21 C           5.7781   -2.5930   17.9524 C.3     1  UNL1        0.0450
     22 C           4.9261   -3.4008   18.8861 C.3     1  UNL1        0.2165
     23 O           4.0619   -4.5029   18.3489 O.3     1  UNL1       -0.3737
     24 H           3.5801   -4.9211   19.0795 H       1  UNL1        0.2111
@<TRIPOS>BOND
     1    22    21    1
     2    22    23    1
     3    22     1    1
     4     1     2    2
     5     2     3    1
     6     3     4    2
     7     4     5    1
     8     5     6    2
     9     6     7    1
    10     7     8    2
    11     8     9    1
    12     9    10    2
    13    10    11    1
    14    11    12    1
    15    13    12    1
    16    13    14    1
    17    14    15    1
    18    15    16    1
    19    16    19    1
    20    19    20    3
    21    16    17    1
    22    17    18    1
    23    12     1    1
    24    18    13    1
    25    11     3    1
    26    10     6    1
    27    23    24    1
