@<TRIPOS>MOLECULE
*****
 27 29 0 0 0
SMALL
GASTEIGER

@<TRIPOS>ATOM
      1 C          -8.7567  -16.9844   22.8238 C.ar    1  UNL1        0.1357
      2 N         -10.0679  -16.3430   23.1690 N.ar    1  UNL1       -0.1992
      3 C         -11.2861  -16.6355   22.3441 C.ar    1  UNL1        0.2148
      4 N         -12.5974  -15.9941   22.6893 N.pl3   1  UNL1       -0.3274
      5 N         -11.1931  -17.5695   21.1740 N.ar    1  UNL1       -0.2138
      6 C          -9.8817  -18.2109   20.8288 C.ar    1  UNL1        0.0898
      7 C          -9.7887  -19.1448   19.6587 C.ar    1  UNL1        0.0195
      8 C          -8.4774  -19.7862   19.3136 C.ar    1  UNL1        0.0047
      9 C          -7.2592  -19.4936   20.1384 C.ar    1  UNL1        0.0371
     10 C          -7.3523  -18.5597   21.3085 C.ar    1  UNL1        0.1432
     11 C          -8.6635  -17.9183   21.6537 C.ar    1  UNL1        0.0831
     12 H         -12.6585  -15.3811   23.4573 H       1  UNL1        0.1452
     13 H         -13.3970  -16.1861   22.1479 H       1  UNL1        0.1452
     14 N          -7.5385  -16.6918   23.6487 N.pl3   1  UNL1       -0.3179
     15 H          -6.8018  -17.3438   23.6870 H       1  UNL1        0.1482
     16 C          -7.4427  -15.4060   24.4151 C.3     1  UNL1        0.0882
     17 C          -6.4166  -15.2532   25.4984 C.3     1  UNL1        0.0212
     18 C          -8.2127  -15.6957   27.3228 C.3     1  UNL1        0.0001
     19 C          -6.7730  -15.5741   26.9198 C.3     1  UNL1        0.0017
     20 O          -6.1341  -18.2672   22.1334 O.3     1  UNL1       -0.4688
     21 C          -4.8927  -19.0901   21.9557 C.3     1  UNL1        0.2508
     22 C          -3.7380  -18.5453   21.1683 C.ar    1  UNL1        0.1026
     23 C          -3.4047  -19.1266   19.8262 C.ar    1  UNL1        0.0185
     24 C          -2.2501  -18.5818   19.0388 C.ar    1  UNL1        0.0029
     25 C          -1.4287  -17.4558   19.5935 C.ar    1  UNL1        0.0207
     26 C          -1.7621  -16.8746   20.9355 C.ar    1  UNL1        0.0986
     27 N          -2.9167  -17.4193   21.7229 N.ar    1  UNL1       -0.2445
@<TRIPOS>BOND
     1    18    19    1
     2    19    17    1
     3    17    16    1
     4    16    14    1
     5    14     1    1
     6     1     2   ar
     7     2     3   ar
     8     3     4    1
     9     3     5   ar
    10     5     6   ar
    11     6     7   ar
    12     7     8   ar
    13     8     9   ar
    14     9    10   ar
    15    10    20    1
    16    20    21    1
    17    21    22    1
    18    22    23   ar
    19    23    24   ar
    20    24    25   ar
    21    25    26   ar
    22    26    27   ar
    23    10    11   ar
    24    11     1   ar
    25    11     6   ar
    26    27    22   ar
    27    14    15    1
    28     4    12    1
    29     4    13    1
@<TRIPOS>MOLECULE
*****
 27 29 0 0 0
SMALL
GASTEIGER

@<TRIPOS>ATOM
      1 C          -4.6583  -17.3573   22.5440 C.ar    1  UNL1        0.1357
      2 N          -3.2871  -16.7773   22.3613 N.ar    1  UNL1       -0.1992
      3 C          -2.3134  -17.4334   21.4278 C.ar    1  UNL1        0.2148
      4 N          -0.9422  -16.8533   21.2452 N.pl3   1  UNL1       -0.3274
      5 N          -2.7109  -18.6696   20.6770 N.ar    1  UNL1       -0.2138
      6 C          -4.0822  -19.2497   20.8596 C.ar    1  UNL1        0.0898
      7 C          -4.4797  -20.4858   20.1087 C.ar    1  UNL1        0.0195
      8 C          -5.8508  -21.0659   20.2913 C.ar    1  UNL1        0.0047
      9 C          -6.8245  -20.4097   21.2248 C.ar    1  UNL1        0.0371
     10 C          -6.4270  -19.1736   21.9757 C.ar    1  UNL1        0.1432
     11 C          -5.0559  -18.5935   21.7931 C.ar    1  UNL1        0.0831
     12 H          -0.6813  -16.0419   21.7381 H       1  UNL1        0.1452
     13 H          -0.3031  -17.2839   20.6325 H       1  UNL1        0.1452
     14 N          -5.6320  -16.7012   23.4775 N.pl3   1  UNL1       -0.3179
     15 H          -6.5613  -17.0227   23.5251 H       1  UNL1        0.1482
     16 C          -5.1898  -15.5553   24.3385 C.3     1  UNL1        0.0882
     17 C          -5.8282  -15.3333   25.6775 C.3     1  UNL1        0.0212
     18 C          -7.9058  -15.5463   27.2230 C.3     1  UNL1        0.0001
     19 C          -7.3034  -15.5440   25.8493 C.3     1  UNL1        0.0017
     20 O          -7.4007  -18.5175   22.9092 O.3     1  UNL1       -0.4688
     21 C          -8.8153  -19.0104   22.9853 C.3     1  UNL1        0.2508
     22 C          -9.9411  -18.1330   22.5241 C.ar    1  UNL1        0.1026
     23 C         -11.2933  -18.2499   23.1629 C.ar    1  UNL1        0.0185
     24 C         -12.4191  -17.3725   22.7017 C.ar    1  UNL1        0.0029
     25 C         -12.1927  -16.3781   21.6017 C.ar    1  UNL1        0.0207
     26 C         -10.8406  -16.2612   20.9629 C.ar    1  UNL1        0.0986
     27 N          -9.7148  -17.1386   21.4241 N.ar    1  UNL1       -0.2445
@<TRIPOS>BOND
     1    18    19    1
     2    19    17    1
     3    17    16    1
     4    16    14    1
     5    14     1    1
     6     1     2   ar
     7     2     3   ar
     8     3     4    1
     9     3     5   ar
    10     5     6   ar
    11     6     7   ar
    12     7     8   ar
    13     8     9   ar
    14     9    10   ar
    15    10    20    1
    16    20    21    1
    17    21    22    1
    18    22    23   ar
    19    23    24   ar
    20    24    25   ar
    21    25    26   ar
    22    26    27   ar
    23    10    11   ar
    24    11     1   ar
    25    11     6   ar
    26    27    22   ar
    27    14    15    1
    28     4    12    1
    29     4    13    1
@<TRIPOS>MOLECULE
*****
 27 29 0 0 0
SMALL
GASTEIGER

@<TRIPOS>ATOM
      1 C         -10.4399  -18.4935   23.8562 C.ar    1  UNL1        0.1357
      2 N         -11.7889  -18.2111   24.4481 N.ar    1  UNL1       -0.1992
      3 C         -13.0004  -18.1632   23.5648 C.ar    1  UNL1        0.2148
      4 N         -14.3494  -17.8807   24.1568 N.pl3   1  UNL1       -0.3274
      5 N         -12.8628  -18.3978   22.0897 N.ar    1  UNL1       -0.2138
      6 C         -11.5138  -18.6802   21.4977 C.ar    1  UNL1        0.0898
      7 C         -11.3762  -18.9148   20.0226 C.ar    1  UNL1        0.0195
      8 C         -10.0272  -19.1973   19.4308 C.ar    1  UNL1        0.0047
      9 C          -8.8158  -19.2452   20.3140 C.ar    1  UNL1        0.0371
     10 C          -8.9533  -19.0106   21.7891 C.ar    1  UNL1        0.1432
     11 C         -10.3023  -18.7281   22.3810 C.ar    1  UNL1        0.0831
     12 H         -14.4397  -17.7268   25.1250 H       1  UNL1        0.1452
     13 H         -15.1446  -17.8493   23.5771 H       1  UNL1        0.1452
     14 N          -9.2285  -18.5414   24.7394 N.pl3   1  UNL1       -0.3179
     15 H          -8.4364  -19.0557   24.4611 H       1  UNL1        0.1482
     16 C          -9.2238  -17.8058   26.0466 C.3     1  UNL1        0.0882
     17 C          -8.4764  -16.5117   26.1763 C.3     1  UNL1        0.0212
     18 C          -7.6160  -15.0642   24.1977 C.3     1  UNL1        0.0001
     19 C          -8.6968  -15.4149   25.1770 C.3     1  UNL1        0.0017
     20 O          -7.7419  -19.0585   22.6723 O.3     1  UNL1       -0.4688
     21 C          -6.5568  -18.1909   22.3677 C.3     1  UNL1        0.2508
     22 C          -5.2804  -18.8091   21.8794 C.ar    1  UNL1        0.1026
     23 C          -5.2915  -19.6964   20.6699 C.ar    1  UNL1        0.0185
     24 C          -4.0150  -20.3147   20.1816 C.ar    1  UNL1        0.0029
     25 C          -2.7275  -20.0457   20.9028 C.ar    1  UNL1        0.0207
     26 C          -2.7165  -19.1585   22.1122 C.ar    1  UNL1        0.0986
     27 N          -3.9929  -18.5402   22.6005 N.ar    1  UNL1       -0.2445
@<TRIPOS>BOND
     1    18    19    1
     2    19    17    1
     3    17    16    1
     4    16    14    1
     5    14     1    1
     6     1     2   ar
     7     2     3   ar
     8     3     4    1
     9     3     5   ar
    10     5     6   ar
    11     6     7   ar
    12     7     8   ar
    13     8     9   ar
    14     9    10   ar
    15    10    20    1
    16    20    21    1
    17    21    22    1
    18    22    23   ar
    19    23    24   ar
    20    24    25   ar
    21    25    26   ar
    22    26    27   ar
    23    10    11   ar
    24    11     1   ar
    25    11     6   ar
    26    27    22   ar
    27    14    15    1
    28     4    12    1
    29     4    13    1
@<TRIPOS>MOLECULE
*****
 27 29 0 0 0
SMALL
GASTEIGER

@<TRIPOS>ATOM
      1 C         -15.0308   -8.4222   18.9886 C.ar    1  UNL1        0.1357
      2 N         -15.3815   -9.8778   18.8992 N.ar    1  UNL1       -0.1992
      3 C         -16.8120  -10.3133   19.0173 C.ar    1  UNL1        0.2148
      4 N         -17.1627  -11.7690   18.9278 N.pl3   1  UNL1       -0.3274
      5 N         -17.8919   -9.2931   19.2248 N.ar    1  UNL1       -0.2138
      6 C         -17.5412   -7.8373   19.3142 C.ar    1  UNL1        0.0898
      7 C         -18.6210   -6.8171   19.5217 C.ar    1  UNL1        0.0195
      8 C         -18.2703   -5.3615   19.6111 C.ar    1  UNL1        0.0047
      9 C         -16.8398   -4.9260   19.4930 C.ar    1  UNL1        0.0371
     10 C         -15.7599   -5.9462   19.2855 C.ar    1  UNL1        0.1432
     11 C         -16.1106   -7.4019   19.1961 C.ar    1  UNL1        0.0831
     12 H         -16.4540  -12.4386   18.7917 H       1  UNL1        0.1452
     13 H         -18.1016  -12.0548   19.0053 H       1  UNL1        0.1452
     14 N         -13.6002   -7.9867   18.8705 N.pl3   1  UNL1       -0.3179
     15 H         -13.0987   -7.7205   19.6748 H       1  UNL1        0.1482
     16 C         -12.9338   -7.9569   17.5271 C.3     1  UNL1        0.0882
     17 C         -11.4642   -7.6745   17.4250 C.3     1  UNL1        0.0212
     18 C          -9.2567   -7.6420   18.7947 C.3     1  UNL1        0.0001
     19 C         -10.6960   -7.2486   18.6410 C.3     1  UNL1        0.0017
     20 O         -14.3294   -5.5108   19.1674 O.3     1  UNL1       -0.4688
     21 C         -13.9684   -4.3521   18.2859 C.3     1  UNL1        0.2508
     22 C         -12.5458   -4.1528   17.8542 C.ar    1  UNL1        0.1026
     23 C         -11.5019   -3.7747   18.8629 C.ar    1  UNL1        0.0185
     24 C         -10.0792   -3.5754   18.4311 C.ar    1  UNL1        0.0029
     25 C          -9.7005   -3.7542   16.9907 C.ar    1  UNL1        0.0207
     26 C         -10.7444   -4.1323   15.9821 C.ar    1  UNL1        0.0986
     27 N         -12.1671   -4.3316   16.4139 N.ar    1  UNL1       -0.2445
@<TRIPOS>BOND
     1    18    19    1
     2    19    17    1
     3    17    16    1
     4    16    14    1
     5    14     1    1
     6     1     2   ar
     7     2     3   ar
     8     3     4    1
     9     3     5   ar
    10     5     6   ar
    11     6     7   ar
    12     7     8   ar
    13     8     9   ar
    14     9    10   ar
    15    10    20    1
    16    20    21    1
    17    21    22    1
    18    22    23   ar
    19    23    24   ar
    20    24    25   ar
    21    25    26   ar
    22    26    27   ar
    23    10    11   ar
    24    11     1   ar
    25    11     6   ar
    26    27    22   ar
    27    14    15    1
    28     4    12    1
    29     4    13    1
@<TRIPOS>MOLECULE
*****
 27 29 0 0 0
SMALL
GASTEIGER

@<TRIPOS>ATOM
      1 C          -7.3275  -17.9655   21.8731 C.ar    1  UNL1        0.1357
      2 N          -5.9408  -18.2137   22.3880 N.ar    1  UNL1       -0.1992
      3 C          -5.1107  -19.3186   21.8047 C.ar    1  UNL1        0.2148
      4 N          -3.7239  -19.5668   22.3197 N.pl3   1  UNL1       -0.3274
      5 N          -5.6674  -20.1752   20.7065 N.ar    1  UNL1       -0.2138
      6 C          -7.0543  -19.9270   20.1915 C.ar    1  UNL1        0.0898
      7 C          -7.6110  -20.7836   19.0932 C.ar    1  UNL1        0.0195
      8 C          -8.9977  -20.5354   18.5783 C.ar    1  UNL1        0.0047
      9 C          -9.8278  -19.4305   19.1616 C.ar    1  UNL1        0.0371
     10 C          -9.2711  -18.5739   20.2598 C.ar    1  UNL1        0.1432
     11 C          -7.8843  -18.8221   20.7748 C.ar    1  UNL1        0.0831
     12 H          -3.3585  -19.0046   23.0406 H       1  UNL1        0.1452
     13 H          -3.1791  -20.2920   21.9369 H       1  UNL1        0.1452
     14 N          -8.1576  -16.8606   22.4564 N.pl3   1  UNL1       -0.3179
     15 H          -8.5581  -16.1818   21.8665 H       1  UNL1        0.1482
     16 C          -8.3774  -16.7900   23.9385 C.3     1  UNL1        0.0882
     17 C          -8.4953  -15.4572   24.6165 C.3     1  UNL1        0.0212
     18 C          -8.3679  -16.6125   26.9401 C.3     1  UNL1        0.0001
     19 C          -8.3890  -15.3634   26.1099 C.3     1  UNL1        0.0017
     20 O         -10.1011  -17.4690   20.8431 O.3     1  UNL1       -0.4688
     21 C         -11.5738  -17.6659   21.0491 C.3     1  UNL1        0.2508
     22 C         -12.1006  -18.0161   22.4091 C.ar    1  UNL1        0.1026
     23 C         -13.4932  -17.6179   22.7994 C.ar    1  UNL1        0.0185
     24 C         -14.0201  -17.9681   24.1595 C.ar    1  UNL1        0.0029
     25 C         -13.1544  -18.7167   25.1292 C.ar    1  UNL1        0.0207
     26 C         -11.7619  -19.1150   24.7389 C.ar    1  UNL1        0.0986
     27 N         -11.2350  -18.7647   23.3789 N.ar    1  UNL1       -0.2445
@<TRIPOS>BOND
     1    18    19    1
     2    19    17    1
     3    17    16    1
     4    16    14    1
     5    14     1    1
     6     1     2   ar
     7     2     3   ar
     8     3     4    1
     9     3     5   ar
    10     5     6   ar
    11     6     7   ar
    12     7     8   ar
    13     8     9   ar
    14     9    10   ar
    15    10    20    1
    16    20    21    1
    17    21    22    1
    18    22    23   ar
    19    23    24   ar
    20    24    25   ar
    21    25    26   ar
    22    26    27   ar
    23    10    11   ar
    24    11     1   ar
    25    11     6   ar
    26    27    22   ar
    27    14    15    1
    28     4    12    1
    29     4    13    1
@<TRIPOS>MOLECULE
*****
 27 29 0 0 0
SMALL
GASTEIGER

@<TRIPOS>ATOM
      1 C          -8.8520  -16.8549   21.7861 C.ar    1  UNL1        0.1357
      2 N          -9.9469  -16.0675   22.4427 N.ar    1  UNL1       -0.1992
      3 C         -11.3822  -16.4006   22.1622 C.ar    1  UNL1        0.2148
      4 N         -12.4771  -15.6131   22.8189 N.pl3   1  UNL1       -0.3274
      5 N         -11.7228  -17.5213   21.2251 N.ar    1  UNL1       -0.2138
      6 C         -10.6279  -18.3088   20.5685 C.ar    1  UNL1        0.0898
      7 C         -10.9685  -19.4295   19.6314 C.ar    1  UNL1        0.0195
      8 C          -9.8736  -20.2169   18.9748 C.ar    1  UNL1        0.0047
      9 C          -8.4382  -19.8838   19.2553 C.ar    1  UNL1        0.0371
     10 C          -8.0977  -18.7631   20.1924 C.ar    1  UNL1        0.1432
     11 C          -9.1925  -17.9756   20.8490 C.ar    1  UNL1        0.0831
     12 H         -12.2536  -14.8776   23.4339 H       1  UNL1        0.1452
     13 H         -13.4192  -15.8318   22.6348 H       1  UNL1        0.1452
     14 N          -7.4166  -16.5218   22.0665 N.pl3   1  UNL1       -0.3179
     15 H          -6.8587  -16.1173   21.3634 H       1  UNL1        0.1482
     16 C          -6.8313  -16.8049   23.4183 C.3     1  UNL1        0.0882
     17 C          -5.3954  -17.2208   23.5416 C.3     1  UNL1        0.0212
     18 C          -3.0115  -16.5724   22.7373 C.3     1  UNL1        0.0001
     19 C          -4.3044  -16.2009   23.4011 C.3     1  UNL1        0.0017
     20 O          -6.6623  -18.4299   20.4728 O.3     1  UNL1       -0.4688
     21 C          -5.6170  -19.5038   20.4099 C.3     1  UNL1        0.2508
     22 C          -4.1715  -19.1352   20.2523 C.ar    1  UNL1        0.1026
     23 C          -3.1311  -19.7979   21.1058 C.ar    1  UNL1        0.0185
     24 C          -1.6857  -19.4292   20.9482 C.ar    1  UNL1        0.0029
     25 C          -1.2807  -18.3979   19.9371 C.ar    1  UNL1        0.0207
     26 C          -2.3211  -17.7353   19.0836 C.ar    1  UNL1        0.0986
     27 N          -3.7665  -18.1039   19.2412 N.ar    1  UNL1       -0.2445
@<TRIPOS>BOND
     1    18    19    1
     2    19    17    1
     3    17    16    1
     4    16    14    1
     5    14     1    1
     6     1     2   ar
     7     2     3   ar
     8     3     4    1
     9     3     5   ar
    10     5     6   ar
    11     6     7   ar
    12     7     8   ar
    13     8     9   ar
    14     9    10   ar
    15    10    20    1
    16    20    21    1
    17    21    22    1
    18    22    23   ar
    19    23    24   ar
    20    24    25   ar
    21    25    26   ar
    22    26    27   ar
    23    10    11   ar
    24    11     1   ar
    25    11     6   ar
    26    27    22   ar
    27    14    15    1
    28     4    12    1
    29     4    13    1
@<TRIPOS>MOLECULE
*****
 27 29 0 0 0
SMALL
GASTEIGER

@<TRIPOS>ATOM
      1 C          -9.4410  -18.0815   23.0168 C.ar    1  UNL1        0.1357
      2 N         -10.8150  -17.8455   23.5701 N.ar    1  UNL1       -0.1992
      3 C         -12.0228  -18.2267   22.7664 C.ar    1  UNL1        0.2148
      4 N         -13.3970  -17.9907   23.3198 N.pl3   1  UNL1       -0.3274
      5 N         -11.8566  -18.8439   21.4095 N.ar    1  UNL1       -0.2138
      6 C         -10.4824  -19.0800   20.8561 C.ar    1  UNL1        0.0898
      7 C         -10.3162  -19.6972   19.4992 C.ar    1  UNL1        0.0195
      8 C          -8.9421  -19.9332   18.9459 C.ar    1  UNL1        0.0047
      9 C          -7.7343  -19.5520   19.7496 C.ar    1  UNL1        0.0371
     10 C          -7.9006  -18.9348   21.1065 C.ar    1  UNL1        0.1432
     11 C          -9.2746  -18.6988   21.6598 C.ar    1  UNL1        0.0831
     12 H         -13.5061  -17.5856   24.2104 H       1  UNL1        0.1452
     13 H         -14.1897  -18.2408   22.7923 H       1  UNL1        0.1452
     14 N          -8.2332  -17.7003   23.8205 N.pl3   1  UNL1       -0.3179
     15 H          -7.6352  -18.3990   24.1719 H       1  UNL1        0.1482
     16 C          -7.9365  -16.2547   24.0887 C.3     1  UNL1        0.0882
     17 C          -7.6371  -15.3265   22.9491 C.3     1  UNL1        0.0212
     18 C          -8.3442  -14.2374   20.6987 C.3     1  UNL1        0.0001
     19 C          -8.6871  -15.0449   21.9154 C.3     1  UNL1        0.0017
     20 O          -6.6927  -18.5536   21.9102 O.3     1  UNL1       -0.4688
     21 C          -5.5057  -19.4692   21.9605 C.3     1  UNL1        0.2508
     22 C          -4.2213  -19.0692   21.2970 C.ar    1  UNL1        0.1026
     23 C          -2.9453  -19.0462   22.0854 C.ar    1  UNL1        0.0185
     24 C          -1.6609  -18.6462   21.4219 C.ar    1  UNL1        0.0029
     25 C          -1.6524  -18.2691   19.9701 C.ar    1  UNL1        0.0207
     26 C          -2.9283  -18.2920   19.1818 C.ar    1  UNL1        0.0986
     27 N          -4.2128  -18.6921   19.8452 N.ar    1  UNL1       -0.2445
@<TRIPOS>BOND
     1    18    19    1
     2    19    17    1
     3    17    16    1
     4    16    14    1
     5    14     1    1
     6     1     2   ar
     7     2     3   ar
     8     3     4    1
     9     3     5   ar
    10     5     6   ar
    11     6     7   ar
    12     7     8   ar
    13     8     9   ar
    14     9    10   ar
    15    10    20    1
    16    20    21    1
    17    21    22    1
    18    22    23   ar
    19    23    24   ar
    20    24    25   ar
    21    25    26   ar
    22    26    27   ar
    23    10    11   ar
    24    11     1   ar
    25    11     6   ar
    26    27    22   ar
    27    14    15    1
    28     4    12    1
    29     4    13    1
@<TRIPOS>MOLECULE
*****
 27 29 0 0 0
SMALL
GASTEIGER

@<TRIPOS>ATOM
      1 C         -12.7405   -4.1175   17.4318 C.ar    1  UNL1        0.1357
      2 N         -12.3564   -2.6720   17.3173 N.ar    1  UNL1       -0.1992
      3 C         -10.9866   -2.2247   17.7341 C.ar    1  UNL1        0.2148
      4 N         -10.6026   -0.7791   17.6196 N.pl3   1  UNL1       -0.3274
      5 N         -10.0010   -3.2227   18.2654 N.ar    1  UNL1       -0.2138
      6 C         -10.3851   -4.6683   18.3799 C.ar    1  UNL1        0.0898
      7 C          -9.3995   -5.6664   18.9112 C.ar    1  UNL1        0.0195
      8 C          -9.7835   -7.1118   19.0257 C.ar    1  UNL1        0.0047
      9 C         -11.1533   -7.5591   18.6088 C.ar    1  UNL1        0.0371
     10 C         -12.1389   -6.5611   18.0775 C.ar    1  UNL1        0.1432
     11 C         -11.7548   -5.1156   17.9631 C.ar    1  UNL1        0.0831
     12 H         -11.2495   -0.1241   17.2709 H       1  UNL1        0.1452
     13 H          -9.7036   -0.4855   17.8932 H       1  UNL1        0.1452
     14 N         -14.1102   -4.5648   17.0149 N.pl3   1  UNL1       -0.3179
     15 H         -14.2190   -5.1545   16.2342 H       1  UNL1        0.1482
     16 C         -15.3140   -4.1137   17.7877 C.3     1  UNL1        0.0882
     17 C         -15.3305   -4.2260   19.2834 C.3     1  UNL1        0.0212
     18 C         -13.6092   -3.1604   20.9118 C.3     1  UNL1        0.0001
     19 C         -14.8844   -3.0689   20.1273 C.3     1  UNL1        0.0017
     20 O         -13.5086   -7.0084   17.6607 O.3     1  UNL1       -0.4688
     21 C         -13.8892   -8.4555   17.7656 C.3     1  UNL1        0.2508
     22 C         -15.1807   -8.8457   18.4212 C.ar    1  UNL1        0.1026
     23 C         -15.9130   -7.8592   19.2818 C.ar    1  UNL1        0.0185
     24 C         -17.2045   -8.2494   19.9374 C.ar    1  UNL1        0.0029
     25 C         -17.7637   -9.6262   19.7323 C.ar    1  UNL1        0.0207
     26 C         -17.0314  -10.6126   18.8717 C.ar    1  UNL1        0.0986
     27 N         -15.7399  -10.2224   18.2161 N.ar    1  UNL1       -0.2445
@<TRIPOS>BOND
     1    18    19    1
     2    19    17    1
     3    17    16    1
     4    16    14    1
     5    14     1    1
     6     1     2   ar
     7     2     3   ar
     8     3     4    1
     9     3     5   ar
    10     5     6   ar
    11     6     7   ar
    12     7     8   ar
    13     8     9   ar
    14     9    10   ar
    15    10    20    1
    16    20    21    1
    17    21    22    1
    18    22    23   ar
    19    23    24   ar
    20    24    25   ar
    21    25    26   ar
    22    26    27   ar
    23    10    11   ar
    24    11     1   ar
    25    11     6   ar
    26    27    22   ar
    27    14    15    1
    28     4    12    1
    29     4    13    1
@<TRIPOS>MOLECULE
*****
 27 29 0 0 0
SMALL
GASTEIGER

@<TRIPOS>ATOM
      1 C         -16.1008   -5.7412   19.3954 C.ar    1  UNL1        0.1357
      2 N         -17.3537   -4.9683   19.6834 N.ar    1  UNL1       -0.1992
      3 C         -18.6899   -5.6429   19.5866 C.ar    1  UNL1        0.2148
      4 N         -19.9428   -4.8699   19.8746 N.pl3   1  UNL1       -0.3274
      5 N         -18.7733   -7.0902   19.2018 N.ar    1  UNL1       -0.2138
      6 C         -17.5204   -7.8632   18.9138 C.ar    1  UNL1        0.0898
      7 C         -17.6038   -9.3105   18.5290 C.ar    1  UNL1        0.0195
      8 C         -16.3509  -10.0834   18.2411 C.ar    1  UNL1        0.0047
      9 C         -15.0147   -9.4088   18.3379 C.ar    1  UNL1        0.0371
     10 C         -14.9313   -7.9615   18.7226 C.ar    1  UNL1        0.1432
     11 C         -16.1841   -7.1886   19.0106 C.ar    1  UNL1        0.0831
     12 H         -19.8881   -3.9199   20.1271 H       1  UNL1        0.1452
     13 H         -20.8199   -5.3126   19.8111 H       1  UNL1        0.1452
     14 N         -14.7645   -5.0666   19.4922 N.pl3   1  UNL1       -0.3179
     15 H         -14.0822   -5.2243   18.8002 H       1  UNL1        0.1482
     16 C         -14.4677   -4.1519   20.6433 C.3     1  UNL1        0.0882
     17 C         -13.4470   -3.0631   20.4923 C.3     1  UNL1        0.0212
     18 C         -11.7278   -1.8069   19.0035 C.3     1  UNL1        0.0001
     19 C         -12.5797   -3.0126   19.2694 C.3     1  UNL1        0.0017
     20 O         -13.5950   -7.2869   18.8194 O.3     1  UNL1       -0.4688
     21 C         -12.5921   -7.4475   17.7157 C.3     1  UNL1        0.2508
     22 C         -11.5085   -6.4266   17.5324 C.ar    1  UNL1        0.1026
     23 C         -10.6239   -6.0565   18.6859 C.ar    1  UNL1        0.0185
     24 C          -9.5404   -5.0355   18.5026 C.ar    1  UNL1        0.0029
     25 C          -9.3415   -4.3846   17.1658 C.ar    1  UNL1        0.0207
     26 C         -10.2261   -4.7547   16.0124 C.ar    1  UNL1        0.0986
     27 N         -11.3096   -5.7757   16.1957 N.ar    1  UNL1       -0.2445
@<TRIPOS>BOND
     1    18    19    1
     2    19    17    1
     3    17    16    1
     4    16    14    1
     5    14     1    1
     6     1     2   ar
     7     2     3   ar
     8     3     4    1
     9     3     5   ar
    10     5     6   ar
    11     6     7   ar
    12     7     8   ar
    13     8     9   ar
    14     9    10   ar
    15    10    20    1
    16    20    21    1
    17    21    22    1
    18    22    23   ar
    19    23    24   ar
    20    24    25   ar
    21    25    26   ar
    22    26    27   ar
    23    10    11   ar
    24    11     1   ar
    25    11     6   ar
    26    27    22   ar
    27    14    15    1
    28     4    12    1
    29     4    13    1
