@<TRIPOS>MOLECULE
*****
 39 42 0 0 0
SMALL
GASTEIGER

@<TRIPOS>ATOM
      1 C           5.1943   -0.5539   34.4523 C.ar    1  UNL1        0.0068
      2 C           4.5157   -1.7477   33.8488 C.ar    1  UNL1       -0.0020
      3 C           5.2335   -2.5834   32.8307 C.ar    1  UNL1       -0.0002
      4 C           6.6299   -2.2253   32.4162 C.ar    1  UNL1        0.0024
      5 C           7.3086   -1.0315   33.0198 C.ar    1  UNL1        0.0293
      6 C           6.5907   -0.1959   34.0378 C.ar    1  UNL1        0.1362
      7 F           7.2693    0.9979   34.6414 F       1  UNL1       -0.2045
      8 C           3.4834    1.3792   39.0585 C.3     1  UNL1        0.0897
      9 N           3.6901    1.1704   37.5876 N.3     1  UNL1       -0.2708
     10 C           3.0539    1.9655   36.4861 C.3     1  UNL1        0.0816
     11 C           3.5400    1.4163   35.1776 C.3     1  UNL1        0.0981
     12 C           4.4766    0.2818   35.4703 C.3     1  UNL1        0.0505
     13 C           4.5694    0.1298   36.9597 C.3     1  UNL1        0.0771
     14 C           3.1567    1.9143   33.8156 C.2     1  UNL1        0.2274
     15 O           4.2113    2.4279   32.8806 O.2     1  UNL1       -0.2747
     16 N           1.7189    1.8987   33.3885 N.am    1  UNL1       -0.2839
     17 H           1.0268    1.5616   34.0021 H       1  UNL1        0.1549
     18 C           1.3356    2.3967   32.0264 C.ar    1  UNL1        0.0504
     19 C           0.9236    3.8267   31.8392 C.ar    1  UNL1        0.0155
     20 C           0.5404    4.3246   30.4772 C.ar    1  UNL1        0.0127
     21 C           0.5691    3.3925   29.3023 C.ar    1  UNL1        0.0578
     22 CL          0.1858    3.8904   27.9403 Cl      1  UNL1       -0.0822
     23 C           0.9811    1.9624   29.4895 C.ar    1  UNL1        0.0127
     24 C           1.3644    1.4645   30.8516 C.ar    1  UNL1        0.0155
     25 C           7.3477   -3.0611   31.3982 C.2     1  UNL1        0.0047
     26 C           6.5924   -3.6487   30.2432 C.2     1  UNL1        0.0580
     27 C           7.3100   -4.4845   29.2251 C.2     1  UNL1        0.2497
     28 O           8.7815   -4.2965   29.0031 O.2     1  UNL1       -0.2698
     29 N           6.5562   -5.5082   28.4290 N.am    1  UNL1       -0.2794
     30 H           5.5904   -5.6316   28.5746 H       1  UNL1        0.1552
     31 C           7.2739   -6.3439   27.4109 C.ar    1  UNL1        0.0636
     32 C           8.0239   -7.5697   27.8408 C.ar    1  UNL1        0.0159
     33 C           8.7416   -8.4054   26.8227 C.ar    1  UNL1        0.0014
     34 C           8.7094   -8.0152   25.3747 C.ar    1  UNL1        0.0013
     35 C           7.9594   -6.7894   24.9448 C.ar    1  UNL1        0.0153
     36 C           7.2416   -5.9537   25.9629 C.ar    1  UNL1        0.0552
     37 N           6.4916   -4.7279   25.5330 N.pl3   1  UNL1       -0.3560
     38 H           6.4705   -4.4718   24.5827 H       1  UNL1        0.1424
     39 H           6.0206   -4.1794   26.2012 H       1  UNL1        0.1424
@<TRIPOS>BOND
     1     8     9    1
     2     9    10    1
     3    10    11    1
     4    11    14    1
     5    14    15    2
     6    14    16   am
     7    16    18    1
     8    18    19   ar
     9    19    20   ar
    10    20    21   ar
    11    21    22    1
    12    21    23   ar
    13    23    24   ar
    14    11    12    1
    15    12     1    1
    16     1     2   ar
    17     2     3   ar
    18     3     4   ar
    19     4    25    1
    20    25    26    2
    21    26    27    1
    22    27    28    2
    23    27    29   am
    24    29    31    1
    25    31    32   ar
    26    32    33   ar
    27    33    34   ar
    28    34    35   ar
    29    35    36   ar
    30    36    37    1
    31     4     5   ar
    32     5     6   ar
    33     6     7    1
    34    12    13    1
    35    13     9    1
    36    24    18   ar
    37     6     1   ar
    38    36    31   ar
    39    16    17    1
    40    29    30    1
    41    37    38    1
    42    37    39    1
@<TRIPOS>MOLECULE
*****
 39 42 0 0 0
SMALL
GASTEIGER

@<TRIPOS>ATOM
      1 C           1.6724    0.5054   28.8363 C.ar    1  UNL1        0.0068
      2 C           0.3103   -0.1164   28.7470 C.ar    1  UNL1       -0.0020
      3 C          -0.8030    0.6126   28.0548 C.ar    1  UNL1       -0.0002
      4 C          -0.5542    1.9634   27.4518 C.ar    1  UNL1        0.0024
      5 C           0.8080    2.5851   27.5410 C.ar    1  UNL1        0.0293
      6 C           1.9212    1.8561   28.2333 C.ar    1  UNL1        0.1362
      7 F           3.2834    2.4779   28.3225 F       1  UNL1       -0.2045
      8 C           4.6290   -1.7571   32.5807 C.3     1  UNL1        0.0897
      9 N           4.1448   -1.2635   31.2496 N.3     1  UNL1       -0.2708
     10 C           4.8533   -1.4271   29.9376 C.3     1  UNL1        0.0816
     11 C           4.0134   -0.7843   28.8739 C.3     1  UNL1        0.0981
     12 C           2.7857   -0.2235   29.5285 C.3     1  UNL1        0.0505
     13 C           2.8669   -0.5197   30.9967 C.3     1  UNL1        0.0771
     14 C           4.3432   -0.7146   27.4122 C.2     1  UNL1        0.2274
     15 O           5.4004    0.2320   26.9263 O.2     1  UNL1       -0.2747
     16 N           3.6158   -1.5915   26.4366 N.am    1  UNL1       -0.2839
     17 H           2.9220   -2.2129   26.7556 H       1  UNL1        0.1549
     18 C           3.9457   -1.5218   24.9749 C.ar    1  UNL1        0.0504
     19 C           5.0318   -2.3880   24.4090 C.ar    1  UNL1        0.0155
     20 C           5.3616   -2.3182   22.9474 C.ar    1  UNL1        0.0127
     21 C           4.6053   -1.3824   22.0517 C.ar    1  UNL1        0.0578
     22 CL          4.9351   -1.3127   20.5900 Cl      1  UNL1       -0.0822
     23 C           3.5192   -0.5163   22.6176 C.ar    1  UNL1        0.0127
     24 C           3.1894   -0.5860   24.0792 C.ar    1  UNL1        0.0155
     25 C          -1.6675    2.6923   26.7596 C.2     1  UNL1        0.0047
     26 C          -1.5885    2.9559   25.2851 C.2     1  UNL1        0.0580
     27 C          -2.7018    3.6848   24.5928 C.2     1  UNL1        0.2497
     28 O          -2.5587    5.1435   24.2736 O.2     1  UNL1       -0.2698
     29 N          -3.9581    2.9552   24.2196 N.am    1  UNL1       -0.2794
     30 H          -4.0521    1.9978   24.4291 H       1  UNL1        0.1552
     31 C          -5.0713    3.6842   23.5273 C.ar    1  UNL1        0.0636
     32 C          -6.0349    4.5127   24.3242 C.ar    1  UNL1        0.0159
     33 C          -7.1481    5.2417   23.6318 C.ar    1  UNL1        0.0014
     34 C          -7.2977    5.1421   22.1426 C.ar    1  UNL1        0.0013
     35 C          -6.3341    4.3135   21.3458 C.ar    1  UNL1        0.0153
     36 C          -5.2209    3.5846   22.0381 C.ar    1  UNL1        0.0552
     37 N          -4.2573    2.7560   21.2413 N.pl3   1  UNL1       -0.3560
     38 H          -4.3555    2.6907   20.2639 H       1  UNL1        0.1424
     39 H          -3.5267    2.2776   21.6957 H       1  UNL1        0.1424
@<TRIPOS>BOND
     1     8     9    1
     2     9    10    1
     3    10    11    1
     4    11    14    1
     5    14    15    2
     6    14    16   am
     7    16    18    1
     8    18    19   ar
     9    19    20   ar
    10    20    21   ar
    11    21    22    1
    12    21    23   ar
    13    23    24   ar
    14    11    12    1
    15    12     1    1
    16     1     2   ar
    17     2     3   ar
    18     3     4   ar
    19     4    25    1
    20    25    26    2
    21    26    27    1
    22    27    28    2
    23    27    29   am
    24    29    31    1
    25    31    32   ar
    26    32    33   ar
    27    33    34   ar
    28    34    35   ar
    29    35    36   ar
    30    36    37    1
    31     4     5   ar
    32     5     6   ar
    33     6     7    1
    34    12    13    1
    35    13     9    1
    36    24    18   ar
    37     6     1   ar
    38    36    31   ar
    39    16    17    1
    40    29    30    1
    41    37    38    1
    42    37    39    1
@<TRIPOS>MOLECULE
*****
 39 42 0 0 0
SMALL
GASTEIGER

@<TRIPOS>ATOM
      1 C           1.8452    0.4376   28.6216 C.ar    1  UNL1        0.0068
      2 C           0.4968   -0.1931   28.8056 C.ar    1  UNL1       -0.0020
      3 C          -0.7243    0.4687   28.2391 C.ar    1  UNL1       -0.0002
      4 C          -0.5971    1.7613   27.4887 C.ar    1  UNL1        0.0024
      5 C           0.7514    2.3920   27.3047 C.ar    1  UNL1        0.0293
      6 C           1.9725    1.7302   27.8711 C.ar    1  UNL1        0.1362
      7 F           3.3209    2.3609   27.6871 F       1  UNL1       -0.2045
      8 C           5.3251   -1.6128   32.0227 C.3     1  UNL1        0.0897
      9 N           4.6659   -1.1666   30.7513 N.3     1  UNL1       -0.2708
     10 C           5.2254   -1.3183   29.3677 C.3     1  UNL1        0.0816
     11 C           4.2368   -0.7357   28.4016 C.3     1  UNL1        0.0981
     12 C           3.0664   -0.2241   29.1880 C.3     1  UNL1        0.0505
     13 C           3.3316   -0.4903   30.6401 C.3     1  UNL1        0.0771
     14 C           4.3915   -0.6755   26.9108 C.2     1  UNL1        0.2274
     15 O           5.3480    0.3021   26.2949 O.2     1  UNL1       -0.2747
     16 N           3.5897   -1.5929   26.0359 N.am    1  UNL1       -0.2839
     17 H           2.9618   -2.2345   26.4401 H       1  UNL1        0.1549
     18 C           3.7444   -1.5326   24.5451 C.ar    1  UNL1        0.0504
     19 C           4.7228   -2.4365   23.8554 C.ar    1  UNL1        0.0155
     20 C           4.8775   -2.3763   22.3647 C.ar    1  UNL1        0.0127
     21 C           4.0537   -1.4121   21.5635 C.ar    1  UNL1        0.0578
     22 CL          4.2084   -1.3519   20.0727 Cl      1  UNL1       -0.0822
     23 C           3.0753   -0.5082   22.2532 C.ar    1  UNL1        0.0127
     24 C           2.9206   -0.5685   23.7439 C.ar    1  UNL1        0.0155
     25 C          -1.8182    2.4230   26.9223 C.2     1  UNL1        0.0047
     26 C          -1.7535    3.8497   26.4636 C.2     1  UNL1        0.0580
     27 C          -2.9747    4.5115   25.8972 C.2     1  UNL1        0.2497
     28 O          -2.8318    5.6890   24.9790 O.2     1  UNL1       -0.2698
     29 N          -4.3387    3.9959   26.2489 N.am    1  UNL1       -0.2794
     30 H          -4.4325    3.2231   26.8516 H       1  UNL1        0.1552
     31 C          -5.5597    4.6578   25.6825 C.ar    1  UNL1        0.0636
     32 C          -6.2380    5.7578   26.4439 C.ar    1  UNL1        0.0159
     33 C          -7.4591    6.4196   25.8773 C.ar    1  UNL1        0.0014
     34 C          -8.0018    5.9814   24.5494 C.ar    1  UNL1        0.0013
     35 C          -7.3235    4.8813   23.7880 C.ar    1  UNL1        0.0153
     36 C          -6.1025    4.2195   24.3545 C.ar    1  UNL1        0.0552
     37 N          -5.4241    3.1194   23.5932 N.pl3   1  UNL1       -0.3560
     38 H          -5.7803    2.8318   22.7216 H       1  UNL1        0.1424
     39 H          -4.6227    2.6851   23.9650 H       1  UNL1        0.1424
@<TRIPOS>BOND
     1     8     9    1
     2     9    10    1
     3    10    11    1
     4    11    14    1
     5    14    15    2
     6    14    16   am
     7    16    18    1
     8    18    19   ar
     9    19    20   ar
    10    20    21   ar
    11    21    22    1
    12    21    23   ar
    13    23    24   ar
    14    11    12    1
    15    12     1    1
    16     1     2   ar
    17     2     3   ar
    18     3     4   ar
    19     4    25    1
    20    25    26    2
    21    26    27    1
    22    27    28    2
    23    27    29   am
    24    29    31    1
    25    31    32   ar
    26    32    33   ar
    27    33    34   ar
    28    34    35   ar
    29    35    36   ar
    30    36    37    1
    31     4     5   ar
    32     5     6   ar
    33     6     7    1
    34    12    13    1
    35    13     9    1
    36    24    18   ar
    37     6     1   ar
    38    36    31   ar
    39    16    17    1
    40    29    30    1
    41    37    38    1
    42    37    39    1
@<TRIPOS>MOLECULE
*****
 39 42 0 0 0
SMALL
GASTEIGER

@<TRIPOS>ATOM
      1 C           1.3540    2.2321   28.2109 C.ar    1  UNL1        0.0068
      2 C           2.7450    2.1877   27.6512 C.ar    1  UNL1       -0.0020
      3 C           2.9819    1.6455   26.2729 C.ar    1  UNL1       -0.0002
      4 C           1.8279    1.1475   25.4541 C.ar    1  UNL1        0.0024
      5 C           0.4369    1.1919   26.0138 C.ar    1  UNL1        0.0293
      6 C           0.2000    1.7341   27.3921 C.ar    1  UNL1        0.1362
      7 F          -1.1910    1.7784   27.9517 F       1  UNL1       -0.2045
      8 C          -0.2196    5.3302   32.1866 C.3     1  UNL1        0.0897
      9 N           0.3937    4.1984   31.4166 N.3     1  UNL1       -0.2708
     10 C           1.1109    3.0190   32.0039 C.3     1  UNL1        0.0816
     11 C           1.5579    2.1389   30.8744 C.3     1  UNL1        0.0981
     12 C           1.1170    2.7743   29.5892 C.3     1  UNL1        0.0505
     13 C           0.3975    4.0471   29.9242 C.3     1  UNL1        0.0771
     14 C           2.3132    0.8497   31.0070 C.2     1  UNL1        0.2274
     15 O           1.7114   -0.4276   30.5009 O.2     1  UNL1       -0.2747
     16 N           3.6704    0.8379   31.6456 N.am    1  UNL1       -0.2839
     17 H           4.0654    1.6763   31.9778 H       1  UNL1        0.1549
     18 C           4.4258   -0.4513   31.7782 C.ar    1  UNL1        0.0504
     19 C           5.4197   -0.8496   30.7278 C.ar    1  UNL1        0.0155
     20 C           6.1750   -2.1387   30.8604 C.ar    1  UNL1        0.0127
     21 C           5.9363   -3.0295   32.0435 C.ar    1  UNL1        0.0578
     22 CL          6.6917   -4.3187   32.1760 Cl      1  UNL1       -0.0822
     23 C           4.9424   -2.6312   33.0938 C.ar    1  UNL1        0.0127
     24 C           4.1871   -1.3421   32.9612 C.ar    1  UNL1        0.0155
     25 C           2.0649    0.6053   24.0758 C.2     1  UNL1        0.0047
     26 C           2.9770   -0.5692   23.8786 C.2     1  UNL1        0.0580
     27 C           3.2140   -1.1115   22.5003 C.2     1  UNL1        0.2497
     28 O           2.2484   -0.8001   21.3955 O.2     1  UNL1       -0.2698
     29 N           4.4167   -1.9652   22.2268 N.am    1  UNL1       -0.2794
     30 H           5.0505   -2.1696   22.9519 H       1  UNL1        0.1552
     31 C           4.6537   -2.5074   20.8485 C.ar    1  UNL1        0.0636
     32 C           4.1969   -3.8927   20.4986 C.ar    1  UNL1        0.0159
     33 C           4.4339   -4.4349   19.1203 C.ar    1  UNL1        0.0014
     34 C           5.1278   -3.5918   18.0918 C.ar    1  UNL1        0.0013
     35 C           5.5847   -2.2066   18.4416 C.ar    1  UNL1        0.0153
     36 C           5.3476   -1.6644   19.8200 C.ar    1  UNL1        0.0552
     37 N           5.8045   -0.2792   20.1698 N.pl3   1  UNL1       -0.3560
     38 H           6.2599    0.2741   19.4948 H       1  UNL1        0.1424
     39 H           5.6489    0.0767   21.0745 H       1  UNL1        0.1424
@<TRIPOS>BOND
     1     8     9    1
     2     9    10    1
     3    10    11    1
     4    11    14    1
     5    14    15    2
     6    14    16   am
     7    16    18    1
     8    18    19   ar
     9    19    20   ar
    10    20    21   ar
    11    21    22    1
    12    21    23   ar
    13    23    24   ar
    14    11    12    1
    15    12     1    1
    16     1     2   ar
    17     2     3   ar
    18     3     4   ar
    19     4    25    1
    20    25    26    2
    21    26    27    1
    22    27    28    2
    23    27    29   am
    24    29    31    1
    25    31    32   ar
    26    32    33   ar
    27    33    34   ar
    28    34    35   ar
    29    35    36   ar
    30    36    37    1
    31     4     5   ar
    32     5     6   ar
    33     6     7    1
    34    12    13    1
    35    13     9    1
    36    24    18   ar
    37     6     1   ar
    38    36    31   ar
    39    16    17    1
    40    29    30    1
    41    37    38    1
    42    37    39    1
@<TRIPOS>MOLECULE
*****
 39 42 0 0 0
SMALL
GASTEIGER

@<TRIPOS>ATOM
      1 C           1.5210    1.1508   28.8091 C.ar    1  UNL1        0.0068
      2 C           1.8579    2.5005   28.2482 C.ar    1  UNL1       -0.0020
      3 C           0.8375    3.2571   27.4505 C.ar    1  UNL1       -0.0002
      4 C          -0.5197    2.6640   27.2135 C.ar    1  UNL1        0.0024
      5 C          -0.8566    1.3143   27.7744 C.ar    1  UNL1        0.0293
      6 C           0.1637    0.5577   28.5722 C.ar    1  UNL1        0.1362
      7 F          -0.1732   -0.7921   29.1331 F       1  UNL1       -0.2045
      8 C           4.1211   -1.0377   32.8503 C.3     1  UNL1        0.0897
      9 N           3.7364   -0.6119   31.4644 N.3     1  UNL1       -0.2708
     10 C           4.4863   -0.9289   30.2045 C.3     1  UNL1        0.0816
     11 C           3.7476   -0.3072   29.0566 C.3     1  UNL1        0.0981
     12 C           2.5412    0.3941   29.6069 C.3     1  UNL1        0.0505
     13 C           2.5343    0.2058   31.0950 C.3     1  UNL1        0.0771
     14 C           4.1455   -0.3750   27.6118 C.2     1  UNL1        0.2274
     15 O           5.2331    0.5170   27.0909 O.2     1  UNL1       -0.2747
     16 N           3.4557   -1.3347   26.6881 N.am    1  UNL1       -0.2839
     17 H           2.7419   -1.9201   27.0301 H       1  UNL1        0.1549
     18 C           3.8536   -1.4024   25.2434 C.ar    1  UNL1        0.0504
     19 C           5.0446   -2.2156   24.8308 C.ar    1  UNL1        0.0155
     20 C           5.4425   -2.2833   23.3862 C.ar    1  UNL1        0.0127
     21 C           4.6493   -1.5378   22.3541 C.ar    1  UNL1        0.0578
     22 CL          5.0472   -1.6055   20.9094 Cl      1  UNL1       -0.0822
     23 C           3.4583   -0.7246   22.7667 C.ar    1  UNL1        0.0127
     24 C           3.0605   -0.6569   24.2113 C.ar    1  UNL1        0.0155
     25 C          -1.5400    3.4207   26.4158 C.2     1  UNL1        0.0047
     26 C          -1.9010    2.9633   25.0336 C.2     1  UNL1        0.0580
     27 C          -2.9213    3.7199   24.2358 C.2     1  UNL1        0.2497
     28 O          -2.6357    5.1241   23.7923 O.2     1  UNL1       -0.2698
     29 N          -4.2271    3.0724   23.8813 N.am    1  UNL1       -0.2794
     30 H          -4.4145    2.1508   24.1723 H       1  UNL1        0.1552
     31 C          -5.2473    3.8291   23.0834 C.ar    1  UNL1        0.0636
     32 C          -6.1975    4.7623   23.7735 C.ar    1  UNL1        0.0159
     33 C          -7.2177    5.5189   22.9755 C.ar    1  UNL1        0.0014
     34 C          -7.2876    5.3424   21.4876 C.ar    1  UNL1        0.0013
     35 C          -6.3373    4.4092   20.7976 C.ar    1  UNL1        0.0153
     36 C          -5.3172    3.6526   21.5955 C.ar    1  UNL1        0.0552
     37 N          -4.3669    2.7194   20.9055 N.pl3   1  UNL1       -0.3560
     38 H          -4.4128    2.6035   19.9289 H       1  UNL1        0.1424
     39 H          -3.6973    2.2228   21.4292 H       1  UNL1        0.1424
@<TRIPOS>BOND
     1     8     9    1
     2     9    10    1
     3    10    11    1
     4    11    14    1
     5    14    15    2
     6    14    16   am
     7    16    18    1
     8    18    19   ar
     9    19    20   ar
    10    20    21   ar
    11    21    22    1
    12    21    23   ar
    13    23    24   ar
    14    11    12    1
    15    12     1    1
    16     1     2   ar
    17     2     3   ar
    18     3     4   ar
    19     4    25    1
    20    25    26    2
    21    26    27    1
    22    27    28    2
    23    27    29   am
    24    29    31    1
    25    31    32   ar
    26    32    33   ar
    27    33    34   ar
    28    34    35   ar
    29    35    36   ar
    30    36    37    1
    31     4     5   ar
    32     5     6   ar
    33     6     7    1
    34    12    13    1
    35    13     9    1
    36    24    18   ar
    37     6     1   ar
    38    36    31   ar
    39    16    17    1
    40    29    30    1
    41    37    38    1
    42    37    39    1
@<TRIPOS>MOLECULE
*****
 39 42 0 0 0
SMALL
GASTEIGER

@<TRIPOS>ATOM
      1 C          -0.3896    3.0521   24.1943 C.ar    1  UNL1        0.0068
      2 C          -0.6713    1.8997   25.1123 C.ar    1  UNL1       -0.0020
      3 C           0.2660    1.5953   26.2432 C.ar    1  UNL1       -0.0002
      4 C           1.4848    2.4433   26.4562 C.ar    1  UNL1        0.0024
      5 C           1.7665    3.5957   25.5382 C.ar    1  UNL1        0.0293
      6 C           0.8293    3.9001   24.4074 C.ar    1  UNL1        0.1362
      7 F           1.1109    5.0525   23.4894 F       1  UNL1       -0.2045
      8 C          -4.5607    4.7775   21.4546 C.3     1  UNL1        0.0897
      9 N          -3.2440    4.1497   21.8041 N.3     1  UNL1       -0.2708
     10 C          -2.2937    3.5006   20.8419 C.3     1  UNL1        0.0816
     11 C          -1.1089    3.0104   21.6203 C.3     1  UNL1        0.0981
     12 C          -1.3268    3.3566   23.0634 C.3     1  UNL1        0.0505
     13 C          -2.6464    4.0607   23.1771 C.3     1  UNL1        0.0771
     14 C           0.0845    2.2990   21.0547 C.2     1  UNL1        0.2274
     15 O           1.4504    2.9050   21.1853 O.2     1  UNL1       -0.2747
     16 N          -0.0881    0.9816   20.3585 N.am    1  UNL1       -0.2839
     17 H          -0.9846    0.5839   20.2728 H       1  UNL1        0.1549
     18 C           1.1053    0.2702   19.7929 C.ar    1  UNL1        0.0504
     19 C           1.7477   -0.8455   20.5626 C.ar    1  UNL1        0.0155
     20 C           2.9410   -1.5569   19.9970 C.ar    1  UNL1        0.0127
     21 C           3.4918   -1.1526   18.6617 C.ar    1  UNL1        0.0578
     22 CL          4.6852   -1.8640   18.0961 Cl      1  UNL1       -0.0822
     23 C           2.8494   -0.0369   17.8920 C.ar    1  UNL1        0.0127
     24 C           1.6561    0.6745   18.4576 C.ar    1  UNL1        0.0155
     25 C           2.4220    2.1388   27.5871 C.2     1  UNL1        0.0047
     26 C           2.1039    1.0310   28.5471 C.2     1  UNL1        0.0580
     27 C           3.0410    0.7265   29.6781 C.2     1  UNL1        0.2497
     28 O           4.4400    1.2671   29.6591 O.2     1  UNL1       -0.2698
     29 N           2.5791   -0.1187   30.8280 N.am    1  UNL1       -0.2794
     30 H           1.6609   -0.4736   30.8405 H       1  UNL1        0.1552
     31 C           3.5163   -0.4232   31.9589 C.ar    1  UNL1        0.0636
     32 C           4.5285   -1.5214   31.8193 C.ar    1  UNL1        0.0159
     33 C           5.4656   -1.8258   32.9502 C.ar    1  UNL1        0.0014
     34 C           5.3905   -1.0321   34.2208 C.ar    1  UNL1        0.0013
     35 C           4.3783    0.0660   34.3605 C.ar    1  UNL1        0.0153
     36 C           3.4412    0.3705   33.2295 C.ar    1  UNL1        0.0552
     37 N           2.4290    1.4686   33.3692 N.pl3   1  UNL1       -0.3560
     38 H           2.3797    1.9895   34.2031 H       1  UNL1        0.1424
     39 H           1.8139    1.6684   32.6269 H       1  UNL1        0.1424
@<TRIPOS>BOND
     1     8     9    1
     2     9    10    1
     3    10    11    1
     4    11    14    1
     5    14    15    2
     6    14    16   am
     7    16    18    1
     8    18    19   ar
     9    19    20   ar
    10    20    21   ar
    11    21    22    1
    12    21    23   ar
    13    23    24   ar
    14    11    12    1
    15    12     1    1
    16     1     2   ar
    17     2     3   ar
    18     3     4   ar
    19     4    25    1
    20    25    26    2
    21    26    27    1
    22    27    28    2
    23    27    29   am
    24    29    31    1
    25    31    32   ar
    26    32    33   ar
    27    33    34   ar
    28    34    35   ar
    29    35    36   ar
    30    36    37    1
    31     4     5   ar
    32     5     6   ar
    33     6     7    1
    34    12    13    1
    35    13     9    1
    36    24    18   ar
    37     6     1   ar
    38    36    31   ar
    39    16    17    1
    40    29    30    1
    41    37    38    1
    42    37    39    1
@<TRIPOS>MOLECULE
*****
 39 42 0 0 0
SMALL
GASTEIGER

@<TRIPOS>ATOM
      1 C          -1.0005    3.7927   25.9995 C.ar    1  UNL1        0.0068
      2 C          -0.1179    4.2134   24.8619 C.ar    1  UNL1       -0.0020
      3 C           0.7744    3.2096   24.1941 C.ar    1  UNL1       -0.0002
      4 C           0.7843    1.7850   24.6638 C.ar    1  UNL1        0.0024
      5 C          -0.0983    1.3643   25.8013 C.ar    1  UNL1        0.0293
      6 C          -0.9906    2.3681   26.4692 C.ar    1  UNL1        0.1362
      7 F          -1.8732    1.9474   27.6068 F       1  UNL1       -0.2045
      8 C          -2.8535    7.3991   29.3820 C.3     1  UNL1        0.0897
      9 N          -2.7446    6.4541   28.2221 N.3     1  UNL1       -0.2708
     10 C          -3.7877    6.2280   27.1681 C.3     1  UNL1        0.0816
     11 C          -3.2612    5.2035   26.2073 C.3     1  UNL1        0.0981
     12 C          -1.8928    4.7964   26.6674 C.3     1  UNL1        0.0505
     13 C          -1.5735    5.5693   27.9126 C.3     1  UNL1        0.0771
     14 C          -3.9775    4.6783   24.9984 C.2     1  UNL1        0.2274
     15 O          -4.9399    3.5358   25.1344 O.2     1  UNL1       -0.2747
     16 N          -3.7314    5.2956   23.6537 N.am    1  UNL1       -0.2839
     17 H          -3.0997    6.0454   23.5645 H       1  UNL1        0.1549
     18 C          -4.4477    4.7704   22.4449 C.ar    1  UNL1        0.0504
     19 C          -5.8211    5.2718   22.1102 C.ar    1  UNL1        0.0155
     20 C          -6.5374    4.7466   20.9014 C.ar    1  UNL1        0.0127
     21 C          -5.8801    3.7200   20.0274 C.ar    1  UNL1        0.0578
     22 CL         -6.5964    3.1948   18.8185 Cl      1  UNL1       -0.0822
     23 C          -4.5066    3.2185   20.3621 C.ar    1  UNL1        0.0127
     24 C          -3.7904    3.7437   21.5708 C.ar    1  UNL1        0.0155
     25 C           1.6766    0.7812   23.9959 C.2     1  UNL1        0.0047
     26 C           1.6816    0.6598   22.5008 C.2     1  UNL1        0.0580
     27 C           2.5739   -0.3439   21.8328 C.2     1  UNL1        0.2497
     28 O           3.2956   -1.3703   22.6549 O.2     1  UNL1       -0.2698
     29 N           2.7447   -0.3214   20.3427 N.am    1  UNL1       -0.2794
     30 H           2.2711    0.3522   19.8031 H       1  UNL1        0.1552
     31 C           3.6371   -1.3251   19.6748 C.ar    1  UNL1        0.0636
     32 C           3.2141   -2.7613   19.5835 C.ar    1  UNL1        0.0159
     33 C           4.1065   -3.7650   18.9156 C.ar    1  UNL1        0.0014
     34 C           5.4219   -3.3325   18.3390 C.ar    1  UNL1        0.0013
     35 C           5.8450   -1.8963   18.4302 C.ar    1  UNL1        0.0153
     36 C           4.9525   -0.8926   19.0981 C.ar    1  UNL1        0.0552
     37 N           5.3756    0.5436   19.1894 N.pl3   1  UNL1       -0.3560
     38 H           6.2389    0.8274   18.8109 H       1  UNL1        0.1424
     39 H           4.7898    1.2024   19.6278 H       1  UNL1        0.1424
@<TRIPOS>BOND
     1     8     9    1
     2     9    10    1
     3    10    11    1
     4    11    14    1
     5    14    15    2
     6    14    16   am
     7    16    18    1
     8    18    19   ar
     9    19    20   ar
    10    20    21   ar
    11    21    22    1
    12    21    23   ar
    13    23    24   ar
    14    11    12    1
    15    12     1    1
    16     1     2   ar
    17     2     3   ar
    18     3     4   ar
    19     4    25    1
    20    25    26    2
    21    26    27    1
    22    27    28    2
    23    27    29   am
    24    29    31    1
    25    31    32   ar
    26    32    33   ar
    27    33    34   ar
    28    34    35   ar
    29    35    36   ar
    30    36    37    1
    31     4     5   ar
    32     5     6   ar
    33     6     7    1
    34    12    13    1
    35    13     9    1
    36    24    18   ar
    37     6     1   ar
    38    36    31   ar
    39    16    17    1
    40    29    30    1
    41    37    38    1
    42    37    39    1
@<TRIPOS>MOLECULE
*****
 39 42 0 0 0
SMALL
GASTEIGER

@<TRIPOS>ATOM
      1 C           4.0849    0.5442   32.8386 C.ar    1  UNL1        0.0068
      2 C           3.9657   -0.9300   33.0885 C.ar    1  UNL1       -0.0020
      3 C           4.7460   -1.8983   32.2499 C.ar    1  UNL1       -0.0002
      4 C           5.6456   -1.3925   31.1612 C.ar    1  UNL1        0.0024
      5 C           5.7648    0.0817   30.9114 C.ar    1  UNL1        0.0293
      6 C           4.9844    1.0501   31.7500 C.ar    1  UNL1        0.1362
      7 F           5.1036    2.5243   31.5002 F       1  UNL1       -0.2045
      8 C           2.3201    3.3289   36.9632 C.3     1  UNL1        0.0897
      9 N           2.4934    2.7927   35.5731 N.3     1  UNL1       -0.2708
     10 C           1.7141    3.2132   34.3623 C.3     1  UNL1        0.0816
     11 C           2.2155    2.4221   33.1906 C.3     1  UNL1        0.0981
     12 C           3.3046    1.5126   33.6773 C.3     1  UNL1        0.0505
     13 C           3.4764    1.7416   35.1497 C.3     1  UNL1        0.0771
     14 C           1.7155    2.5228   31.7800 C.2     1  UNL1        0.2274
     15 O           1.4144    3.8665   31.1851 O.2     1  UNL1       -0.2747
     16 N           1.5167    1.2799   30.9642 N.am    1  UNL1       -0.2839
     17 H           1.7143    0.3980   31.3546 H       1  UNL1        0.1549
     18 C           1.0167    1.3806   29.5535 C.ar    1  UNL1        0.0504
     19 C           1.9417    1.8259   28.4599 C.ar    1  UNL1        0.0155
     20 C           1.4417    1.9266   27.0494 C.ar    1  UNL1        0.0127
     21 C           0.0166    1.5820   26.7324 C.ar    1  UNL1        0.0578
     22 CL         -0.4834    1.6827   25.3217 Cl      1  UNL1       -0.0822
     23 C          -0.9084    1.1366   27.8259 C.ar    1  UNL1        0.0127
     24 C          -0.4084    1.0359   29.2365 C.ar    1  UNL1        0.0155
     25 C           6.4259   -2.3609   30.3226 C.2     1  UNL1        0.0047
     26 C           6.1287   -2.4939   28.8584 C.2     1  UNL1        0.0580
     27 C           6.9089   -3.4623   28.0197 C.2     1  UNL1        0.2497
     28 O           8.4078   -3.4670   28.0782 O.2     1  UNL1       -0.2698
     29 N           6.1904   -4.4260   27.1224 N.am    1  UNL1       -0.2794
     30 H           5.2067   -4.4229   27.0840 H       1  UNL1        0.1552
     31 C           6.9707   -5.3943   26.2838 C.ar    1  UNL1        0.0636
     32 C           7.2107   -5.1051   24.8316 C.ar    1  UNL1        0.0159
     33 C           7.9911   -6.0735   23.9930 C.ar    1  UNL1        0.0014
     34 C           8.5314   -7.3311   24.6066 C.ar    1  UNL1        0.0013
     35 C           8.2914   -7.6203   26.0587 C.ar    1  UNL1        0.0153
     36 C           7.5111   -6.6519   26.8973 C.ar    1  UNL1        0.0552
     37 N           7.2711   -6.9411   28.3495 N.pl3   1  UNL1       -0.3560
     38 H           7.6258   -7.7665   28.7522 H       1  UNL1        0.1424
     39 H           6.7589   -6.3055   28.8999 H       1  UNL1        0.1424
@<TRIPOS>BOND
     1     8     9    1
     2     9    10    1
     3    10    11    1
     4    11    14    1
     5    14    15    2
     6    14    16   am
     7    16    18    1
     8    18    19   ar
     9    19    20   ar
    10    20    21   ar
    11    21    22    1
    12    21    23   ar
    13    23    24   ar
    14    11    12    1
    15    12     1    1
    16     1     2   ar
    17     2     3   ar
    18     3     4   ar
    19     4    25    1
    20    25    26    2
    21    26    27    1
    22    27    28    2
    23    27    29   am
    24    29    31    1
    25    31    32   ar
    26    32    33   ar
    27    33    34   ar
    28    34    35   ar
    29    35    36   ar
    30    36    37    1
    31     4     5   ar
    32     5     6   ar
    33     6     7    1
    34    12    13    1
    35    13     9    1
    36    24    18   ar
    37     6     1   ar
    38    36    31   ar
    39    16    17    1
    40    29    30    1
    41    37    38    1
    42    37    39    1
@<TRIPOS>MOLECULE
*****
 39 42 0 0 0
SMALL
GASTEIGER

@<TRIPOS>ATOM
      1 C           3.1551    0.7046   27.9884 C.ar    1  UNL1        0.0068
      2 C           3.4376    1.9724   27.2381 C.ar    1  UNL1       -0.0020
      3 C           2.3135    2.8997   26.8825 C.ar    1  UNL1       -0.0002
      4 C           0.9069    2.5594   27.2772 C.ar    1  UNL1        0.0024
      5 C           0.6244    1.2916   28.0274 C.ar    1  UNL1        0.0293
      6 C           1.7485    0.3642   28.3830 C.ar    1  UNL1        0.1362
      7 F           1.4660   -0.9036   29.1333 F       1  UNL1       -0.2045
      8 C           6.6792   -2.0832   30.7615 C.3     1  UNL1        0.0897
      9 N           5.8990   -1.5043   29.6186 N.3     1  UNL1       -0.2708
     10 C           6.1186   -1.7959   28.1637 C.3     1  UNL1        0.0816
     11 C           5.1174   -1.0039   27.3760 C.3     1  UNL1        0.0981
     12 C           4.2791   -0.2228   28.3440 C.3     1  UNL1        0.0505
     13 C           4.7621   -0.5321   29.7300 C.3     1  UNL1        0.0771
     14 C           4.9790   -0.9947   25.8824 C.2     1  UNL1        0.2274
     15 O           5.7291    0.0157   25.0659 O.2     1  UNL1       -0.2747
     16 N           4.0906   -1.9957   25.2053 N.am    1  UNL1       -0.2839
     17 H           3.5983   -2.6588   25.7412 H       1  UNL1        0.1549
     18 C           3.9521   -1.9865   23.7117 C.ar    1  UNL1        0.0504
     19 C           4.6305   -3.0415   22.8890 C.ar    1  UNL1        0.0155
     20 C           4.4920   -3.0322   21.3955 C.ar    1  UNL1        0.0127
     21 C           3.6752   -1.9679   20.7246 C.ar    1  UNL1        0.0578
     22 CL          3.5368   -1.9587   19.2310 Cl      1  UNL1       -0.0822
     23 C           2.9968   -0.9129   21.5472 C.ar    1  UNL1        0.0127
     24 C           3.1353   -0.9222   23.0408 C.ar    1  UNL1        0.0155
     25 C          -0.2171    3.4868   26.9216 C.2     1  UNL1        0.0047
     26 C          -1.4750    2.9417   26.3129 C.2     1  UNL1        0.0580
     27 C          -2.5991    3.8691   25.9573 C.2     1  UNL1        0.2497
     28 O          -2.3430    5.0534   25.0731 O.2     1  UNL1       -0.2698
     29 N          -3.9792    3.6121   26.4857 N.am    1  UNL1       -0.2794
     30 H          -4.1473    2.8348   27.0660 H       1  UNL1        0.1552
     31 C          -5.1032    4.5395   26.1300 C.ar    1  UNL1        0.0636
     32 C          -5.4616    5.6704   27.0480 C.ar    1  UNL1        0.0159
     33 C          -6.5856    6.5977   26.6922 C.ar    1  UNL1        0.0014
     34 C          -7.3512    6.3942   25.4184 C.ar    1  UNL1        0.0013
     35 C          -6.9928    5.2633   24.5005 C.ar    1  UNL1        0.0153
     36 C          -5.8688    4.3360   24.8563 C.ar    1  UNL1        0.0552
     37 N          -5.5104    3.2051   23.9383 N.pl3   1  UNL1       -0.3560
     38 H          -6.0129    3.0716   23.1023 H       1  UNL1        0.1424
     39 H          -4.7727    2.5965   24.1718 H       1  UNL1        0.1424
@<TRIPOS>BOND
     1     8     9    1
     2     9    10    1
     3    10    11    1
     4    11    14    1
     5    14    15    2
     6    14    16   am
     7    16    18    1
     8    18    19   ar
     9    19    20   ar
    10    20    21   ar
    11    21    22    1
    12    21    23   ar
    13    23    24   ar
    14    11    12    1
    15    12     1    1
    16     1     2   ar
    17     2     3   ar
    18     3     4   ar
    19     4    25    1
    20    25    26    2
    21    26    27    1
    22    27    28    2
    23    27    29   am
    24    29    31    1
    25    31    32   ar
    26    32    33   ar
    27    33    34   ar
    28    34    35   ar
    29    35    36   ar
    30    36    37    1
    31     4     5   ar
    32     5     6   ar
    33     6     7    1
    34    12    13    1
    35    13     9    1
    36    24    18   ar
    37     6     1   ar
    38    36    31   ar
    39    16    17    1
    40    29    30    1
    41    37    38    1
    42    37    39    1
