@<TRIPOS>MOLECULE
*****
 33 35 0 0 0
SMALL
GASTEIGER

@<TRIPOS>ATOM
      1 N          -8.0772  -18.9412   20.3743 N.am    1  UNL1       -0.2508
      2 C          -9.4931  -19.4195   20.2467 C.2     1  UNL1        0.2559
      3 O          -9.8945  -20.2721   19.0796 O.2     1  UNL1       -0.2695
      4 C         -10.5078  -19.0451   21.2861 C.ar    1  UNL1        0.0877
      5 C         -10.4191  -19.6285   22.6651 C.ar    1  UNL1        0.0107
      6 C         -11.4337  -19.2542   23.7045 C.ar    1  UNL1        0.0370
      7 C         -12.5371  -18.2964   23.3650 C.ar    1  UNL1        0.1367
      8 O         -13.5517  -17.9220   24.4044 O.3     1  UNL1       -0.5054
      9 C         -12.6257  -17.7129   21.9859 C.ar    1  UNL1        0.0733
     10 C         -11.6111  -18.0873   20.9465 C.ar    1  UNL1        0.1410
     11 O         -11.6997  -17.5038   19.5675 O.3     1  UNL1       -0.5053
     12 H         -13.4963  -18.2865   25.2658 H       1  UNL1        0.2922
     13 H         -12.3889  -16.9055   19.3553 H       1  UNL1        0.2922
     14 C          -6.8731  -16.3833   23.8753 C.ar    1  UNL1        0.0537
     15 C          -7.9699  -15.9306   22.9577 C.ar    1  UNL1        0.0058
     16 C          -8.3712  -16.7832   21.7907 C.ar    1  UNL1        0.0151
     17 C          -7.6758  -18.0886   21.5413 C.ar    1  UNL1        0.0544
     18 C          -6.5791  -18.5414   22.4589 C.ar    1  UNL1        0.0151
     19 C          -6.1777  -17.6888   23.6259 C.ar    1  UNL1        0.0058
     20 C          -6.8534  -14.7390   27.4872 C.3     1  UNL1        0.1152
     21 N          -7.2548  -15.5917   26.3202 N.am    1  UNL1       -0.2726
     22 C          -8.4394  -16.5053   26.4311 C.3     1  UNL1        0.1152
     23 C          -6.4717  -15.5307   25.0423 C.2     1  UNL1        0.2491
     24 O          -5.2872  -14.6171   24.9315 O.2     1  UNL1       -0.2699
     25 C          -7.0626  -19.3156   19.3349 C.3     1  UNL1        0.1250
     26 C          -5.6044  -19.3416   19.6853 C.ar    1  UNL1       -0.0018
     27 C          -4.7220  -18.1882   19.3094 C.ar    1  UNL1        0.0005
     28 C          -3.2637  -18.2142   19.6599 C.ar    1  UNL1        0.0363
     29 C          -2.6878  -19.3936   20.3862 C.ar    1  UNL1        0.1337
     30 O          -1.2296  -19.4196   20.7366 O.3     1  UNL1       -0.5055
     31 C          -3.5702  -20.5469   20.7620 C.ar    1  UNL1        0.0363
     32 C          -5.0285  -20.5209   20.4116 C.ar    1  UNL1        0.0005
     33 H          -0.6784  -18.6992   20.5018 H       1  UNL1        0.2922
@<TRIPOS>BOND
     1    20    21    1
     2    21    22    1
     3    21    23   am
     4    23    24    2
     5    23    14    1
     6    14    15   ar
     7    15    16   ar
     8    16    17   ar
     9    17     1    1
    10     1    25    1
    11    25    26    1
    12    26    27   ar
    13    27    28   ar
    14    28    29   ar
    15    29    30    1
    16    29    31   ar
    17    31    32   ar
    18     1     2   am
    19     2     3    2
    20     2     4    1
    21     4     5   ar
    22     5     6   ar
    23     6     7   ar
    24     7     8    1
    25     7     9   ar
    26     9    10   ar
    27    10    11    1
    28    17    18   ar
    29    18    19   ar
    30    19    14   ar
    31    32    26   ar
    32    10     4   ar
    33    30    33    1
    34     8    12    1
    35    11    13    1
@<TRIPOS>MOLECULE
*****
 33 35 0 0 0
SMALL
GASTEIGER

@<TRIPOS>ATOM
      1 N           7.5280   -3.4035   22.6757 N.am    1  UNL1       -0.2508
      2 C           7.7796   -3.8405   21.2630 C.2     1  UNL1        0.2559
      3 O           8.9189   -4.7666   20.9561 O.2     1  UNL1       -0.2695
      4 C           6.8918   -3.3513   20.1573 C.ar    1  UNL1        0.0877
      5 C           5.5762   -4.0239   19.8986 C.ar    1  UNL1        0.0107
      6 C           4.6885   -3.5348   18.7929 C.ar    1  UNL1        0.0370
      7 C           5.1163   -2.3731   17.9458 C.ar    1  UNL1        0.1367
      8 O           4.2285   -1.8841   16.8401 O.3     1  UNL1       -0.5054
      9 C           6.4319   -1.7006   18.2044 C.ar    1  UNL1        0.0733
     10 C           7.3196   -2.1897   19.3102 C.ar    1  UNL1        0.1410
     11 O           8.6352   -1.5172   19.5689 O.3     1  UNL1       -0.5053
     12 H           3.4067   -2.3042   16.6785 H       1  UNL1        0.2922
     13 H           8.9025   -0.7915   19.0397 H       1  UNL1        0.2922
     14 C           4.1101   -0.6251   23.5967 C.ar    1  UNL1        0.0537
     15 C           3.9338   -2.1069   23.7483 C.ar    1  UNL1        0.0058
     16 C           5.0731   -3.0330   23.4413 C.ar    1  UNL1        0.0151
     17 C           6.3887   -2.4773   22.9827 C.ar    1  UNL1        0.0544
     18 C           6.5650   -0.9955   22.8311 C.ar    1  UNL1        0.0151
     19 C           5.4257   -0.0694   23.1381 C.ar    1  UNL1        0.0058
     20 C           0.8375    1.5734   23.1420 C.3     1  UNL1        0.1152
     21 N           1.9768    0.6472   22.8350 N.am    1  UNL1       -0.2726
     22 C           2.1221    0.0673   21.4592 C.3     1  UNL1        0.1152
     23 C           2.9708    0.3011   23.9037 C.2     1  UNL1        0.2491
     24 O           2.8254    0.8810   25.2793 O.2     1  UNL1       -0.2699
     25 C           8.4158   -3.8926   23.7814 C.3     1  UNL1        0.1250
     26 C           8.0453   -5.1258   24.5508 C.ar    1  UNL1       -0.0018
     27 C           8.5394   -6.4682   24.0993 C.ar    1  UNL1        0.0005
     28 C           8.1689   -7.7014   24.8687 C.ar    1  UNL1        0.0363
     29 C           7.3043   -7.5921   26.0897 C.ar    1  UNL1        0.1337
     30 O           6.9338   -8.8253   26.8591 O.3     1  UNL1       -0.5055
     31 C           6.8103   -6.2497   26.5411 C.ar    1  UNL1        0.0363
     32 C           7.1808   -5.0166   25.7717 C.ar    1  UNL1        0.0005
     33 H           7.2424   -9.6639   26.5770 H       1  UNL1        0.2922
@<TRIPOS>BOND
     1    20    21    1
     2    21    22    1
     3    21    23   am
     4    23    24    2
     5    23    14    1
     6    14    15   ar
     7    15    16   ar
     8    16    17   ar
     9    17     1    1
    10     1    25    1
    11    25    26    1
    12    26    27   ar
    13    27    28   ar
    14    28    29   ar
    15    29    30    1
    16    29    31   ar
    17    31    32   ar
    18     1     2   am
    19     2     3    2
    20     2     4    1
    21     4     5   ar
    22     5     6   ar
    23     6     7   ar
    24     7     8    1
    25     7     9   ar
    26     9    10   ar
    27    10    11    1
    28    17    18   ar
    29    18    19   ar
    30    19    14   ar
    31    32    26   ar
    32    10     4   ar
    33    30    33    1
    34     8    12    1
    35    11    13    1
@<TRIPOS>MOLECULE
*****
 33 35 0 0 0
SMALL
GASTEIGER

@<TRIPOS>ATOM
      1 N          -8.5882  -18.8543   20.4756 N.am    1  UNL1       -0.2508
      2 C         -10.0216  -19.2852   20.3766 C.2     1  UNL1        0.2559
      3 O         -10.4751  -20.1212   19.2167 O.2     1  UNL1       -0.2695
      4 C         -11.0015  -18.8801   21.4377 C.ar    1  UNL1        0.0877
      5 C         -12.0785  -17.8845   21.1232 C.ar    1  UNL1        0.0107
      6 C         -13.0584  -17.4795   22.1841 C.ar    1  UNL1        0.0370
      7 C         -12.9613  -18.0700   23.5597 C.ar    1  UNL1        0.1367
      8 O         -13.9412  -17.6649   24.6206 O.3     1  UNL1       -0.5054
      9 C         -11.8843  -19.0655   23.8741 C.ar    1  UNL1        0.0733
     10 C         -10.9044  -19.4706   22.8131 C.ar    1  UNL1        0.1410
     11 O          -9.8274  -20.4662   23.1275 O.3     1  UNL1       -0.5053
     12 H         -14.6140  -17.0430   24.4242 H       1  UNL1        0.2922
     13 H          -9.7668  -20.8351   23.9867 H       1  UNL1        0.2922
     14 C          -7.2278  -16.3463   23.9554 C.ar    1  UNL1        0.0537
     15 C          -8.3446  -15.8666   23.0765 C.ar    1  UNL1        0.0058
     16 C          -8.7981  -16.7026   21.9165 C.ar    1  UNL1        0.0151
     17 C          -8.1348  -18.0183   21.6355 C.ar    1  UNL1        0.0544
     18 C          -7.0179  -18.4979   22.5144 C.ar    1  UNL1        0.0151
     19 C          -6.5644  -17.6619   23.6744 C.ar    1  UNL1        0.0058
     20 C          -6.9979  -14.8090   27.6069 C.3     1  UNL1        0.1152
     21 N          -7.4514  -15.6450   26.4470 N.am    1  UNL1       -0.2726
     22 C          -8.5820  -16.6157   26.6188 C.3     1  UNL1        0.1152
     23 C          -6.7743  -15.5103   25.1153 C.2     1  UNL1        0.2491
     24 O          -5.6437  -14.5396   24.9436 O.2     1  UNL1       -0.2699
     25 C          -7.6084  -19.2593   19.4145 C.3     1  UNL1        0.1250
     26 C          -6.1793  -19.5334   19.7786 C.ar    1  UNL1       -0.0018
     27 C          -5.7915  -20.8688   20.3411 C.ar    1  UNL1        0.0005
     28 C          -4.3624  -21.1429   20.7052 C.ar    1  UNL1        0.0363
     29 C          -3.3211  -20.0815   20.5068 C.ar    1  UNL1        0.1337
     30 O          -1.8920  -20.3556   20.8709 O.3     1  UNL1       -0.5055
     31 C          -3.7089  -18.7462   19.9444 C.ar    1  UNL1        0.0363
     32 C          -5.1380  -18.4721   19.5803 C.ar    1  UNL1        0.0005
     33 H          -1.6497  -21.1897   21.2222 H       1  UNL1        0.2922
@<TRIPOS>BOND
     1    20    21    1
     2    21    22    1
     3    21    23   am
     4    23    24    2
     5    23    14    1
     6    14    15   ar
     7    15    16   ar
     8    16    17   ar
     9    17     1    1
    10     1    25    1
    11    25    26    1
    12    26    27   ar
    13    27    28   ar
    14    28    29   ar
    15    29    30    1
    16    29    31   ar
    17    31    32   ar
    18     1     2   am
    19     2     3    2
    20     2     4    1
    21     4     5   ar
    22     5     6   ar
    23     6     7   ar
    24     7     8    1
    25     7     9   ar
    26     9    10   ar
    27    10    11    1
    28    17    18   ar
    29    18    19   ar
    30    19    14   ar
    31    32    26   ar
    32    10     4   ar
    33    30    33    1
    34     8    12    1
    35    11    13    1
@<TRIPOS>MOLECULE
*****
 33 35 0 0 0
SMALL
GASTEIGER

@<TRIPOS>ATOM
      1 N           5.2187   -1.0805   19.0368 N.am    1  UNL1       -0.2508
      2 C           6.4620   -1.8791   18.7793 C.2     1  UNL1        0.2559
      3 O           6.9369   -2.0949   17.3729 O.2     1  UNL1       -0.2695
      4 C           7.2305   -2.4620   19.9281 C.ar    1  UNL1        0.0877
      5 C           8.3980   -1.7170   20.5044 C.ar    1  UNL1        0.0107
      6 C           9.1665   -2.2998   21.6531 C.ar    1  UNL1        0.0370
      7 C           8.7675   -3.6276   22.2257 C.ar    1  UNL1        0.1367
      8 O           9.5360   -4.2104   23.3745 O.3     1  UNL1       -0.5054
      9 C           7.6000   -4.3726   21.6495 C.ar    1  UNL1        0.0733
     10 C           6.8315   -3.7897   20.5006 C.ar    1  UNL1        0.1410
     11 O           5.6641   -4.5347   19.9244 O.3     1  UNL1       -0.5053
     12 H          10.2653   -3.7450   23.7345 H       1  UNL1        0.2922
     13 H           5.4149   -5.3641   20.2821 H       1  UNL1        0.2922
     14 C           3.7941   -0.4331   23.2560 C.ar    1  UNL1        0.0537
     15 C           3.2259   -1.5533   22.4361 C.ar    1  UNL1        0.0058
     16 C           3.7008   -1.7691   21.0297 C.ar    1  UNL1        0.0151
     17 C           4.7438   -0.8647   20.4432 C.ar    1  UNL1        0.0544
     18 C           5.3120    0.2555   21.2631 C.ar    1  UNL1        0.0151
     19 C           4.8371    0.4713   22.6695 C.ar    1  UNL1        0.0058
     20 C           3.5253   -0.7032   27.2063 C.3     1  UNL1        0.1152
     21 N           4.0001   -0.9190   25.7999 N.am    1  UNL1       -0.2726
     22 C           5.1560   -1.8365   25.5311 C.3     1  UNL1        0.1152
     23 C           3.3192   -0.2173   24.6624 C.2     1  UNL1        0.2491
     24 O           2.1634    0.7001   24.9313 O.2     1  UNL1       -0.2699
     25 C           4.4503   -0.4977   17.8880 C.3     1  UNL1        0.1250
     26 C           3.4635    0.6061   18.1288 C.ar    1  UNL1       -0.0018
     27 C           2.0015    0.2923   18.2476 C.ar    1  UNL1        0.0005
     28 C           1.0147    1.3961   18.4883 C.ar    1  UNL1        0.0363
     29 C           1.4900    2.8137   18.6102 C.ar    1  UNL1        0.1337
     30 O           0.5032    3.9174   18.8509 O.3     1  UNL1       -0.5055
     31 C           2.9520    3.1273   18.4913 C.ar    1  UNL1        0.0363
     32 C           3.9387    2.0235   18.2506 C.ar    1  UNL1        0.0005
     33 H          -0.4101    3.7215   18.9252 H       1  UNL1        0.2922
@<TRIPOS>BOND
     1    20    21    1
     2    21    22    1
     3    21    23   am
     4    23    24    2
     5    23    14    1
     6    14    15   ar
     7    15    16   ar
     8    16    17   ar
     9    17     1    1
    10     1    25    1
    11    25    26    1
    12    26    27   ar
    13    27    28   ar
    14    28    29   ar
    15    29    30    1
    16    29    31   ar
    17    31    32   ar
    18     1     2   am
    19     2     3    2
    20     2     4    1
    21     4     5   ar
    22     5     6   ar
    23     6     7   ar
    24     7     8    1
    25     7     9   ar
    26     9    10   ar
    27    10    11    1
    28    17    18   ar
    29    18    19   ar
    30    19    14   ar
    31    32    26   ar
    32    10     4   ar
    33    30    33    1
    34     8    12    1
    35    11    13    1
@<TRIPOS>MOLECULE
*****
 33 35 0 0 0
SMALL
GASTEIGER

@<TRIPOS>ATOM
      1 N           7.3080   -3.1612   22.9360 N.am    1  UNL1       -0.2508
      2 C           7.2200   -3.4688   21.4706 C.2     1  UNL1        0.2559
      3 O           8.1676   -4.4538   20.8527 O.2     1  UNL1       -0.2695
      4 C           6.1842   -2.7915   20.6230 C.ar    1  UNL1        0.0877
      5 C           6.5180   -1.5165   19.9067 C.ar    1  UNL1        0.0107
      6 C           5.4823   -0.8391   19.0591 C.ar    1  UNL1        0.0370
      7 C           4.1128   -1.4367   18.9277 C.ar    1  UNL1        0.1367
      8 O           3.0771   -0.7593   18.0801 O.3     1  UNL1       -0.5054
      9 C           3.7790   -2.7117   19.6439 C.ar    1  UNL1        0.0733
     10 C           4.8147   -3.3891   20.4916 C.ar    1  UNL1        0.1410
     11 O           4.4809   -4.6641   21.2078 O.3     1  UNL1       -0.5053
     12 H           3.2856    0.0371   17.6327 H       1  UNL1        0.2922
     13 H           3.6254   -5.0374   21.1257 H       1  UNL1        0.2922
     14 C           4.4651   -0.2062   24.7897 C.ar    1  UNL1        0.0537
     15 C           5.7898    0.2579   24.2607 C.ar    1  UNL1        0.0058
     16 C           6.7374   -0.7271   23.6428 C.ar    1  UNL1        0.0151
     17 C           6.3604   -2.1762   23.5539 C.ar    1  UNL1        0.0544
     18 C           5.0358   -2.6403   24.0829 C.ar    1  UNL1        0.0151
     19 C           4.0881   -1.6553   24.7008 C.ar    1  UNL1        0.0058
     20 C           1.5386    2.4463   25.1765 C.3     1  UNL1        0.1152
     21 N           2.4862    1.4613   24.5586 N.am    1  UNL1       -0.2726
     22 C           2.4026    1.1588   23.0918 C.3     1  UNL1        0.1152
     23 C           3.5175    0.7788   25.4075 C.2     1  UNL1        0.2491
     24 O           3.6011    1.0813   26.8743 O.2     1  UNL1       -0.2699
     25 C           8.3438   -3.8386   23.7836 C.3     1  UNL1        0.1250
     26 C           7.9909   -5.0775   24.5520 C.ar    1  UNL1       -0.0018
     27 C           7.2391   -4.9692   25.8455 C.ar    1  UNL1        0.0005
     28 C           6.8862   -6.2082   26.6139 C.ar    1  UNL1        0.0363
     29 C           7.2851   -7.5555   26.0887 C.ar    1  UNL1        0.1337
     30 O           6.9323   -8.7945   26.8571 O.3     1  UNL1       -0.5055
     31 C           8.0369   -7.6638   24.7953 C.ar    1  UNL1        0.0363
     32 C           8.3898   -6.4248   24.0269 C.ar    1  UNL1        0.0005
     33 H           6.4627   -8.7269   27.6651 H       1  UNL1        0.2922
@<TRIPOS>BOND
     1    20    21    1
     2    21    22    1
     3    21    23   am
     4    23    24    2
     5    23    14    1
     6    14    15   ar
     7    15    16   ar
     8    16    17   ar
     9    17     1    1
    10     1    25    1
    11    25    26    1
    12    26    27   ar
    13    27    28   ar
    14    28    29   ar
    15    29    30    1
    16    29    31   ar
    17    31    32   ar
    18     1     2   am
    19     2     3    2
    20     2     4    1
    21     4     5   ar
    22     5     6   ar
    23     6     7   ar
    24     7     8    1
    25     7     9   ar
    26     9    10   ar
    27    10    11    1
    28    17    18   ar
    29    18    19   ar
    30    19    14   ar
    31    32    26   ar
    32    10     4   ar
    33    30    33    1
    34     8    12    1
    35    11    13    1
@<TRIPOS>MOLECULE
*****
 33 35 0 0 0
SMALL
GASTEIGER

@<TRIPOS>ATOM
      1 N           7.3615   -1.3147   32.9051 N.am    1  UNL1       -0.2508
      2 C           8.1731   -2.4170   32.2918 C.2     1  UNL1        0.2559
      3 O           9.4673   -2.8363   32.9238 O.2     1  UNL1       -0.2695
      4 C           7.6907   -3.1000   31.0464 C.ar    1  UNL1        0.0877
      5 C           7.9442   -2.4793   29.7045 C.ar    1  UNL1        0.0107
      6 C           7.4618   -3.1622   28.4592 C.ar    1  UNL1        0.0370
      7 C           6.7259   -4.4658   28.5557 C.ar    1  UNL1        0.1367
      8 O           6.2435   -5.1487   27.3104 O.3     1  UNL1       -0.5054
      9 C           6.4724   -5.0864   29.8976 C.ar    1  UNL1        0.0733
     10 C           6.9549   -4.4035   31.1429 C.ar    1  UNL1        0.1410
     11 O           6.7014   -5.0241   32.4848 O.3     1  UNL1       -0.5053
     12 H           6.4019   -4.7610   26.4721 H       1  UNL1        0.2922
     13 H           6.2418   -5.8383   32.5451 H       1  UNL1        0.2922
     14 C           3.4791   -0.0567   31.0091 C.ar    1  UNL1        0.0537
     15 C           3.5241   -1.2669   31.8942 C.ar    1  UNL1        0.0058
     16 C           4.8182   -1.6862   32.5262 C.ar    1  UNL1        0.0151
     17 C           6.0674   -0.8954   32.2731 C.ar    1  UNL1        0.0544
     18 C           6.0224    0.3148   31.3880 C.ar    1  UNL1        0.0151
     19 C           4.7283    0.7341   30.7560 C.ar    1  UNL1        0.0058
     20 C           0.5834    0.3854   28.3316 C.3     1  UNL1        0.1152
     21 N           1.8775   -0.0340   28.9636 N.am    1  UNL1       -0.2726
     22 C           2.8641   -0.8500   28.1820 C.3     1  UNL1        0.1152
     23 C           2.1850    0.3627   30.3771 C.2     1  UNL1        0.2491
     24 O           1.1985    1.1786   31.1586 O.2     1  UNL1       -0.2699
     25 C           7.8439   -0.6318   34.1504 C.3     1  UNL1        0.1250
     26 C           6.8932    0.1853   34.9740 C.ar    1  UNL1       -0.0018
     27 C           6.8756    1.6790   34.8377 C.ar    1  UNL1        0.0005
     28 C           5.9248    2.4962   35.6613 C.ar    1  UNL1        0.0363
     29 C           4.9916    1.8195   36.6213 C.ar    1  UNL1        0.1337
     30 O           4.0409    2.6367   37.4449 O.3     1  UNL1       -0.5055
     31 C           5.0093    0.3259   36.7576 C.ar    1  UNL1        0.0363
     32 C           5.9600   -0.4912   35.9340 C.ar    1  UNL1        0.0005
     33 H           4.0299    3.5697   37.3598 H       1  UNL1        0.2922
@<TRIPOS>BOND
     1    20    21    1
     2    21    22    1
     3    21    23   am
     4    23    24    2
     5    23    14    1
     6    14    15   ar
     7    15    16   ar
     8    16    17   ar
     9    17     1    1
    10     1    25    1
    11    25    26    1
    12    26    27   ar
    13    27    28   ar
    14    28    29   ar
    15    29    30    1
    16    29    31   ar
    17    31    32   ar
    18     1     2   am
    19     2     3    2
    20     2     4    1
    21     4     5   ar
    22     5     6   ar
    23     6     7   ar
    24     7     8    1
    25     7     9   ar
    26     9    10   ar
    27    10    11    1
    28    17    18   ar
    29    18    19   ar
    30    19    14   ar
    31    32    26   ar
    32    10     4   ar
    33    30    33    1
    34     8    12    1
    35    11    13    1
@<TRIPOS>MOLECULE
*****
 33 35 0 0 0
SMALL
GASTEIGER

@<TRIPOS>ATOM
      1 N          -8.6115  -18.9663   20.4484 N.am    1  UNL1       -0.2508
      2 C          -7.6772  -19.7545   19.5792 C.2     1  UNL1        0.2559
      3 O          -8.2235  -20.6199   18.4825 O.2     1  UNL1       -0.2695
      4 C          -6.1965  -19.6774   19.8065 C.ar    1  UNL1        0.0877
      5 C          -5.4670  -18.3890   19.5664 C.ar    1  UNL1        0.0107
      6 C          -3.9863  -18.3118   19.7938 C.ar    1  UNL1        0.0370
      7 C          -3.2352  -19.5231   20.2613 C.ar    1  UNL1        0.1367
      8 O          -1.7545  -19.4460   20.4887 O.3     1  UNL1       -0.5054
      9 C          -3.9647  -20.8116   20.5014 C.ar    1  UNL1        0.0733
     10 C          -5.4454  -20.8887   20.2740 C.ar    1  UNL1        0.1410
     11 O          -6.1750  -22.1772   20.5142 O.3     1  UNL1       -0.5053
     12 H          -1.2988  -18.6411   20.3387 H       1  UNL1        0.2922
     13 H          -5.7058  -22.9338   20.8062 H       1  UNL1        0.2922
     14 C          -6.9727  -16.3702   23.7384 C.ar    1  UNL1        0.0537
     15 C          -6.4651  -17.7710   23.5651 C.ar    1  UNL1        0.0058
     16 C          -7.0114  -18.6364   22.4685 C.ar    1  UNL1        0.0151
     17 C          -8.0653  -18.1009   21.5451 C.ar    1  UNL1        0.0544
     18 C          -8.5728  -16.7001   21.7184 C.ar    1  UNL1        0.0151
     19 C          -8.0265  -15.8347   22.8150 C.ar    1  UNL1        0.0058
     20 C          -6.5442  -14.6245   27.2767 C.3     1  UNL1        0.1152
     21 N          -7.0905  -15.4899   26.1800 N.am    1  UNL1       -0.2726
     22 C          -8.3009  -16.3405   26.4283 C.3     1  UNL1        0.1152
     23 C          -6.4264  -15.5048   24.8351 C.2     1  UNL1        0.2491
     24 O          -5.2161  -14.6543   24.5869 O.2     1  UNL1       -0.2699
     25 C         -10.0922  -19.0435   20.2210 C.3     1  UNL1        0.1250
     26 C         -11.0399  -18.7629   21.3493 C.ar    1  UNL1       -0.0018
     27 C         -10.8574  -19.4495   22.6704 C.ar    1  UNL1        0.0005
     28 C         -11.8051  -19.1690   23.7987 C.ar    1  UNL1        0.0363
     29 C         -12.9354  -18.2018   23.6059 C.ar    1  UNL1        0.1337
     30 O         -13.8831  -17.9213   24.7342 O.3     1  UNL1       -0.5055
     31 C         -13.1179  -17.5152   22.2849 C.ar    1  UNL1        0.0363
     32 C         -12.1701  -17.7958   21.1566 C.ar    1  UNL1        0.0005
     33 H         -13.7691  -18.3502   25.5595 H       1  UNL1        0.2922
@<TRIPOS>BOND
     1    20    21    1
     2    21    22    1
     3    21    23   am
     4    23    24    2
     5    23    14    1
     6    14    15   ar
     7    15    16   ar
     8    16    17   ar
     9    17     1    1
    10     1    25    1
    11    25    26    1
    12    26    27   ar
    13    27    28   ar
    14    28    29   ar
    15    29    30    1
    16    29    31   ar
    17    31    32   ar
    18     1     2   am
    19     2     3    2
    20     2     4    1
    21     4     5   ar
    22     5     6   ar
    23     6     7   ar
    24     7     8    1
    25     7     9   ar
    26     9    10   ar
    27    10    11    1
    28    17    18   ar
    29    18    19   ar
    30    19    14   ar
    31    32    26   ar
    32    10     4   ar
    33    30    33    1
    34     8    12    1
    35    11    13    1
@<TRIPOS>MOLECULE
*****
 33 35 0 0 0
SMALL
GASTEIGER

@<TRIPOS>ATOM
      1 N           4.3652   -1.2604   18.8823 N.am    1  UNL1       -0.2508
      2 C           3.7260   -0.4873   17.7671 C.2     1  UNL1        0.2559
      3 O           3.9051   -0.9336   16.3462 O.2     1  UNL1       -0.2695
      4 C           2.9077    0.7322   18.0727 C.ar    1  UNL1        0.0877
      5 C           1.4241    0.6125   18.2585 C.ar    1  UNL1        0.0107
      6 C           0.6058    1.8319   18.5640 C.ar    1  UNL1        0.0370
      7 C           1.2711    3.1710   18.6838 C.ar    1  UNL1        0.1367
      8 O           0.4528    4.3904   18.9894 O.3     1  UNL1       -0.5054
      9 C           2.7547    3.2906   18.4980 C.ar    1  UNL1        0.0733
     10 C           3.5730    2.0712   18.1924 C.ar    1  UNL1        0.1410
     11 O           5.0567    2.1908   18.0066 O.3     1  UNL1       -0.5053
     12 H          -0.4740    4.3157   19.1055 H       1  UNL1        0.2922
     13 H           5.4723    3.0272   18.0814 H       1  UNL1        0.2922
     14 C           3.8281    0.0786   23.1447 C.ar    1  UNL1        0.0537
     15 C           4.9998    0.5685   22.3467 C.ar    1  UNL1        0.0058
     16 C           5.1789    0.1222   20.9259 C.ar    1  UNL1        0.0151
     17 C           4.1862   -0.8141   20.3031 C.ar    1  UNL1        0.0544
     18 C           3.0144   -1.3040   21.1011 C.ar    1  UNL1        0.0151
     19 C           2.8353   -0.8576   22.5219 C.ar    1  UNL1        0.0058
     20 C           3.9961    0.1276   27.1095 C.3     1  UNL1        0.1152
     21 N           4.1752   -0.3187   25.6887 N.am    1  UNL1       -0.2726
     22 C           4.8805   -1.6087   25.3910 C.3     1  UNL1        0.1152
     23 C           3.6490    0.5249   24.5655 C.2     1  UNL1        0.2491
     24 O           2.9438    1.8148   24.8633 O.2     1  UNL1       -0.2699
     25 C           5.1835   -2.4798   18.5766 C.3     1  UNL1        0.1250
     26 C           6.2696   -2.9095   19.5178 C.ar    1  UNL1       -0.0018
     27 C           5.9363   -3.7531   20.7125 C.ar    1  UNL1        0.0005
     28 C           7.0224   -4.1828   21.6537 C.ar    1  UNL1        0.0363
     29 C           8.4417   -3.7688   21.4002 C.ar    1  UNL1        0.1337
     30 O           9.5278   -4.1985   22.3413 O.3     1  UNL1       -0.5055
     31 C           8.7749   -2.9252   20.2055 C.ar    1  UNL1        0.0363
     32 C           7.6888   -2.4956   19.2643 C.ar    1  UNL1        0.0005
     33 H           9.3197   -4.7255   23.0876 H       1  UNL1        0.2922
@<TRIPOS>BOND
     1    20    21    1
     2    21    22    1
     3    21    23   am
     4    23    24    2
     5    23    14    1
     6    14    15   ar
     7    15    16   ar
     8    16    17   ar
     9    17     1    1
    10     1    25    1
    11    25    26    1
    12    26    27   ar
    13    27    28   ar
    14    28    29   ar
    15    29    30    1
    16    29    31   ar
    17    31    32   ar
    18     1     2   am
    19     2     3    2
    20     2     4    1
    21     4     5   ar
    22     5     6   ar
    23     6     7   ar
    24     7     8    1
    25     7     9   ar
    26     9    10   ar
    27    10    11    1
    28    17    18   ar
    29    18    19   ar
    30    19    14   ar
    31    32    26   ar
    32    10     4   ar
    33    30    33    1
    34     8    12    1
    35    11    13    1
@<TRIPOS>MOLECULE
*****
 33 35 0 0 0
SMALL
GASTEIGER

@<TRIPOS>ATOM
      1 N           4.0838    2.2830   33.0469 N.am    1  UNL1       -0.2508
      2 C           3.0899    2.9960   32.1787 C.2     1  UNL1        0.2559
      3 O           2.5646    4.3400   32.5880 O.2     1  UNL1       -0.2695
      4 C           2.6213    2.3648   30.9011 C.ar    1  UNL1        0.0877
      5 C           3.4781    2.4343   29.6719 C.ar    1  UNL1        0.0107
      6 C           3.0096    1.8032   28.3944 C.ar    1  UNL1        0.0370
      7 C           1.6841    1.1026   28.3460 C.ar    1  UNL1        0.1367
      8 O           1.2155    0.4715   27.0685 O.3     1  UNL1       -0.5054
      9 C           0.8272    1.0331   29.5752 C.ar    1  UNL1        0.0733
     10 C           1.2959    1.6642   30.8528 C.ar    1  UNL1        0.1410
     11 O           0.4390    1.5947   32.0820 O.3     1  UNL1       -0.5053
     12 H           1.7508    0.5150   26.3006 H       1  UNL1        0.2922
     13 H          -0.3890    1.1571   32.0518 H       1  UNL1        0.2922
     14 C           5.6598   -1.7492   31.8190 C.ar    1  UNL1        0.0537
     15 C           6.5069   -0.5251   31.6352 C.ar    1  UNL1        0.0058
     16 C           5.9816    0.8190   32.0445 C.ar    1  UNL1        0.0151
     17 C           4.6091    0.9389   32.6376 C.ar    1  UNL1        0.0544
     18 C           3.7620   -0.2852   32.8214 C.ar    1  UNL1        0.0151
     19 C           4.2873   -1.6292   32.4122 C.ar    1  UNL1        0.0058
     20 C           6.8920   -4.7608   29.5471 C.3     1  UNL1        0.1152
     21 N           6.3666   -3.4167   29.9564 N.am    1  UNL1       -0.2726
     22 C           6.0229   -2.3961   28.9122 C.3     1  UNL1        0.1152
     23 C           6.1851   -3.0933   31.4097 C.2     1  UNL1        0.2491
     24 O           6.5288   -4.1139   32.4538 O.2     1  UNL1       -0.2699
     25 C           4.5524    2.9141   34.3244 C.3     1  UNL1        0.1250
     26 C           4.1731    2.3086   35.6433 C.ar    1  UNL1       -0.0018
     27 C           2.8627    2.6626   36.2819 C.ar    1  UNL1        0.0005
     28 C           2.4834    2.0571   37.6008 C.ar    1  UNL1        0.0363
     29 C           3.4144    1.0976   38.2811 C.ar    1  UNL1        0.1337
     30 O           3.0351    0.4921   39.6000 O.3     1  UNL1       -0.5055
     31 C           4.7247    0.7438   37.6425 C.ar    1  UNL1        0.0363
     32 C           5.1040    1.3493   36.3236 C.ar    1  UNL1        0.0005
     33 H           2.2166    0.7132   39.9989 H       1  UNL1        0.2922
@<TRIPOS>BOND
     1    20    21    1
     2    21    22    1
     3    21    23   am
     4    23    24    2
     5    23    14    1
     6    14    15   ar
     7    15    16   ar
     8    16    17   ar
     9    17     1    1
    10     1    25    1
    11    25    26    1
    12    26    27   ar
    13    27    28   ar
    14    28    29   ar
    15    29    30    1
    16    29    31   ar
    17    31    32   ar
    18     1     2   am
    19     2     3    2
    20     2     4    1
    21     4     5   ar
    22     5     6   ar
    23     6     7   ar
    24     7     8    1
    25     7     9   ar
    26     9    10   ar
    27    10    11    1
    28    17    18   ar
    29    18    19   ar
    30    19    14   ar
    31    32    26   ar
    32    10     4   ar
    33    30    33    1
    34     8    12    1
    35    11    13    1
