@<TRIPOS>MOLECULE
*****
 11 11 0 0 0
SMALL
GASTEIGER

@<TRIPOS>ATOM
      1 C           3.1890  -13.0432   28.5179 C.ar    1  UNL1       -0.0027
      2 C           2.9860  -13.7468   27.2089 C.ar    1  UNL1        0.0178
      3 C           4.1320  -13.8972   26.2527 C.ar    1  UNL1        0.0996
      4 N           5.4808  -13.3441   26.6057 N.ar    1  UNL1       -0.2325
      5 C           5.6838  -12.6406   27.9147 C.ar    1  UNL1        0.1381
      6 CL          7.0327  -12.0874   28.2678 Cl      1  UNL1       -0.0613
      7 C           4.5378  -12.4901   28.8709 C.ar    1  UNL1        0.0279
      8 N           1.5600  -14.0768   30.2580 N.3     1  UNL1       -0.3175
      9 C           2.0431  -12.8927   29.4741 C.3     1  UNL1        0.0923
     10 H           0.7810  -13.7955   30.8534 H       1  UNL1        0.1192
     11 H           2.3195  -14.4334   30.8379 H       1  UNL1        0.1192
@<TRIPOS>BOND
     1     8     9    1
     2     9     1    1
     3     1     2   ar
     4     2     3   ar
     5     3     4   ar
     6     4     5   ar
     7     5     6    1
     8     5     7   ar
     9     7     1   ar
    10     8    10    1
    11     8    11    1
@<TRIPOS>MOLECULE
*****
 11 11 0 0 0
SMALL
GASTEIGER

@<TRIPOS>ATOM
      1 C         -12.8981  -18.1952   23.7592 C.ar    1  UNL1       -0.0027
      2 C         -11.6447  -18.6423   24.4513 C.ar    1  UNL1        0.0178
      3 C         -10.3454  -18.6753   23.7025 C.ar    1  UNL1        0.0996
      4 N         -10.2995  -18.2612   22.2615 N.ar    1  UNL1       -0.2325
      5 C         -11.5528  -17.8140   21.5694 C.ar    1  UNL1        0.1381
      6 CL        -11.5069  -17.3999   20.1284 Cl      1  UNL1       -0.0613
      7 C         -12.8521  -17.7810   22.3183 C.ar    1  UNL1        0.0279
      8 N         -14.2508  -18.6132   25.9376 N.3     1  UNL1       -0.3175
      9 C         -14.1974  -18.1621   24.5080 C.3     1  UNL1        0.0923
     10 H         -15.2050  -18.5240   26.2868 H       1  UNL1        0.1192
     11 H         -13.6273  -18.0343   26.5002 H       1  UNL1        0.1192
@<TRIPOS>BOND
     1     8     9    1
     2     9     1    1
     3     1     2   ar
     4     2     3   ar
     5     3     4   ar
     6     4     5   ar
     7     5     6    1
     8     5     7   ar
     9     7     1   ar
    10     8    10    1
    11     8    11    1
@<TRIPOS>MOLECULE
*****
 11 11 0 0 0
SMALL
GASTEIGER

@<TRIPOS>ATOM
      1 C         -11.7545  -18.3831   23.0922 C.ar    1  UNL1       -0.0027
      2 C         -12.5076  -17.1563   22.6707 C.ar    1  UNL1        0.0178
      3 C         -12.5368  -16.7536   21.2260 C.ar    1  UNL1        0.0996
      4 N         -11.8130  -17.5777   20.2029 N.ar    1  UNL1       -0.2325
      5 C         -11.0599  -18.8046   20.6244 C.ar    1  UNL1        0.1381
      6 CL        -10.3361  -19.6288   19.6012 Cl      1  UNL1       -0.0613
      7 C         -11.0307  -19.2072   22.0690 C.ar    1  UNL1        0.0279
      8 N         -10.7703  -19.8454   25.0008 N.3     1  UNL1       -0.3175
      9 C         -11.7252  -18.7858   24.5368 C.3     1  UNL1        0.0923
     10 H         -10.8857  -19.9915   26.0037 H       1  UNL1        0.1192
     11 H          -9.8136  -19.5489   24.8083 H       1  UNL1        0.1192
@<TRIPOS>BOND
     1     8     9    1
     2     9     1    1
     3     1     2   ar
     4     2     3   ar
     5     3     4   ar
     6     4     5   ar
     7     5     6    1
     8     5     7   ar
     9     7     1   ar
    10     8    10    1
    11     8    11    1
@<TRIPOS>MOLECULE
*****
 11 11 0 0 0
SMALL
GASTEIGER

@<TRIPOS>ATOM
      1 C         -11.3024  -17.1460   20.4970 C.ar    1  UNL1       -0.0027
      2 C         -10.8329  -18.4015   19.8238 C.ar    1  UNL1        0.0178
      3 C         -10.7676  -19.6865   20.5948 C.ar    1  UNL1        0.0996
      4 N         -11.1717  -19.7161   22.0390 N.ar    1  UNL1       -0.2325
      5 C         -11.6412  -18.4606   22.7122 C.ar    1  UNL1        0.1381
      6 CL        -12.0454  -18.4901   24.1565 Cl      1  UNL1       -0.0613
      7 C         -11.7066  -17.1755   21.9412 C.ar    1  UNL1        0.0279
      8 N         -12.6140  -15.5007   18.9730 N.3     1  UNL1       -0.3175
      9 C         -11.3678  -15.8610   19.7260 C.3     1  UNL1        0.0923
     10 H         -12.4835  -14.6011   18.5103 H       1  UNL1        0.1192
     11 H         -13.3978  -15.4383   19.6227 H       1  UNL1        0.1192
@<TRIPOS>BOND
     1     8     9    1
     2     9     1    1
     3     1     2   ar
     4     2     3   ar
     5     3     4   ar
     6     4     5   ar
     7     5     6    1
     8     5     7   ar
     9     7     1   ar
    10     8    10    1
    11     8    11    1
@<TRIPOS>MOLECULE
*****
 11 11 0 0 0
SMALL
GASTEIGER

@<TRIPOS>ATOM
      1 C         -10.6680  -19.4642   22.9351 C.ar    1  UNL1       -0.0027
      2 C         -10.6836  -19.9093   21.5027 C.ar    1  UNL1        0.0178
      3 C         -11.2969  -19.0324   20.4515 C.ar    1  UNL1        0.0996
      4 N         -11.8946  -17.7105   20.8327 N.ar    1  UNL1       -0.2325
      5 C         -11.8789  -17.2654   22.2650 C.ar    1  UNL1        0.1381
      6 CL        -12.4766  -15.9435   22.6462 Cl      1  UNL1       -0.0613
      7 C         -11.2656  -18.1423   23.3162 C.ar    1  UNL1        0.0279
      8 N         -10.2072  -19.9916   25.4370 N.3     1  UNL1       -0.3175
      9 C         -10.0546  -20.3410   23.9863 C.3     1  UNL1        0.0923
     10 H          -9.7313  -20.6908   26.0070 H       1  UNL1        0.1192
     11 H         -11.1978  -19.9720   25.6796 H       1  UNL1        0.1192
@<TRIPOS>BOND
     1     8     9    1
     2     9     1    1
     3     1     2   ar
     4     2     3   ar
     5     3     4   ar
     6     4     5   ar
     7     5     6    1
     8     5     7   ar
     9     7     1   ar
    10     8    10    1
    11     8    11    1
@<TRIPOS>MOLECULE
*****
 11 11 0 0 0
SMALL
GASTEIGER

@<TRIPOS>ATOM
      1 C          -2.1857  -18.2748   20.7945 C.ar    1  UNL1       -0.0027
      2 C          -2.4762  -17.7769   22.1793 C.ar    1  UNL1        0.0178
      3 C          -3.6814  -18.2774   22.9189 C.ar    1  UNL1        0.0996
      4 N          -4.5961  -19.2759   22.2737 N.ar    1  UNL1       -0.2325
      5 C          -4.3056  -19.7739   20.8890 C.ar    1  UNL1        0.1381
      6 CL         -5.2203  -20.7725   20.2437 Cl      1  UNL1       -0.0613
      7 C          -3.1004  -19.2733   20.1494 C.ar    1  UNL1        0.0279
      8 N          -0.9270  -17.8665   18.5587 N.3     1  UNL1       -0.3175
      9 C          -0.9806  -17.7743   20.0549 C.3     1  UNL1        0.0923
     10 H          -0.0425  -17.4827   18.2259 H       1  UNL1        0.1192
     11 H          -1.7002  -17.3360   18.1575 H       1  UNL1        0.1192
@<TRIPOS>BOND
     1     8     9    1
     2     9     1    1
     3     1     2   ar
     4     2     3   ar
     5     3     4   ar
     6     4     5   ar
     7     5     6    1
     8     5     7   ar
     9     7     1   ar
    10     8    10    1
    11     8    11    1
@<TRIPOS>MOLECULE
*****
 11 11 0 0 0
SMALL
GASTEIGER

@<TRIPOS>ATOM
      1 C         -10.0950  -16.3458   21.9291 C.ar    1  UNL1       -0.0027
      2 C         -10.6103  -15.9964   20.5644 C.ar    1  UNL1        0.0178
      3 C         -12.0295  -16.3118   20.1952 C.ar    1  UNL1        0.0996
      4 N         -12.9335  -16.9765   21.1907 N.ar    1  UNL1       -0.2325
      5 C         -12.4182  -17.3258   22.5554 C.ar    1  UNL1        0.1381
      6 CL        -13.3222  -17.9905   23.5509 Cl      1  UNL1       -0.0613
      7 C         -10.9990  -17.0104   22.9246 C.ar    1  UNL1        0.0279
      8 N          -7.9815  -14.8564   21.6742 N.3     1  UNL1       -0.3175
      9 C          -8.6757  -16.0304   22.2984 C.3     1  UNL1        0.0923
     10 H          -7.0305  -14.7914   22.0371 H       1  UNL1        0.1192
     11 H          -8.4904  -14.0015   21.8991 H       1  UNL1        0.1192
@<TRIPOS>BOND
     1     8     9    1
     2     9     1    1
     3     1     2   ar
     4     2     3   ar
     5     3     4   ar
     6     4     5   ar
     7     5     6    1
     8     5     7   ar
     9     7     1   ar
    10     8    10    1
    11     8    11    1
@<TRIPOS>MOLECULE
*****
 11 11 0 0 0
SMALL
GASTEIGER

@<TRIPOS>ATOM
      1 C          -4.3895  -19.2869   20.5513 C.ar    1  UNL1       -0.0027
      2 C          -3.6188  -19.5915   21.8016 C.ar    1  UNL1        0.0178
      3 C          -2.1485  -19.3015   21.8657 C.ar    1  UNL1        0.0996
      4 N          -1.4489  -18.7068   20.6795 N.ar    1  UNL1       -0.2325
      5 C          -2.2196  -18.4023   19.4293 C.ar    1  UNL1        0.1381
      6 CL         -1.5201  -17.8076   18.2430 Cl      1  UNL1       -0.0613
      7 C          -3.6899  -18.6923   19.3652 C.ar    1  UNL1        0.0279
      8 N          -6.8199  -18.4988   20.0801 N.3     1  UNL1       -0.3175
      9 C          -5.8598  -19.5770   20.4872 C.3     1  UNL1        0.0923
     10 H          -7.7706  -18.8683   20.0910 H       1  UNL1        0.1192
     11 H          -6.5910  -18.1771   19.1396 H       1  UNL1        0.1192
@<TRIPOS>BOND
     1     8     9    1
     2     9     1    1
     3     1     2   ar
     4     2     3   ar
     5     3     4   ar
     6     4     5   ar
     7     5     6    1
     8     5     7   ar
     9     7     1   ar
    10     8    10    1
    11     8    11    1
@<TRIPOS>MOLECULE
*****
 11 11 0 0 0
SMALL
GASTEIGER

@<TRIPOS>ATOM
      1 C          -9.2831  -19.9262   22.9777 C.ar    1  UNL1       -0.0027
      2 C          -7.8836  -19.7200   22.4791 C.ar    1  UNL1        0.0178
      3 C          -7.6458  -18.9795   21.1965 C.ar    1  UNL1        0.0996
      4 N          -8.8076  -18.4453   20.4124 N.ar    1  UNL1       -0.2325
      5 C         -10.2072  -18.6516   20.9110 C.ar    1  UNL1        0.1381
      6 CL        -11.3691  -18.1174   20.1269 Cl      1  UNL1       -0.0613
      7 C         -10.4449  -19.3921   22.1936 C.ar    1  UNL1        0.0279
      8 N         -10.2154  -19.9855   25.4020 N.3     1  UNL1       -0.3175
      9 C          -9.5209  -20.6667   24.2603 C.3     1  UNL1        0.0923
     10 H         -10.2917  -20.6314   26.1877 H       1  UNL1        0.1192
     11 H         -11.1482  -19.6956   25.1083 H       1  UNL1        0.1192
@<TRIPOS>BOND
     1     8     9    1
     2     9     1    1
     3     1     2   ar
     4     2     3   ar
     5     3     4   ar
     6     4     5   ar
     7     5     6    1
     8     5     7   ar
     9     7     1   ar
    10     8    10    1
    11     8    11    1
