@<TRIPOS>MOLECULE
*****
 31 35 0 0 0
SMALL
GASTEIGER

@<TRIPOS>ATOM
      1 C           6.7643   -4.2474   23.2580 C.ar    1  UNL1        0.1873
      2 N           7.6047   -5.0551   22.3139 N.ar    1  UNL1       -0.1273
      3 N           7.2070   -4.6929   20.9137 N.ar    1  UNL1       -0.1316
      4 C           6.1208   -3.6614   20.9924 C.ar    1  UNL1        0.1615
      5 N           5.8472   -3.3860   22.4413 N.ar    1  UNL1       -0.2944
      6 C           4.7984   -2.3865   22.8297 C.3     1  UNL1        0.1302
      7 C           4.0231   -1.6623   21.7692 C.3     1  UNL1        0.1186
      8 N           4.2967   -1.9377   20.3203 N.am    1  UNL1       -0.2688
      9 C           3.5215   -1.2136   19.2598 C.2     1  UNL1        0.2493
     10 O           3.7951   -1.4889   17.8109 O.2     1  UNL1       -0.2699
     11 C           5.3456   -2.9373   19.9319 C.3     1  UNL1        0.1343
     12 C           5.6192   -3.2126   18.4830 C.3     1  UNL1        0.0298
     13 C           2.4727   -0.2141   19.6483 C.ar    1  UNL1        0.0536
     14 C           2.7573    1.2543   19.5347 C.ar    1  UNL1        0.0045
     15 C           1.7083    2.2538   19.9232 C.ar    1  UNL1        0.0006
     16 C           0.3749    1.7849   20.4252 C.ar    1  UNL1        0.0060
     17 C           0.0903    0.3165   20.5388 C.ar    1  UNL1        0.0006
     18 C           1.1391   -0.6829   20.1503 C.ar    1  UNL1        0.0045
     19 C          -0.6740    2.7844   20.8137 C.ar    1  UNL1        0.0295
     20 C          -1.0293    3.1909   22.2131 C.ar    1  UNL1        0.0070
     21 C          -2.1266    4.2105   22.1352 C.ar    1  UNL1        0.0075
     22 C          -2.4495    4.4343   20.6875 C.ar    1  UNL1        0.0354
     23 S          -1.5517    3.5529   19.8707 S.2     1  UNL1       -0.0864
     24 C           7.1120   -5.0901   27.0309 C.ar    1  UNL1        0.2054
     25 N           7.1626   -5.4960   25.5877 N.ar    1  UNL1       -0.2088
     26 C           6.8295   -4.2930   24.7559 C.ar    1  UNL1        0.1573
     27 C           6.5729   -3.1436   25.6849 C.ar    1  UNL1        0.2033
     28 O           6.7476   -3.6363   27.0909 O.2     1  UNL1       -0.4352
     29 C           8.1257   -7.2687   28.0188 C.3     1  UNL1        0.0097
     30 C           7.3789   -5.9815   28.2073 C.3     1  UNL1        0.0766
     31 C           6.8992   -5.5857   29.5723 C.3     1  UNL1        0.0097
@<TRIPOS>BOND
     1    29    30    1
     2    30    31    1
     3    30    24    1
     4    24    25   ar
     5    25    26   ar
     6    26     1    1
     7     1     2   ar
     8     2     3   ar
     9     3     4   ar
    10     4     5   ar
    11     5     6    1
    12     6     7    1
    13     7     8    1
    14     8     9   am
    15     9    10    2
    16     9    13    1
    17    13    14   ar
    18    14    15   ar
    19    15    16   ar
    20    16    19    1
    21    19    20   ar
    22    20    21   ar
    23    21    22   ar
    24    22    23   ar
    25    16    17   ar
    26    17    18   ar
    27     8    11    1
    28    11    12    1
    29    26    27   ar
    30    27    28   ar
    31    28    24   ar
    32     5     1   ar
    33    18    13   ar
    34    11     4    1
    35    23    19   ar
@<TRIPOS>MOLECULE
*****
 31 35 0 0 0
SMALL
GASTEIGER

@<TRIPOS>ATOM
      1 C          -0.4396    2.7452   20.5628 C.ar    1  UNL1        0.1873
      2 N          -1.6628    3.4343   20.0347 N.ar    1  UNL1       -0.1273
      3 N          -2.5234    3.8116   21.2039 N.ar    1  UNL1       -0.1316
      4 C          -1.8322    3.3556   22.4546 C.ar    1  UNL1        0.1615
      5 N          -0.5443    2.6965   22.0583 N.ar    1  UNL1       -0.2944
      6 C           0.3667    2.1372   23.1105 C.3     1  UNL1        0.1302
      7 C          -0.0101    2.2369   24.5591 C.3     1  UNL1        0.1186
      8 N          -1.2980    2.8960   24.9553 N.am    1  UNL1       -0.2688
      9 C          -1.6749    2.9958   26.4037 C.2     1  UNL1        0.2493
     10 O          -2.9628    3.6548   26.7999 O.2     1  UNL1       -0.2699
     11 C          -2.2090    3.4553   23.9030 C.3     1  UNL1        0.1343
     12 C          -3.4969    4.1144   24.2992 C.3     1  UNL1        0.0298
     13 C          -0.7639    2.4365   27.4559 C.ar    1  UNL1        0.0536
     14 C           0.3174    3.2935   28.0444 C.ar    1  UNL1        0.0045
     15 C           1.2284    2.7341   29.0967 C.ar    1  UNL1        0.0006
     16 C           1.0582    1.3178   29.5604 C.ar    1  UNL1        0.0060
     17 C          -0.0231    0.4608   28.9718 C.ar    1  UNL1        0.0006
     18 C          -0.9341    1.0201   27.9196 C.ar    1  UNL1        0.0045
     19 C           1.9692    0.7584   30.6126 C.ar    1  UNL1        0.0295
     20 C           2.2517    1.3727   31.9516 C.ar    1  UNL1        0.0070
     21 C           3.2147    0.4805   32.6771 C.ar    1  UNL1        0.0075
     22 C           3.5275   -0.6854   31.7865 C.ar    1  UNL1        0.0354
     23 S           2.7577   -0.5136   30.5105 S.2     1  UNL1       -0.0864
     24 C           2.3163    0.6821   18.7699 C.ar    1  UNL1        0.2054
     25 N           1.1728    0.7802   19.7358 N.ar    1  UNL1       -0.2088
     26 C           0.6899    2.2003   19.7398 C.ar    1  UNL1        0.1573
     27 C           1.5349    2.9800   18.7764 C.ar    1  UNL1        0.2033
     28 O           2.5400    2.0417   18.1770 O.2     1  UNL1       -0.4352
     29 C           3.7443   -0.7135   17.1077 C.3     1  UNL1        0.0097
     30 C           3.0986   -0.5577   18.4526 C.3     1  UNL1        0.0766
     31 C           3.2352   -1.6418   19.4802 C.3     1  UNL1        0.0097
@<TRIPOS>BOND
     1    29    30    1
     2    30    31    1
     3    30    24    1
     4    24    25   ar
     5    25    26   ar
     6    26     1    1
     7     1     2   ar
     8     2     3   ar
     9     3     4   ar
    10     4     5   ar
    11     5     6    1
    12     6     7    1
    13     7     8    1
    14     8     9   am
    15     9    10    2
    16     9    13    1
    17    13    14   ar
    18    14    15   ar
    19    15    16   ar
    20    16    19    1
    21    19    20   ar
    22    20    21   ar
    23    21    22   ar
    24    22    23   ar
    25    16    17   ar
    26    17    18   ar
    27     8    11    1
    28    11    12    1
    29    26    27   ar
    30    27    28   ar
    31    28    24   ar
    32     5     1   ar
    33    18    13   ar
    34    11     4    1
    35    23    19   ar
@<TRIPOS>MOLECULE
*****
 31 35 0 0 0
SMALL
GASTEIGER

@<TRIPOS>ATOM
      1 C           8.0998   -5.3864   27.5704 C.ar    1  UNL1        0.1873
      2 N           9.2545   -6.3327   27.4249 N.ar    1  UNL1       -0.1273
      3 N           9.5238   -6.5135   25.9604 N.ar    1  UNL1       -0.1316
      4 C           8.5357   -5.6789   25.2008 C.ar    1  UNL1        0.1615
      5 N           7.6556   -4.9823   26.1959 N.ar    1  UNL1       -0.2944
      6 C           6.5634   -4.0700   25.7218 C.3     1  UNL1        0.1302
      7 C           6.3512   -3.8543   24.2525 C.3     1  UNL1        0.1186
      8 N           7.2313   -4.5509   23.2575 N.am    1  UNL1       -0.2688
      9 C           7.0192   -4.3353   21.7883 C.2     1  UNL1        0.2493
     10 O           7.8993   -5.0319   20.7933 O.2     1  UNL1       -0.2699
     11 C           8.3236   -5.4633   23.7317 C.3     1  UNL1        0.1343
     12 C           9.2037   -6.1599   22.7366 C.3     1  UNL1        0.0298
     13 C           5.9270   -3.4230   21.3142 C.ar    1  UNL1        0.0536
     14 C           4.6857   -3.9965   20.6976 C.ar    1  UNL1        0.0045
     15 C           3.5935   -3.0841   20.2235 C.ar    1  UNL1        0.0006
     16 C           3.7426   -1.5984   20.3660 C.ar    1  UNL1        0.0060
     17 C           4.9839   -1.0250   20.9827 C.ar    1  UNL1        0.0006
     18 C           6.0761   -1.9372   21.4568 C.ar    1  UNL1        0.0045
     19 C           2.6504   -0.6860   19.8919 C.ar    1  UNL1        0.0295
     20 C           1.3067   -0.5106   20.5352 C.ar    1  UNL1        0.0070
     21 C           0.5360    0.4949   19.7321 C.ar    1  UNL1        0.0075
     22 C           1.4034    0.9410   18.5925 C.ar    1  UNL1        0.0354
     23 S           2.7102    0.2111   18.6912 S.2     1  UNL1       -0.0864
     24 C           6.5361   -3.5138   30.5894 C.ar    1  UNL1        0.2054
     25 N           7.0927   -3.5191   29.1964 N.ar    1  UNL1       -0.2088
     26 C           7.4955   -4.9251   28.8635 C.ar    1  UNL1        0.1573
     27 C           7.1878   -5.7889   30.0506 C.ar    1  UNL1        0.2033
     28 O           6.5949   -4.9167   31.1172 O.2     1  UNL1       -0.4352
     29 C           6.1013   -0.9548   30.7014 C.3     1  UNL1        0.0097
     30 C           6.0126   -2.3162   31.3251 C.3     1  UNL1        0.0766
     31 C           5.4004   -2.4797   32.6847 C.3     1  UNL1        0.0097
@<TRIPOS>BOND
     1    29    30    1
     2    30    31    1
     3    30    24    1
     4    24    25   ar
     5    25    26   ar
     6    26     1    1
     7     1     2   ar
     8     2     3   ar
     9     3     4   ar
    10     4     5   ar
    11     5     6    1
    12     6     7    1
    13     7     8    1
    14     8     9   am
    15     9    10    2
    16     9    13    1
    17    13    14   ar
    18    14    15   ar
    19    15    16   ar
    20    16    19    1
    21    19    20   ar
    22    20    21   ar
    23    21    22   ar
    24    22    23   ar
    25    16    17   ar
    26    17    18   ar
    27     8    11    1
    28    11    12    1
    29    26    27   ar
    30    27    28   ar
    31    28    24   ar
    32     5     1   ar
    33    18    13   ar
    34    11     4    1
    35    23    19   ar
@<TRIPOS>MOLECULE
*****
 31 35 0 0 0
SMALL
GASTEIGER

@<TRIPOS>ATOM
      1 C           1.7407    0.4770   19.1638 C.ar    1  UNL1        0.1873
      2 N           0.8417    1.2374   18.2346 N.ar    1  UNL1       -0.1273
      3 N          -0.0520    2.1100   19.0652 N.ar    1  UNL1       -0.1316
      4 C           0.2947    1.8889   20.5077 C.ar    1  UNL1        0.1615
      5 N           1.4027    0.8797   20.5687 N.ar    1  UNL1       -0.2944
      6 C           1.9607    0.4577   21.8955 C.3     1  UNL1        0.1302
      7 C           1.4106    1.0450   23.1615 C.3     1  UNL1        0.1186
      8 N           0.3026    2.0543   23.1005 N.am    1  UNL1       -0.2688
      9 C          -0.2475    2.6416   24.3664 C.2     1  UNL1        0.2493
     10 O          -1.3555    3.6508   24.3054 O.2     1  UNL1       -0.2699
     11 C          -0.2554    2.4762   21.7736 C.3     1  UNL1        0.1343
     12 C          -1.3634    3.4855   21.7126 C.3     1  UNL1        0.0298
     13 C           0.3105    2.2196   25.6932 C.ar    1  UNL1        0.0536
     14 C          -0.3964    1.1762   26.5066 C.ar    1  UNL1        0.0045
     15 C           0.1616    0.7542   27.8335 C.ar    1  UNL1        0.0006
     16 C           1.4265    1.3757   28.3470 C.ar    1  UNL1        0.0060
     17 C           2.1334    2.4192   27.5337 C.ar    1  UNL1        0.0006
     18 C           1.5755    2.8411   26.2069 C.ar    1  UNL1        0.0045
     19 C           1.9845    0.9538   29.6739 C.ar    1  UNL1        0.0295
     20 C           1.9863    1.7730   30.9304 C.ar    1  UNL1        0.0070
     21 C           2.6416    0.9641   32.0103 C.ar    1  UNL1        0.0075
     22 C           3.0449   -0.3552   31.4212 C.ar    1  UNL1        0.0354
     23 S           2.6387   -0.3615   29.9772 S.2     1  UNL1       -0.0864
     24 C           4.2929   -2.4206   18.7687 C.ar    1  UNL1        0.2054
     25 N           3.2180   -1.7180   19.5441 N.ar    1  UNL1       -0.2088
     26 C           2.7931   -0.5124   18.7593 C.ar    1  UNL1        0.1573
     27 C           3.6053   -0.4698   17.4989 C.ar    1  UNL1        0.2033
     28 O           4.5322   -1.6491   17.5047 O.2     1  UNL1       -0.4352
     29 C           4.4193   -5.0144   18.8479 C.3     1  UNL1        0.0097
     30 C           5.0036   -3.6743   19.1843 C.3     1  UNL1        0.0766
     31 C           6.2986   -3.5883   19.9363 C.3     1  UNL1        0.0097
@<TRIPOS>BOND
     1    29    30    1
     2    30    31    1
     3    30    24    1
     4    24    25   ar
     5    25    26   ar
     6    26     1    1
     7     1     2   ar
     8     2     3   ar
     9     3     4   ar
    10     4     5   ar
    11     5     6    1
    12     6     7    1
    13     7     8    1
    14     8     9   am
    15     9    10    2
    16     9    13    1
    17    13    14   ar
    18    14    15   ar
    19    15    16   ar
    20    16    19    1
    21    19    20   ar
    22    20    21   ar
    23    21    22   ar
    24    22    23   ar
    25    16    17   ar
    26    17    18   ar
    27     8    11    1
    28    11    12    1
    29    26    27   ar
    30    27    28   ar
    31    28    24   ar
    32     5     1   ar
    33    18    13   ar
    34    11     4    1
    35    23    19   ar
@<TRIPOS>MOLECULE
*****
 31 35 0 0 0
SMALL
GASTEIGER

@<TRIPOS>ATOM
      1 C          -1.1765    2.7019   26.8657 C.ar    1  UNL1        0.1873
      2 N          -2.2618    3.7340   26.7825 N.ar    1  UNL1       -0.1273
      3 N          -2.4528    4.0903   25.3380 N.ar    1  UNL1       -0.1316
      4 C          -1.4856    3.2785   24.5284 C.ar    1  UNL1        0.1615
      5 N          -0.6968    2.4204   25.4726 N.ar    1  UNL1       -0.2944
      6 C           0.3564    1.4935   24.9419 C.3     1  UNL1        0.1302
      7 C           0.6209    1.4247   23.4669 C.3     1  UNL1        0.1186
      8 N          -0.1679    2.2828   22.5228 N.am    1  UNL1       -0.2688
      9 C           0.0964    2.2141   21.0479 C.2     1  UNL1        0.2493
     10 O          -0.6923    3.0722   20.1037 O.2     1  UNL1       -0.2699
     11 C          -1.2212    3.2097   23.0536 C.3     1  UNL1        0.1343
     12 C          -2.0100    4.0678   22.1094 C.3     1  UNL1        0.0298
     13 C           1.1496    1.2872   20.5172 C.ar    1  UNL1        0.0536
     14 C           2.5129    1.8150   20.1812 C.ar    1  UNL1        0.0045
     15 C           3.5661    0.8880   19.6504 C.ar    1  UNL1        0.0006
     16 C           3.2560   -0.5666   19.4557 C.ar    1  UNL1        0.0060
     17 C           1.8928   -1.0943   19.7918 C.ar    1  UNL1        0.0006
     18 C           0.8396   -0.1674   20.3225 C.ar    1  UNL1        0.0045
     19 C           4.3093   -1.4935   18.9250 C.ar    1  UNL1        0.0295
     20 C           4.2391   -2.9918   18.9106 C.ar    1  UNL1        0.0070
     21 C           5.5040   -3.5091   18.2922 C.ar    1  UNL1        0.0075
     22 C           6.3559   -2.3305   17.9244 C.ar    1  UNL1        0.0354
     23 S           5.6175   -1.0847   18.3155 S.2     1  UNL1       -0.0864
     24 C           0.4905    1.7154   30.2292 C.ar    1  UNL1        0.2054
     25 N           0.2226    2.7149   29.1432 N.ar    1  UNL1       -0.2088
     26 C          -0.6614    2.0634   28.1214 C.ar    1  UNL1        0.1573
     27 C          -0.9399    0.6613   28.5759 C.ar    1  UNL1        0.2033
     28 O          -0.2280    0.4462   29.8785 O.2     1  UNL1       -0.4352
     29 C           2.4361    0.9909   31.7912 C.3     1  UNL1        0.0097
     30 C           1.3295    1.9449   31.4512 C.3     1  UNL1        0.0766
     31 C           1.0621    3.1282   32.3333 C.3     1  UNL1        0.0097
@<TRIPOS>BOND
     1    29    30    1
     2    30    31    1
     3    30    24    1
     4    24    25   ar
     5    25    26   ar
     6    26     1    1
     7     1     2   ar
     8     2     3   ar
     9     3     4   ar
    10     4     5   ar
    11     5     6    1
    12     6     7    1
    13     7     8    1
    14     8     9   am
    15     9    10    2
    16     9    13    1
    17    13    14   ar
    18    14    15   ar
    19    15    16   ar
    20    16    19    1
    21    19    20   ar
    22    20    21   ar
    23    21    22   ar
    24    22    23   ar
    25    16    17   ar
    26    17    18   ar
    27     8    11    1
    28    11    12    1
    29    26    27   ar
    30    27    28   ar
    31    28    24   ar
    32     5     1   ar
    33    18    13   ar
    34    11     4    1
    35    23    19   ar
@<TRIPOS>MOLECULE
*****
 31 35 0 0 0
SMALL
GASTEIGER

@<TRIPOS>ATOM
      1 C           7.6997   -5.0425   22.4270 C.ar    1  UNL1        0.1873
      2 N           8.3647   -6.2787   21.8984 N.ar    1  UNL1       -0.1273
      3 N           8.7471   -7.1358   23.0685 N.ar    1  UNL1       -0.1316
      4 C           8.3183   -6.4293   24.3204 C.ar    1  UNL1        0.1615
      5 N           7.6710   -5.1356   23.9239 N.ar    1  UNL1       -0.2944
      6 C           7.1390   -4.2094   24.9770 C.3     1  UNL1        0.1302
      7 C           7.2544   -4.5770   26.4268 C.3     1  UNL1        0.1186
      8 N           7.9017   -5.8707   26.8233 N.am    1  UNL1       -0.2688
      9 C           8.0171   -6.2383   28.2729 C.2     1  UNL1        0.2493
     10 O           8.6645   -7.5320   28.6694 O.2     1  UNL1       -0.2699
     11 C           8.4337   -6.7969   25.7700 C.3     1  UNL1        0.1343
     12 C           9.0810   -8.0906   26.1665 C.3     1  UNL1        0.0298
     13 C           7.4852   -5.3121   29.3261 C.ar    1  UNL1        0.0536
     14 C           7.2006   -5.8291   30.7051 C.ar    1  UNL1        0.0045
     15 C           6.6686   -4.9028   31.7583 C.ar    1  UNL1        0.0006
     16 C           6.4212   -3.4597   31.4324 C.ar    1  UNL1        0.0060
     17 C           6.7058   -2.9428   30.0534 C.ar    1  UNL1        0.0006
     18 C           7.2378   -3.8689   29.0002 C.ar    1  UNL1        0.0045
     19 C           5.8892   -2.5335   32.4856 C.ar    1  UNL1        0.0295
     20 C           4.5646   -2.6547   33.1790 C.ar    1  UNL1        0.0070
     21 C           4.4452   -1.5196   34.1522 C.ar    1  UNL1        0.0075
     22 C           5.6961   -0.6967   34.0604 C.ar    1  UNL1        0.0354
     23 S           6.5886   -1.3234   33.0303 S.2     1  UNL1       -0.0864
     24 C           5.7040   -2.5688   20.1990 C.ar    1  UNL1        0.2054
     25 N           5.8349   -3.8898   20.8976 N.ar    1  UNL1       -0.2088
     26 C           7.1583   -3.9117   21.6034 C.ar    1  UNL1        0.1573
     27 C           7.8453   -2.6044   21.3411 C.ar    1  UNL1        0.2033
     28 O           6.9466   -1.7744   20.4731 O.2     1  UNL1       -0.4352
     29 C           3.2020   -1.8924   20.0189 C.3     1  UNL1        0.0097
     30 C           4.5358   -2.1210   19.3717 C.3     1  UNL1        0.0766
     31 C           4.7013   -1.9017   17.8971 C.3     1  UNL1        0.0097
@<TRIPOS>BOND
     1    29    30    1
     2    30    31    1
     3    30    24    1
     4    24    25   ar
     5    25    26   ar
     6    26     1    1
     7     1     2   ar
     8     2     3   ar
     9     3     4   ar
    10     4     5   ar
    11     5     6    1
    12     6     7    1
    13     7     8    1
    14     8     9   am
    15     9    10    2
    16     9    13    1
    17    13    14   ar
    18    14    15   ar
    19    15    16   ar
    20    16    19    1
    21    19    20   ar
    22    20    21   ar
    23    21    22   ar
    24    22    23   ar
    25    16    17   ar
    26    17    18   ar
    27     8    11    1
    28    11    12    1
    29    26    27   ar
    30    27    28   ar
    31    28    24   ar
    32     5     1   ar
    33    18    13   ar
    34    11     4    1
    35    23    19   ar
@<TRIPOS>MOLECULE
*****
 31 35 0 0 0
SMALL
GASTEIGER

@<TRIPOS>ATOM
      1 C           3.2368   -1.2576   20.4587 C.ar    1  UNL1        0.1873
      2 N           3.7926   -1.5591   19.0985 N.ar    1  UNL1       -0.1273
      3 N           4.9940   -2.4401   19.2736 N.ar    1  UNL1       -0.1316
      4 C           5.1806   -2.6830   20.7420 C.ar    1  UNL1        0.1615
      5 N           4.0946   -1.9522   21.4744 N.ar    1  UNL1       -0.2944
      6 C           4.0272   -2.0136   22.9716 C.3     1  UNL1        0.1302
      7 C           5.0457   -2.8059   23.7364 C.3     1  UNL1        0.1186
      8 N           6.1317   -3.5368   23.0040 N.am    1  UNL1       -0.2688
      9 C           7.1502   -4.3290   23.7687 C.2     1  UNL1        0.2493
     10 O           8.2362   -5.0599   23.0363 O.2     1  UNL1       -0.2699
     11 C           6.1991   -3.4753   21.5067 C.3     1  UNL1        0.1343
     12 C           7.2851   -4.2061   20.7743 C.3     1  UNL1        0.0298
     13 C           7.0828   -4.3904   25.2659 C.ar    1  UNL1        0.0536
     14 C           6.9112   -5.7115   25.9554 C.ar    1  UNL1        0.0045
     15 C           6.8437   -5.7729   27.4527 C.ar    1  UNL1        0.0006
     16 C           6.9478   -4.5132   28.2604 C.ar    1  UNL1        0.0060
     17 C           7.1194   -3.1922   27.5709 C.ar    1  UNL1        0.0006
     18 C           7.1869   -3.1308   26.0737 C.ar    1  UNL1        0.0045
     19 C           6.8804   -4.5746   29.7577 C.ar    1  UNL1        0.0295
     20 C           6.5383   -3.4360   30.6723 C.ar    1  UNL1        0.0070
     21 C           6.5897   -3.9430   32.0830 C.ar    1  UNL1        0.0075
     22 C           6.9634   -5.3952   32.0403 C.ar    1  UNL1        0.0354
     23 S           7.1431   -5.7855   30.6031 S.2     1  UNL1       -0.0864
     24 C           0.5801    1.2818   21.7076 C.ar    1  UNL1        0.2054
     25 N           1.9689    0.7156   21.7408 N.ar    1  UNL1       -0.2088
     26 C           2.0343   -0.4102   20.7518 C.ar    1  UNL1        0.1573
     27 C           0.6861   -0.5399   20.1071 C.ar    1  UNL1        0.2033
     28 O          -0.2126    0.5058   20.6979 O.2     1  UNL1       -0.4352
     29 C           0.0712    2.3192   24.0345 C.3     1  UNL1        0.0097
     30 C           0.0733    2.4233   22.5381 C.3     1  UNL1        0.0766
     31 C          -0.4315    3.6690   21.8723 C.3     1  UNL1        0.0097
@<TRIPOS>BOND
     1    29    30    1
     2    30    31    1
     3    30    24    1
     4    24    25   ar
     5    25    26   ar
     6    26     1    1
     7     1     2   ar
     8     2     3   ar
     9     3     4   ar
    10     4     5   ar
    11     5     6    1
    12     6     7    1
    13     7     8    1
    14     8     9   am
    15     9    10    2
    16     9    13    1
    17    13    14   ar
    18    14    15   ar
    19    15    16   ar
    20    16    19    1
    21    19    20   ar
    22    20    21   ar
    23    21    22   ar
    24    22    23   ar
    25    16    17   ar
    26    17    18   ar
    27     8    11    1
    28    11    12    1
    29    26    27   ar
    30    27    28   ar
    31    28    24   ar
    32     5     1   ar
    33    18    13   ar
    34    11     4    1
    35    23    19   ar
@<TRIPOS>MOLECULE
*****
 31 35 0 0 0
SMALL
GASTEIGER

@<TRIPOS>ATOM
      1 C           6.7743   -3.1403   29.3963 C.ar    1  UNL1        0.1873
      2 N           7.5651   -4.2831   29.9608 N.ar    1  UNL1       -0.1273
      3 N           7.9752   -5.1699   28.8227 N.ar    1  UNL1       -0.1316
      4 C           7.4379   -4.5752   27.5547 C.ar    1  UNL1        0.1615
      5 N           6.6957   -3.3209   27.9093 N.ar    1  UNL1       -0.2944
      6 C           6.0442   -2.5051   26.8322 C.3     1  UNL1        0.1302
      7 C           6.1348   -2.9437   25.4006 C.3     1  UNL1        0.1186
      8 N           6.8770   -4.1981   25.0461 N.am    1  UNL1       -0.2688
      9 C           6.9677   -4.6367   23.6146 C.2     1  UNL1        0.2493
     10 O           7.7099   -5.8911   23.2601 O.2     1  UNL1       -0.2699
     11 C           7.5286   -5.0139   26.1232 C.3     1  UNL1        0.1343
     12 C           8.2708   -6.2682   25.7687 C.3     1  UNL1        0.0298
     13 C           6.3162   -3.8210   22.5375 C.ar    1  UNL1        0.0536
     14 C           4.8288   -3.8760   22.3511 C.ar    1  UNL1        0.0045
     15 C           4.1773   -3.0602   21.2740 C.ar    1  UNL1        0.0006
     16 C           5.0131   -2.1895   20.3834 C.ar    1  UNL1        0.0060
     17 C           6.5005   -2.1345   20.5699 C.ar    1  UNL1        0.0006
     18 C           7.1520   -2.9502   21.6469 C.ar    1  UNL1        0.0045
     19 C           4.3616   -1.3737   19.3063 C.ar    1  UNL1        0.0295
     20 C           3.3580   -0.2785   19.5149 C.ar    1  UNL1        0.0070
     21 C           2.9755    0.2621   18.1691 C.ar    1  UNL1        0.0075
     22 C           3.7427   -0.4989   17.1286 C.ar    1  UNL1        0.0354
     23 S           4.5994   -1.5099   17.8315 S.2     1  UNL1       -0.0864
     24 C           5.0011   -0.7703   31.9072 C.ar    1  UNL1        0.2054
     25 N           5.4321   -2.1427   31.4815 N.ar    1  UNL1       -0.2088
     26 C           6.1685   -2.0146   30.1810 C.ar    1  UNL1        0.1573
     27 C           6.1927   -0.5632   29.8029 C.ar    1  UNL1        0.2033
     28 O           5.4712    0.2057   30.8697 O.2     1  UNL1       -0.4352
     29 C           3.2733    0.7181   33.1519 C.3     1  UNL1        0.0097
     30 C           4.2347   -0.4334   33.1517 C.3     1  UNL1        0.0766
     31 C           4.4296   -1.2478   34.3962 C.3     1  UNL1        0.0097
@<TRIPOS>BOND
     1    29    30    1
     2    30    31    1
     3    30    24    1
     4    24    25   ar
     5    25    26   ar
     6    26     1    1
     7     1     2   ar
     8     2     3   ar
     9     3     4   ar
    10     4     5   ar
    11     5     6    1
    12     6     7    1
    13     7     8    1
    14     8     9   am
    15     9    10    2
    16     9    13    1
    17    13    14   ar
    18    14    15   ar
    19    15    16   ar
    20    16    19    1
    21    19    20   ar
    22    20    21   ar
    23    21    22   ar
    24    22    23   ar
    25    16    17   ar
    26    17    18   ar
    27     8    11    1
    28    11    12    1
    29    26    27   ar
    30    27    28   ar
    31    28    24   ar
    32     5     1   ar
    33    18    13   ar
    34    11     4    1
    35    23    19   ar
@<TRIPOS>MOLECULE
*****
 31 35 0 0 0
SMALL
GASTEIGER

@<TRIPOS>ATOM
      1 C           1.0785    1.0233   20.4705 C.ar    1  UNL1        0.1873
      2 N           0.0654    1.8323   19.7161 N.ar    1  UNL1       -0.1273
      3 N          -0.7485    2.6024   20.7133 N.ar    1  UNL1       -0.1316
      4 C          -0.2384    2.2693   22.0841 C.ar    1  UNL1        0.1615
      5 N           0.8908    1.2934   21.9340 N.ar    1  UNL1       -0.2944
      6 C           1.6021    0.7768   23.1493 C.3     1  UNL1        0.1302
      7 C           1.1843    1.2361   24.5148 C.3     1  UNL1        0.1186
      8 N           0.0551    2.2120   24.6649 N.am    1  UNL1       -0.2688
      9 C          -0.3627    2.6713   26.0303 C.2     1  UNL1        0.2493
     10 O          -1.4919    3.6472   26.1804 O.2     1  UNL1       -0.2699
     11 C          -0.6562    2.7286   23.4495 C.3     1  UNL1        0.1343
     12 C          -1.7854    3.7046   23.5996 C.3     1  UNL1        0.0298
     13 C           0.3486    2.1547   27.2456 C.ar    1  UNL1        0.0536
     14 C           1.5569    2.8728   27.7694 C.ar    1  UNL1        0.0045
     15 C           2.2683    2.3561   28.9848 C.ar    1  UNL1        0.0006
     16 C           1.7713    1.1213   29.6763 C.ar    1  UNL1        0.0060
     17 C           0.5630    0.4032   29.1526 C.ar    1  UNL1        0.0006
     18 C          -0.1483    0.9198   27.9373 C.ar    1  UNL1        0.0045
     19 C           2.4827    0.6046   30.8917 C.ar    1  UNL1        0.0295
     20 C           2.5676    1.2918   32.2224 C.ar    1  UNL1        0.0070
     21 C           3.3714    0.4219   33.1428 C.ar    1  UNL1        0.0075
     22 C           3.7833   -0.8029   32.3810 C.ar    1  UNL1        0.0354
     23 S           3.2340   -0.6899   30.9897 S.2     1  UNL1       -0.0864
     24 C           3.4674   -1.8485   19.4161 C.ar    1  UNL1        0.2054
     25 N           2.3692   -1.3100   20.2846 N.ar    1  UNL1       -0.2088
     26 C           2.1001    0.1054   19.8673 C.ar    1  UNL1        0.1573
     27 C           3.0318    0.4417   18.7409 C.ar    1  UNL1        0.2033
     28 O           3.8768   -0.7658   18.4621 O.2     1  UNL1       -0.4352
     29 C           5.4792   -3.4151   19.9146 C.3     1  UNL1        0.0097
     30 C           4.0531   -3.2274   19.4889 C.3     1  UNL1        0.0766
     31 C           3.2129   -4.4188   19.1359 C.3     1  UNL1        0.0097
@<TRIPOS>BOND
     1    29    30    1
     2    30    31    1
     3    30    24    1
     4    24    25   ar
     5    25    26   ar
     6    26     1    1
     7     1     2   ar
     8     2     3   ar
     9     3     4   ar
    10     4     5   ar
    11     5     6    1
    12     6     7    1
    13     7     8    1
    14     8     9   am
    15     9    10    2
    16     9    13    1
    17    13    14   ar
    18    14    15   ar
    19    15    16   ar
    20    16    19    1
    21    19    20   ar
    22    20    21   ar
    23    21    22   ar
    24    22    23   ar
    25    16    17   ar
    26    17    18   ar
    27     8    11    1
    28    11    12    1
    29    26    27   ar
    30    27    28   ar
    31    28    24   ar
    32     5     1   ar
    33    18    13   ar
    34    11     4    1
    35    23    19   ar
