@<TRIPOS>MOLECULE
*****
 33 35 0 0 0
SMALL
GASTEIGER

@<TRIPOS>ATOM
      1 C          -4.9623  -18.6836   22.2484 C.ar    1  UNL1        0.0730
      2 C          -5.4413  -17.5088   23.0486 C.ar    1  UNL1        0.0322
      3 C          -4.5402  -16.3285   23.2611 C.ar    1  UNL1        0.0653
      4 C          -3.1602  -16.3231   22.6732 C.ar    1  UNL1        0.1133
      5 N          -2.6812  -17.4979   21.8729 N.ar    1  UNL1       -0.2367
      6 C          -3.5823  -18.6781   21.6605 C.ar    1  UNL1        0.1476
      7 C          -3.1033  -19.8529   20.8602 C.2     1  UNL1        0.2617
      8 N          -3.9388  -20.3833   19.7331 N.am    1  UNL1       -0.3240
      9 O          -1.7887  -20.4973   21.1871 O.2     1  UNL1       -0.2687
     10 H          -4.8016  -19.9604   19.5185 H       1  UNL1        0.1453
     11 H          -3.6245  -21.1544   19.2078 H       1  UNL1        0.1453
     12 N          -5.8633  -19.8638   22.0359 N.pl3   1  UNL1       -0.2965
     13 H          -5.4781  -20.7616   21.9143 H       1  UNL1        0.1537
     14 C          -9.4960  -18.8747   20.7807 C.ar    1  UNL1        0.1427
     15 C         -10.3272  -19.3008   21.9543 C.ar    1  UNL1        0.0517
     16 C          -9.6705  -19.9145   23.1552 C.ar    1  UNL1        0.0638
     17 C         -10.5018  -20.3406   24.3289 C.3     1  UNL1        0.0522
     18 N          -8.1826  -20.1022   23.1824 N.ar    1  UNL1       -0.2347
     19 C          -7.3514  -19.6761   22.0088 C.ar    1  UNL1        0.1348
     20 C          -8.0081  -19.0624   20.8079 C.ar    1  UNL1        0.0712
     21 C         -11.3246  -17.3410   19.7540 C.3     1  UNL1        0.2525
     22 O         -10.1527  -18.2610   19.5798 O.3     1  UNL1       -0.4713
     23 N          -5.0191  -15.1537   24.0613 N.pl3   1  UNL1       -0.3316
     24 H          -4.6043  -14.2698   23.9348 H       1  UNL1        0.1468
     25 C          -6.1301  -15.3256   25.0545 C.3     1  UNL1        0.0833
     26 C          -5.8170  -15.7022   26.4723 C.3     1  UNL1        0.0208
     27 C          -6.9279  -15.8741   27.4655 C.3     1  UNL1        0.0018
     28 C          -8.3519  -15.6693   27.0408 C.3     1  UNL1        0.0015
     29 C          -8.6650  -15.2926   25.6230 C.3     1  UNL1        0.0172
     30 C          -7.5540  -15.1207   24.6299 C.3     1  UNL1        0.0689
     31 N          -7.8671  -14.7440   23.2120 N.3     1  UNL1       -0.3209
     32 H          -6.9997  -14.6708   22.6803 H       1  UNL1        0.1189
     33 H          -8.3514  -13.8464   23.1977 H       1  UNL1        0.1189
@<TRIPOS>BOND
     1    21    22    1
     2    22    14    1
     3    14    15   ar
     4    15    16   ar
     5    16    17    1
     6    16    18   ar
     7    18    19   ar
     8    19    12    1
     9    12     1    1
    10     1     2   ar
    11     2     3   ar
    12     3    23    1
    13    25    23    1
    14    25    26    1
    15    26    27    1
    16    27    28    1
    17    28    29    1
    18    29    30    1
    19    30    31    1
    20     3     4   ar
    21     4     5   ar
    22     5     6   ar
    23     6     7    1
    24     7     8   am
    25     7     9    2
    26    19    20   ar
    27    20    14   ar
    28     6     1   ar
    29    30    25    1
    30    12    13    1
    31    23    24    1
    32    31    32    1
    33    31    33    1
    34     8    10    1
    35     8    11    1
@<TRIPOS>MOLECULE
*****
 33 35 0 0 0
SMALL
GASTEIGER

@<TRIPOS>ATOM
      1 C          -7.6576  -15.5718   24.7837 C.ar    1  UNL1        0.0730
      2 C          -6.6183  -15.6248   23.7034 C.ar    1  UNL1        0.0322
      3 C          -5.1693  -15.7701   24.0631 C.ar    1  UNL1        0.0653
      4 C          -4.7596  -15.8623   25.5030 C.ar    1  UNL1        0.1133
      5 N          -5.7988  -15.8093   26.5834 N.ar    1  UNL1       -0.2367
      6 C          -7.2478  -15.6640   26.2238 C.ar    1  UNL1        0.1476
      7 C          -8.2870  -15.6110   27.3041 C.2     1  UNL1        0.2617
      8 N          -8.6466  -14.2985   27.9351 N.am    1  UNL1       -0.3240
      9 O          -8.9666  -16.8704   27.7535 O.2     1  UNL1       -0.2687
     10 H          -8.2005  -13.4719   27.6402 H       1  UNL1        0.1453
     11 H          -9.3287  -14.2637   28.6442 H       1  UNL1        0.1453
     12 N          -9.1065  -15.4265   24.4241 N.pl3   1  UNL1       -0.2965
     13 H          -9.5845  -14.5918   24.6339 H       1  UNL1        0.1537
     14 C         -11.3835  -17.4103   21.8491 C.ar    1  UNL1        0.1427
     15 C         -11.2688  -18.8061   22.3862 C.ar    1  UNL1        0.0517
     16 C         -10.4334  -19.0754   23.6026 C.ar    1  UNL1        0.0638
     17 C         -10.3188  -20.4713   24.1396 C.3     1  UNL1        0.0522
     18 N          -9.7126  -17.9489   24.2819 N.ar    1  UNL1       -0.2347
     19 C          -9.8273  -16.5531   23.7448 C.ar    1  UNL1        0.1348
     20 C         -10.6627  -16.2838   22.5284 C.ar    1  UNL1        0.0712
     21 C         -11.8591  -16.0142   19.7103 C.3     1  UNL1        0.2525
     22 O         -12.2189  -17.1409   20.6328 O.3     1  UNL1       -0.4713
     23 N          -4.1300  -15.8232   22.9827 N.pl3   1  UNL1       -0.3316
     24 H          -3.7876  -14.9889   22.5877 H       1  UNL1        0.1468
     25 C          -3.6126  -17.1473   22.5041 C.3     1  UNL1        0.0833
     26 C          -4.4195  -18.3923   22.7256 C.3     1  UNL1        0.0208
     27 C          -3.9020  -19.7164   22.2471 C.3     1  UNL1        0.0018
     28 C          -2.5778  -19.7956   21.5470 C.3     1  UNL1        0.0015
     29 C          -1.7710  -18.5505   21.3255 C.3     1  UNL1        0.0172
     30 C          -2.2884  -17.2265   21.8041 C.3     1  UNL1        0.0689
     31 N          -1.4815  -15.9814   21.5826 N.3     1  UNL1       -0.3209
     32 H          -1.9804  -15.1798   21.9686 H       1  UNL1        0.1189
     33 H          -1.3378  -15.8429   20.5823 H       1  UNL1        0.1189
@<TRIPOS>BOND
     1    21    22    1
     2    22    14    1
     3    14    15   ar
     4    15    16   ar
     5    16    17    1
     6    16    18   ar
     7    18    19   ar
     8    19    12    1
     9    12     1    1
    10     1     2   ar
    11     2     3   ar
    12     3    23    1
    13    25    23    1
    14    25    26    1
    15    26    27    1
    16    27    28    1
    17    28    29    1
    18    29    30    1
    19    30    31    1
    20     3     4   ar
    21     4     5   ar
    22     5     6   ar
    23     6     7    1
    24     7     8   am
    25     7     9    2
    26    19    20   ar
    27    20    14   ar
    28     6     1   ar
    29    30    25    1
    30    12    13    1
    31    23    24    1
    32    31    32    1
    33    31    33    1
    34     8    10    1
    35     8    11    1
@<TRIPOS>MOLECULE
*****
 33 35 0 0 0
SMALL
GASTEIGER

@<TRIPOS>ATOM
      1 C          -7.6324  -15.5449   24.8039 C.ar    1  UNL1        0.0730
      2 C          -6.5936  -15.5982   23.7233 C.ar    1  UNL1        0.0322
      3 C          -5.1445  -15.7442   24.0825 C.ar    1  UNL1        0.0653
      4 C          -4.7344  -15.8369   25.5223 C.ar    1  UNL1        0.1133
      5 N          -5.7733  -15.7836   26.6030 N.ar    1  UNL1       -0.2367
      6 C          -7.2223  -15.6376   26.2438 C.ar    1  UNL1        0.1476
      7 C          -8.2611  -15.5843   27.3245 C.2     1  UNL1        0.2617
      8 N          -8.6203  -14.2718   27.9556 N.am    1  UNL1       -0.3240
      9 O          -8.9409  -16.8437   27.7742 O.2     1  UNL1       -0.2687
     10 H          -8.1741  -13.4453   27.6605 H       1  UNL1        0.1453
     11 H          -9.3021  -14.2368   28.6649 H       1  UNL1        0.1453
     12 N          -9.0814  -15.3989   24.4448 N.pl3   1  UNL1       -0.2965
     13 H          -9.5691  -14.5795   24.6895 H       1  UNL1        0.1537
     14 C         -10.0301  -19.0225   23.1333 C.ar    1  UNL1        0.1427
     15 C         -11.1995  -18.7066   22.2487 C.ar    1  UNL1        0.0517
     16 C         -11.6629  -17.2882   22.0960 C.ar    1  UNL1        0.0638
     17 C         -12.8323  -16.9724   21.2113 C.3     1  UNL1        0.0522
     18 N         -10.9569  -16.1856   22.8280 N.ar    1  UNL1       -0.2347
     19 C          -9.7875  -16.5015   23.7127 C.ar    1  UNL1        0.1348
     20 C          -9.3241  -17.9199   23.8654 C.ar    1  UNL1        0.0712
     21 C          -9.6394  -21.1138   24.6246 C.3     1  UNL1        0.2525
     22 O          -9.5666  -20.4409   23.2860 O.3     1  UNL1       -0.4713
     23 N          -4.1056  -15.7975   23.0018 N.pl3   1  UNL1       -0.3316
     24 H          -3.7590  -14.9632   22.6106 H       1  UNL1        0.1468
     25 C          -3.5948  -17.1220   22.5171 C.3     1  UNL1        0.0833
     26 C          -4.4099  -18.3632   22.7290 C.3     1  UNL1        0.0208
     27 C          -3.8991  -19.6878   22.2443 C.3     1  UNL1        0.0018
     28 C          -2.5732  -19.7709   21.5479 C.3     1  UNL1        0.0015
     29 C          -1.7581  -18.5296   21.3360 C.3     1  UNL1        0.0172
     30 C          -2.2689  -17.2052   21.8206 C.3     1  UNL1        0.0689
     31 N          -1.4538  -15.9638   21.6088 N.3     1  UNL1       -0.3209
     32 H          -1.9489  -15.1615   21.9980 H       1  UNL1        0.1189
     33 H          -1.3062  -15.8204   20.6098 H       1  UNL1        0.1189
@<TRIPOS>BOND
     1    21    22    1
     2    22    14    1
     3    14    15   ar
     4    15    16   ar
     5    16    17    1
     6    16    18   ar
     7    18    19   ar
     8    19    12    1
     9    12     1    1
    10     1     2   ar
    11     2     3   ar
    12     3    23    1
    13    25    23    1
    14    25    26    1
    15    26    27    1
    16    27    28    1
    17    28    29    1
    18    29    30    1
    19    30    31    1
    20     3     4   ar
    21     4     5   ar
    22     5     6   ar
    23     6     7    1
    24     7     8   am
    25     7     9    2
    26    19    20   ar
    27    20    14   ar
    28     6     1   ar
    29    30    25    1
    30    12    13    1
    31    23    24    1
    32    31    32    1
    33    31    33    1
    34     8    10    1
    35     8    11    1
@<TRIPOS>MOLECULE
*****
 33 35 0 0 0
SMALL
GASTEIGER

@<TRIPOS>ATOM
      1 C          -8.7282  -18.5539   21.8877 C.ar    1  UNL1        0.0730
      2 C          -7.3917  -19.2336   21.9288 C.ar    1  UNL1        0.0322
      3 C          -6.8321  -19.8636   20.6878 C.ar    1  UNL1        0.0653
      4 C          -7.6091  -19.8138   19.4057 C.ar    1  UNL1        0.1133
      5 N          -8.9455  -19.1341   19.3645 N.ar    1  UNL1       -0.2367
      6 C          -9.5051  -18.5041   20.6055 C.ar    1  UNL1        0.1476
      7 C         -10.8416  -17.8243   20.5643 C.2     1  UNL1        0.2617
      8 N         -11.0306  -16.5913   19.7312 N.am    1  UNL1       -0.3240
      9 O         -11.9892  -18.3776   21.3562 O.2     1  UNL1       -0.2687
     10 H         -10.2774  -16.2282   19.2115 H       1  UNL1        0.1453
     11 H         -11.9078  -16.1452   19.7042 H       1  UNL1        0.1453
     12 N          -9.2877  -17.9239   23.1286 N.pl3   1  UNL1       -0.2965
     13 H         -10.2041  -18.1370   23.4186 H       1  UNL1        0.1537
     14 C          -6.3677  -15.4304   24.1316 C.ar    1  UNL1        0.1427
     15 C          -6.7778  -15.0599   25.5261 C.ar    1  UNL1        0.0517
     16 C          -8.0245  -15.6441   26.1214 C.ar    1  UNL1        0.0638
     17 C          -8.4345  -15.2736   27.5159 C.3     1  UNL1        0.0522
     18 N          -8.8611  -16.5988   25.3223 N.ar    1  UNL1       -0.2347
     19 C          -8.4511  -16.9692   23.9278 C.ar    1  UNL1        0.1348
     20 C          -7.2043  -16.3850   23.3325 C.ar    1  UNL1        0.0712
     21 C          -4.0322  -15.7504   23.0394 C.3     1  UNL1        0.2525
     22 O          -5.1210  -14.8462   23.5363 O.3     1  UNL1       -0.4713
     23 N          -5.4956  -20.5434   20.7290 N.pl3   1  UNL1       -0.3316
     24 H          -5.4428  -21.5181   20.8572 H       1  UNL1        0.1468
     25 C          -4.2395  -19.7381   20.5748 C.3     1  UNL1        0.0833
     26 C          -3.7011  -19.4428   19.2063 C.3     1  UNL1        0.0208
     27 C          -2.4450  -18.6375   19.0522 C.3     1  UNL1        0.0018
     28 C          -1.7273  -18.1274   20.2666 C.3     1  UNL1        0.0015
     29 C          -2.2658  -18.4228   21.6352 C.3     1  UNL1        0.0172
     30 C          -3.5219  -19.2280   21.7893 C.3     1  UNL1        0.0689
     31 N          -4.0603  -19.5234   23.1579 N.3     1  UNL1       -0.3209
     32 H          -4.9129  -20.0772   23.0755 H       1  UNL1        0.1189
     33 H          -4.2687  -18.6476   23.6375 H       1  UNL1        0.1189
@<TRIPOS>BOND
     1    21    22    1
     2    22    14    1
     3    14    15   ar
     4    15    16   ar
     5    16    17    1
     6    16    18   ar
     7    18    19   ar
     8    19    12    1
     9    12     1    1
    10     1     2   ar
    11     2     3   ar
    12     3    23    1
    13    25    23    1
    14    25    26    1
    15    26    27    1
    16    27    28    1
    17    28    29    1
    18    29    30    1
    19    30    31    1
    20     3     4   ar
    21     4     5   ar
    22     5     6   ar
    23     6     7    1
    24     7     8   am
    25     7     9    2
    26    19    20   ar
    27    20    14   ar
    28     6     1   ar
    29    30    25    1
    30    12    13    1
    31    23    24    1
    32    31    32    1
    33    31    33    1
    34     8    10    1
    35     8    11    1
@<TRIPOS>MOLECULE
*****
 33 35 0 0 0
SMALL
GASTEIGER

@<TRIPOS>ATOM
      1 C          -7.5431  -15.6411   24.6554 C.ar    1  UNL1        0.0730
      2 C          -6.4633  -15.6836   23.6151 C.ar    1  UNL1        0.0322
      3 C          -5.0312  -15.8548   24.0273 C.ar    1  UNL1        0.0653
      4 C          -4.6789  -15.9835   25.4796 C.ar    1  UNL1        0.1133
      5 N          -5.7588  -15.9410   26.5199 N.ar    1  UNL1       -0.2367
      6 C          -7.1908  -15.7698   26.1078 C.ar    1  UNL1        0.1476
      7 C          -8.2706  -15.7273   27.1481 C.2     1  UNL1        0.2617
      8 N          -8.6129  -14.4313   27.8213 N.am    1  UNL1       -0.3240
      9 O          -9.0082  -16.9808   27.5152 O.2     1  UNL1       -0.2687
     10 H          -8.1289  -13.6085   27.5803 H       1  UNL1        0.1453
     11 H          -9.3217  -14.4034   28.5040 H       1  UNL1        0.1453
     12 N          -8.9752  -15.4699   24.2434 N.pl3   1  UNL1       -0.2965
     13 H          -9.4774  -14.6725   24.5282 H       1  UNL1        0.1537
     14 C         -11.7912  -17.7665   22.6479 C.ar    1  UNL1        0.1427
     15 C         -10.9760  -18.6011   21.7052 C.ar    1  UNL1        0.0517
     16 C          -9.4938  -18.3920   21.6085 C.ar    1  UNL1        0.0638
     17 C          -8.6785  -19.2267   20.6658 C.3     1  UNL1        0.0522
     18 N          -8.8268  -17.3483   22.4546 N.ar    1  UNL1       -0.2347
     19 C          -9.6421  -16.5137   23.3973 C.ar    1  UNL1        0.1348
     20 C         -11.1243  -16.7228   23.4939 C.ar    1  UNL1        0.0712
     21 C         -13.9320  -18.0663   24.0892 C.3     1  UNL1        0.2525
     22 O         -13.2734  -17.9757   22.7445 O.3     1  UNL1       -0.4713
     23 N          -3.9514  -15.8973   22.9870 N.pl3   1  UNL1       -0.3316
     24 H          -3.5447  -15.0605   22.6651 H       1  UNL1        0.1468
     25 C          -3.4912  -17.2149   22.4371 C.3     1  UNL1        0.0833
     26 C          -4.3174  -18.4479   22.6539 C.3     1  UNL1        0.0208
     27 C          -3.8573  -19.7654   22.1040 C.3     1  UNL1        0.0018
     28 C          -2.5708  -19.8500   21.3372 C.3     1  UNL1        0.0015
     29 C          -1.7446  -18.6169   21.1204 C.3     1  UNL1        0.0172
     30 C          -2.2047  -17.2994   21.6703 C.3     1  UNL1        0.0689
     31 N          -1.3785  -16.0664   21.4535 N.3     1  UNL1       -0.3209
     32 H          -1.8377  -15.2680   21.8917 H       1  UNL1        0.1189
     33 H          -1.2798  -15.8948   20.4528 H       1  UNL1        0.1189
@<TRIPOS>BOND
     1    21    22    1
     2    22    14    1
     3    14    15   ar
     4    15    16   ar
     5    16    17    1
     6    16    18   ar
     7    18    19   ar
     8    19    12    1
     9    12     1    1
    10     1     2   ar
    11     2     3   ar
    12     3    23    1
    13    25    23    1
    14    25    26    1
    15    26    27    1
    16    27    28    1
    17    28    29    1
    18    29    30    1
    19    30    31    1
    20     3     4   ar
    21     4     5   ar
    22     5     6   ar
    23     6     7    1
    24     7     8   am
    25     7     9    2
    26    19    20   ar
    27    20    14   ar
    28     6     1   ar
    29    30    25    1
    30    12    13    1
    31    23    24    1
    32    31    32    1
    33    31    33    1
    34     8    10    1
    35     8    11    1
@<TRIPOS>MOLECULE
*****
 33 35 0 0 0
SMALL
GASTEIGER

@<TRIPOS>ATOM
      1 C          -8.7124  -18.0602   21.7929 C.ar    1  UNL1        0.0730
      2 C          -7.3431  -18.6612   21.6758 C.ar    1  UNL1        0.0322
      3 C          -6.9862  -19.4859   20.4747 C.ar    1  UNL1        0.0653
      4 C          -7.9986  -19.7095   19.3908 C.ar    1  UNL1        0.1133
      5 N          -9.3679  -19.1086   19.5079 N.ar    1  UNL1       -0.2367
      6 C          -9.7249  -18.2839   20.7089 C.ar    1  UNL1        0.1476
      7 C         -11.0942  -17.6830   20.8260 C.2     1  UNL1        0.2617
      8 N         -11.7343  -17.0371   19.6331 N.am    1  UNL1       -0.3240
      9 O         -11.8234  -17.7278   22.1361 O.2     1  UNL1       -0.2687
     10 H         -11.2557  -17.0077   18.7733 H       1  UNL1        0.1453
     11 H         -12.6331  -16.6427   19.7100 H       1  UNL1        0.1453
     12 N          -9.0693  -17.2356   22.9940 N.pl3   1  UNL1       -0.2965
     13 H         -10.0111  -17.1441   23.2661 H       1  UNL1        0.1537
     14 C          -7.1350  -15.5354   26.0135 C.ar    1  UNL1        0.1427
     15 C          -5.8358  -15.1797   25.3535 C.ar    1  UNL1        0.0517
     16 C          -5.6145  -15.5093   23.9070 C.ar    1  UNL1        0.0638
     17 C          -4.3152  -15.1536   23.2471 C.3     1  UNL1        0.0522
     18 N          -6.6923  -16.1946   23.1205 N.ar    1  UNL1       -0.2347
     19 C          -7.9914  -16.5503   23.7805 C.ar    1  UNL1        0.1348
     20 C          -8.2128  -16.2207   25.2270 C.ar    1  UNL1        0.0712
     21 C          -8.7091  -14.7586   27.9289 C.3     1  UNL1        0.2525
     22 O          -7.3563  -15.2058   27.4600 O.3     1  UNL1       -0.4713
     23 N          -5.6168  -20.0868   20.3576 N.pl3   1  UNL1       -0.3316
     24 H          -5.5129  -21.0620   20.2714 H       1  UNL1        0.1468
     25 C          -4.4057  -19.2019   20.3718 C.3     1  UNL1        0.0833
     26 C          -3.8874  -18.6193   19.0905 C.3     1  UNL1        0.0208
     27 C          -2.6763  -17.7343   19.1047 C.3     1  UNL1        0.0018
     28 C          -1.9834  -17.4321   20.4003 C.3     1  UNL1        0.0015
     29 C          -2.5017  -18.0148   21.6817 C.3     1  UNL1        0.0172
     30 C          -3.7128  -18.8997   21.6674 C.3     1  UNL1        0.0689
     31 N          -4.2311  -19.4824   22.9488 N.3     1  UNL1       -0.3209
     32 H          -5.0533  -20.0539   22.7544 H       1  UNL1        0.1189
     33 H          -4.4843  -18.7284   23.5873 H       1  UNL1        0.1189
@<TRIPOS>BOND
     1    21    22    1
     2    22    14    1
     3    14    15   ar
     4    15    16   ar
     5    16    17    1
     6    16    18   ar
     7    18    19   ar
     8    19    12    1
     9    12     1    1
    10     1     2   ar
    11     2     3   ar
    12     3    23    1
    13    25    23    1
    14    25    26    1
    15    26    27    1
    16    27    28    1
    17    28    29    1
    18    29    30    1
    19    30    31    1
    20     3     4   ar
    21     4     5   ar
    22     5     6   ar
    23     6     7    1
    24     7     8   am
    25     7     9    2
    26    19    20   ar
    27    20    14   ar
    28     6     1   ar
    29    30    25    1
    30    12    13    1
    31    23    24    1
    32    31    32    1
    33    31    33    1
    34     8    10    1
    35     8    11    1
@<TRIPOS>MOLECULE
*****
 33 35 0 0 0
SMALL
GASTEIGER

@<TRIPOS>ATOM
      1 C          -7.6115  -18.9732   20.7637 C.ar    1  UNL1        0.0730
      2 C          -6.3415  -18.7835   21.5390 C.ar    1  UNL1        0.0322
      3 C          -5.1488  -19.6452   21.2471 C.ar    1  UNL1        0.0653
      4 C          -5.2262  -20.6965   20.1800 C.ar    1  UNL1        0.1133
      5 N          -6.4962  -20.8862   19.4048 N.ar    1  UNL1       -0.2367
      6 C          -7.6889  -20.0246   19.6966 C.ar    1  UNL1        0.1476
      7 C          -8.9589  -20.2144   18.9214 C.2     1  UNL1        0.2617
      8 N          -9.0023  -21.1855   17.7790 N.am    1  UNL1       -0.3240
      9 O         -10.1856  -19.4329   19.2885 O.2     1  UNL1       -0.2687
     10 H          -8.1973  -21.6983   17.5381 H       1  UNL1        0.1453
     11 H          -9.8359  -21.3100   17.2702 H       1  UNL1        0.1453
     12 N          -8.8042  -18.1117   21.0556 N.pl3   1  UNL1       -0.2965
     13 H          -8.9683  -17.3010   20.5216 H       1  UNL1        0.1537
     14 C         -12.0100  -18.1588   23.3946 C.ar    1  UNL1        0.1427
     15 C         -11.6321  -19.2322   24.3718 C.ar    1  UNL1        0.0517
     16 C         -10.3116  -19.9321   24.2436 C.ar    1  UNL1        0.0638
     17 C          -9.9338  -21.0056   25.2209 C.3     1  UNL1        0.0522
     18 N          -9.3690  -19.5586   23.1382 N.ar    1  UNL1       -0.2347
     19 C          -9.7468  -18.4852   22.1610 C.ar    1  UNL1        0.1348
     20 C         -11.0673  -17.7853   22.2892 C.ar    1  UNL1        0.0712
     21 C         -14.4313  -18.0769   24.3327 C.3     1  UNL1        0.2525
     22 O         -13.3305  -17.4589   23.5227 O.3     1  UNL1       -0.4713
     23 N          -3.8787  -19.4554   22.0223 N.pl3   1  UNL1       -0.3316
     24 H          -3.7527  -19.9188   22.8818 H       1  UNL1        0.1468
     25 C          -2.8006  -18.5597   21.4881 C.3     1  UNL1        0.0833
     26 C          -1.8029  -19.0922   20.5028 C.3     1  UNL1        0.0208
     27 C          -0.7248  -18.1965   19.9685 C.3     1  UNL1        0.0018
     28 C          -0.6445  -16.7681   20.4196 C.3     1  UNL1        0.0015
     29 C          -1.6423  -16.2356   21.4049 C.3     1  UNL1        0.0172
     30 C          -2.7203  -17.1314   21.9391 C.3     1  UNL1        0.0689
     31 N          -3.7182  -16.5988   22.9245 N.3     1  UNL1       -0.3209
     32 H          -4.3731  -17.3384   23.1786 H       1  UNL1        0.1189
     33 H          -4.2288  -15.8218   22.5051 H       1  UNL1        0.1189
@<TRIPOS>BOND
     1    21    22    1
     2    22    14    1
     3    14    15   ar
     4    15    16   ar
     5    16    17    1
     6    16    18   ar
     7    18    19   ar
     8    19    12    1
     9    12     1    1
    10     1     2   ar
    11     2     3   ar
    12     3    23    1
    13    25    23    1
    14    25    26    1
    15    26    27    1
    16    27    28    1
    17    28    29    1
    18    29    30    1
    19    30    31    1
    20     3     4   ar
    21     4     5   ar
    22     5     6   ar
    23     6     7    1
    24     7     8   am
    25     7     9    2
    26    19    20   ar
    27    20    14   ar
    28     6     1   ar
    29    30    25    1
    30    12    13    1
    31    23    24    1
    32    31    32    1
    33    31    33    1
    34     8    10    1
    35     8    11    1
@<TRIPOS>MOLECULE
*****
 33 35 0 0 0
SMALL
GASTEIGER

@<TRIPOS>ATOM
      1 C          -6.3792  -16.4263   23.5683 C.ar    1  UNL1        0.0730
      2 C          -5.8238  -17.4263   22.5979 C.ar    1  UNL1        0.0322
      3 C          -4.5326  -18.1275   22.9002 C.ar    1  UNL1        0.0653
      4 C          -3.7968  -17.8286   24.1727 C.ar    1  UNL1        0.1133
      5 N          -4.3522  -16.8286   25.1430 N.ar    1  UNL1       -0.2367
      6 C          -5.6433  -16.1275   24.8408 C.ar    1  UNL1        0.1476
      7 C          -6.1987  -15.1275   25.8112 C.2     1  UNL1        0.2617
      8 N          -7.6186  -15.2459   26.2800 N.am    1  UNL1       -0.3240
      9 O          -5.3341  -14.0089   26.3127 O.2     1  UNL1       -0.2687
     10 H          -8.1860  -15.9800   25.9508 H       1  UNL1        0.1453
     11 H          -7.9831  -14.5896   26.9169 H       1  UNL1        0.1453
     12 N          -7.6703  -15.7252   23.2661 N.pl3   1  UNL1       -0.2965
     13 H          -7.7525  -14.7565   23.4216 H       1  UNL1        0.1537
     14 C         -10.4277  -18.5495   22.8541 C.ar    1  UNL1        0.1427
     15 C         -11.1679  -18.0493   21.6491 C.ar    1  UNL1        0.0517
     16 C         -10.7422  -16.7744   20.9832 C.ar    1  UNL1        0.0638
     17 C         -11.4825  -16.2743   19.7782 C.3     1  UNL1        0.0522
     18 N          -9.5764  -15.9997   21.5221 N.ar    1  UNL1       -0.2347
     19 C          -8.8362  -16.4999   22.7271 C.ar    1  UNL1        0.1348
     20 C          -9.2619  -17.7748   23.3930 C.ar    1  UNL1        0.0712
     21 C         -10.0005  -20.4300   24.5950 C.3     1  UNL1        0.2525
     22 O         -10.8534  -19.8243   23.5200 O.3     1  UNL1       -0.4713
     23 N          -3.9772  -19.1275   21.9298 N.pl3   1  UNL1       -0.3316
     24 H          -4.2619  -20.0688   21.9760 H       1  UNL1        0.1468
     25 C          -2.9880  -18.6932   20.8891 C.3     1  UNL1        0.0833
     26 C          -1.5275  -18.6259   21.2244 C.3     1  UNL1        0.0208
     27 C          -0.5383  -18.1917   20.1837 C.3     1  UNL1        0.0018
     28 C          -1.0097  -17.8248   18.8077 C.3     1  UNL1        0.0015
     29 C          -2.4702  -17.8922   18.4725 C.3     1  UNL1        0.0172
     30 C          -3.4593  -18.3264   19.5132 C.3     1  UNL1        0.0689
     31 N          -4.9199  -18.3937   19.1779 N.3     1  UNL1       -0.3209
     32 H          -5.4426  -18.7055   19.9964 H       1  UNL1        0.1189
     33 H          -5.0630  -19.0521   18.4121 H       1  UNL1        0.1189
@<TRIPOS>BOND
     1    21    22    1
     2    22    14    1
     3    14    15   ar
     4    15    16   ar
     5    16    17    1
     6    16    18   ar
     7    18    19   ar
     8    19    12    1
     9    12     1    1
    10     1     2   ar
    11     2     3   ar
    12     3    23    1
    13    25    23    1
    14    25    26    1
    15    26    27    1
    16    27    28    1
    17    28    29    1
    18    29    30    1
    19    30    31    1
    20     3     4   ar
    21     4     5   ar
    22     5     6   ar
    23     6     7    1
    24     7     8   am
    25     7     9    2
    26    19    20   ar
    27    20    14   ar
    28     6     1   ar
    29    30    25    1
    30    12    13    1
    31    23    24    1
    32    31    32    1
    33    31    33    1
    34     8    10    1
    35     8    11    1
@<TRIPOS>MOLECULE
*****
 33 35 0 0 0
SMALL
GASTEIGER

@<TRIPOS>ATOM
      1 C          -6.6547  -16.3719   23.6535 C.ar    1  UNL1        0.0730
      2 C          -5.4587  -17.0817   23.0915 C.ar    1  UNL1        0.0322
      3 C          -4.2474  -17.3035   23.9480 C.ar    1  UNL1        0.0653
      4 C          -4.2320  -16.8156   25.3663 C.ar    1  UNL1        0.1133
      5 N          -5.4280  -16.1058   25.9282 N.ar    1  UNL1       -0.2367
      6 C          -6.6394  -15.8839   25.0719 C.ar    1  UNL1        0.1476
      7 C          -7.8354  -15.1741   25.6338 C.2     1  UNL1        0.2617
      8 N          -8.0077  -15.0555   27.1191 N.am    1  UNL1       -0.3240
      9 O          -8.8590  -14.5830   24.7103 O.2     1  UNL1       -0.2687
     10 H          -7.3359  -15.4434   27.7252 H       1  UNL1        0.1453
     11 H          -8.7927  -14.5896   27.4879 H       1  UNL1        0.1453
     12 N          -7.8661  -16.1500   22.7971 N.pl3   1  UNL1       -0.2965
     13 H          -8.0040  -15.2812   22.3551 H       1  UNL1        0.1537
     14 C          -9.8876  -19.1458   21.1574 C.ar    1  UNL1        0.1427
     15 C         -10.8696  -19.4556   22.2481 C.ar    1  UNL1        0.0517
     16 C         -10.8505  -18.6636   23.5218 C.ar    1  UNL1        0.0638
     17 C         -11.8325  -18.9734   24.6125 C.3     1  UNL1        0.0522
     18 N          -9.8493  -17.5617   23.7048 N.ar    1  UNL1       -0.2347
     19 C          -8.8673  -17.2519   22.6141 C.ar    1  UNL1        0.1348
     20 C          -8.8865  -18.0439   21.3404 C.ar    1  UNL1        0.0712
     21 C          -8.7463  -19.8628   18.9364 C.3     1  UNL1        0.2525
     22 O          -9.9068  -19.9378   19.8837 O.3     1  UNL1       -0.4713
     23 N          -3.0514  -18.0133   23.3860 N.pl3   1  UNL1       -0.3316
     24 H          -2.3235  -18.3003   23.9836 H       1  UNL1        0.1468
     25 C          -2.9643  -18.2858   21.9135 C.3     1  UNL1        0.0833
     26 C          -3.6036  -19.5153   21.3393 C.3     1  UNL1        0.0208
     27 C          -3.5165  -19.7878   19.8667 C.3     1  UNL1        0.0018
     28 C          -2.7902  -18.8308   18.9686 C.3     1  UNL1        0.0015
     29 C          -2.1510  -17.6013   19.5429 C.3     1  UNL1        0.0172
     30 C          -2.2381  -17.3289   21.0153 C.3     1  UNL1        0.0689
     31 N          -1.5988  -16.0994   21.5897 N.3     1  UNL1       -0.3209
     32 H          -1.7550  -16.0741   22.5973 H       1  UNL1        0.1189
     33 H          -2.0102  -15.2704   21.1609 H       1  UNL1        0.1189
@<TRIPOS>BOND
     1    21    22    1
     2    22    14    1
     3    14    15   ar
     4    15    16   ar
     5    16    17    1
     6    16    18   ar
     7    18    19   ar
     8    19    12    1
     9    12     1    1
    10     1     2   ar
    11     2     3   ar
    12     3    23    1
    13    25    23    1
    14    25    26    1
    15    26    27    1
    16    27    28    1
    17    28    29    1
    18    29    30    1
    19    30    31    1
    20     3     4   ar
    21     4     5   ar
    22     5     6   ar
    23     6     7    1
    24     7     8   am
    25     7     9    2
    26    19    20   ar
    27    20    14   ar
    28     6     1   ar
    29    30    25    1
    30    12    13    1
    31    23    24    1
    32    31    32    1
    33    31    33    1
    34     8    10    1
    35     8    11    1
