@<TRIPOS>MOLECULE
*****
 28 30 0 0 0
SMALL
GASTEIGER

@<TRIPOS>ATOM
      1 C           1.0427    0.9740   19.2288 C.ar    1  UNL1        0.0383
      2 C           0.7766    2.1768   18.3730 C.ar    1  UNL1        0.1051
      3 N          -0.2885    3.1568   18.7669 N.ar    1  UNL1       -0.1924
      4 C          -1.0876    2.9340   20.0166 C.ar    1  UNL1        0.3246
      5 N          -0.8216    1.7311   20.8724 N.ar    1  UNL1       -0.1924
      6 C           0.2436    0.7512   20.4785 C.ar    1  UNL1        0.1051
      7 C           3.2427    0.4323   17.9575 C.2     1  UNL1       -0.0068
      8 C           2.1078   -0.0059   18.8349 C.2     1  UNL1        0.0002
      9 C           4.3078   -0.5477   17.5636 C.3     1  UNL1        0.0939
     10 C           5.6506   -0.0547   17.1117 C.3     1  UNL1        0.0262
     11 C           4.2453   -4.3044   18.8415 C.3     1  UNL1        0.0946
     12 C           4.5228   -2.8315   18.7835 C.2     1  UNL1        0.2232
     13 O           5.2928   -2.1694   19.8874 O.2     1  UNL1       -0.2751
     14 N           4.0303   -2.0206   17.6216 N.am    1  UNL1       -0.3022
     15 H           3.5250   -2.4552   16.8970 H       1  UNL1        0.1497
     16 O          -2.1527    3.9139   20.4105 O.3     1  UNL1       -0.4214
     17 C          -2.8243    3.7950   21.7464 C.ar    1  UNL1        0.1593
     18 C          -2.0693    4.1321   22.9980 C.ar    1  UNL1        0.0416
     19 C          -2.7408    4.0132   24.3340 C.ar    1  UNL1        0.0401
     20 C          -4.1674    3.5573   24.4184 C.ar    1  UNL1        0.1396
     21 C          -4.9224    3.2202   23.1669 C.ar    1  UNL1        0.0514
     22 C          -4.2508    3.3391   21.8309 C.ar    1  UNL1        0.0952
     23 CL         -5.0058    3.0021   20.5794 Cl      1  UNL1       -0.0790
     24 O          -4.8389    3.4384   25.7545 O.3     1  UNL1       -0.4754
     25 C          -4.6847    4.5304   26.7712 C.3     1  UNL1        0.2053
     26 C          -5.7647    5.5578   26.9381 C.3     1  UNL1        0.0438
     27 C          -6.5483    6.4880   27.8159 C.3     1  UNL1        0.0038
     28 C          -6.8518    6.4071   26.3492 C.3     1  UNL1        0.0038
@<TRIPOS>BOND
     1    11    12    1
     2    12    13    2
     3    12    14   am
     4    14     9    1
     5     9    10    1
     6     9     7    1
     7     7     8    2
     8     8     1    1
     9     1     2   ar
    10     2     3   ar
    11     3     4   ar
    12     4    16    1
    13    16    17    1
    14    17    18   ar
    15    18    19   ar
    16    19    20   ar
    17    20    24    1
    18    24    25    1
    19    25    26    1
    20    26    27    1
    21    27    28    1
    22    20    21   ar
    23    21    22   ar
    24    22    23    1
    25     4     5   ar
    26     5     6   ar
    27     6     1   ar
    28    22    17   ar
    29    28    26    1
    30    14    15    1
@<TRIPOS>MOLECULE
*****
 28 30 0 0 0
SMALL
GASTEIGER

@<TRIPOS>ATOM
      1 C          -4.4277  -19.6711   20.5092 C.ar    1  UNL1        0.0383
      2 C          -4.7260  -18.7616   21.6640 C.ar    1  UNL1        0.1051
      3 N          -5.9267  -19.0140   22.5269 N.ar    1  UNL1       -0.1924
      4 C          -6.8292  -20.1760   22.2348 C.ar    1  UNL1        0.3246
      5 N          -6.5309  -21.0855   21.0800 N.ar    1  UNL1       -0.1924
      6 C          -5.3301  -20.8331   20.2171 C.ar    1  UNL1        0.1051
      7 C          -2.9761  -18.0473   19.0928 C.2     1  UNL1       -0.0068
      8 C          -3.2269  -19.4187   19.6463 C.2     1  UNL1        0.0002
      9 C          -1.7754  -17.7949   18.2299 C.3     1  UNL1        0.0939
     10 C          -1.9532  -17.3381   16.8122 C.3     1  UNL1        0.0262
     11 C           1.3897  -17.5138   20.6076 C.3     1  UNL1        0.0946
     12 C           0.0111  -17.3095   20.0528 C.2     1  UNL1        0.2232
     13 O          -0.9594  -16.4156   20.7660 O.2     1  UNL1       -0.2751
     14 N          -0.3968  -17.9992   18.7847 N.am    1  UNL1       -0.3022
     15 H           0.2402  -18.5859   18.3166 H       1  UNL1        0.1497
     16 O          -8.0299  -20.4285   23.0977 O.3     1  UNL1       -0.4214
     17 C          -9.3373  -19.7675   22.7755 C.ar    1  UNL1        0.1593
     18 C          -9.9375  -19.9186   21.4091 C.ar    1  UNL1        0.0416
     19 C         -11.2449  -19.2576   21.0870 C.ar    1  UNL1        0.0401
     20 C         -11.9521  -18.4455   22.1312 C.ar    1  UNL1        0.1396
     21 C         -11.3520  -18.2945   23.4975 C.ar    1  UNL1        0.0514
     22 C         -10.0445  -18.9554   23.8197 C.ar    1  UNL1        0.0952
     23 CL         -9.4444  -18.8044   25.1861 Cl      1  UNL1       -0.0790
     24 O         -13.2596  -17.7846   21.8090 O.3     1  UNL1       -0.4754
     25 C         -13.2765  -16.4427   21.1388 C.3     1  UNL1        0.2053
     26 C         -12.0889  -15.9861   20.3445 C.3     1  UNL1        0.0438
     27 C         -11.4760  -15.5955   19.0324 C.3     1  UNL1        0.0038
     28 C         -10.6447  -15.5857   20.2809 C.3     1  UNL1        0.0038
@<TRIPOS>BOND
     1    11    12    1
     2    12    13    2
     3    12    14   am
     4    14     9    1
     5     9    10    1
     6     9     7    1
     7     7     8    2
     8     8     1    1
     9     1     2   ar
    10     2     3   ar
    11     3     4   ar
    12     4    16    1
    13    16    17    1
    14    17    18   ar
    15    18    19   ar
    16    19    20   ar
    17    20    24    1
    18    24    25    1
    19    25    26    1
    20    26    27    1
    21    27    28    1
    22    20    21   ar
    23    21    22   ar
    24    22    23    1
    25     4     5   ar
    26     5     6   ar
    27     6     1   ar
    28    22    17   ar
    29    28    26    1
    30    14    15    1
@<TRIPOS>MOLECULE
*****
 28 30 0 0 0
SMALL
GASTEIGER

@<TRIPOS>ATOM
      1 C           1.4735   -0.2358   19.7345 C.ar    1  UNL1        0.0383
      2 C           1.4336    0.7097   18.5707 C.ar    1  UNL1        0.1051
      3 N           0.5996    1.9544   18.6439 N.ar    1  UNL1       -0.1924
      4 C          -0.1944    2.2535   19.8808 C.ar    1  UNL1        0.3246
      5 N          -0.1544    1.3080   21.0446 N.ar    1  UNL1       -0.1924
      6 C           0.6795    0.0633   20.9714 C.ar    1  UNL1        0.1051
      7 C           3.8009   -1.3780   19.5655 C.2     1  UNL1       -0.0068
      8 C           2.3075   -1.4804   19.6613 C.2     1  UNL1        0.0002
      9 C           4.6349   -2.6227   19.4923 C.3     1  UNL1        0.0939
     10 C           4.0063   -3.9241   19.0905 C.3     1  UNL1        0.0262
     11 C           8.5649   -2.2800   19.0598 C.3     1  UNL1        0.0946
     12 C           7.1025   -2.3367   18.7313 C.2     1  UNL1        0.2232
     13 O           6.6452   -2.1641   17.3132 O.2     1  UNL1       -0.2751
     14 N           6.0973   -2.5660   19.8208 N.am    1  UNL1       -0.3022
     15 H           6.3975   -2.6792   20.7516 H       1  UNL1        0.1497
     16 O          -1.0284    3.4982   19.9540 O.3     1  UNL1       -0.4214
     17 C          -2.2277    3.5455   20.8536 C.ar    1  UNL1        0.1593
     18 C          -3.5853    3.2082   20.3120 C.ar    1  UNL1        0.0416
     19 C          -4.7846    3.2556   21.2116 C.ar    1  UNL1        0.0401
     20 C          -4.6264    3.6403   22.6528 C.ar    1  UNL1        0.1396
     21 C          -3.2689    3.9776   23.1944 C.ar    1  UNL1        0.0514
     22 C          -2.0695    3.9302   22.2948 C.ar    1  UNL1        0.0952
     23 CL         -0.7120    4.2676   22.8364 Cl      1  UNL1       -0.0790
     24 O          -5.8259    3.6876   23.5524 O.3     1  UNL1       -0.4754
     25 C          -6.0976    4.9113   24.3762 C.3     1  UNL1        0.2053
     26 C          -5.5656    5.0069   25.7754 C.3     1  UNL1        0.0438
     27 C          -5.6084    5.6232   27.1422 C.3     1  UNL1        0.0038
     28 C          -4.6012    4.5559   26.8321 C.3     1  UNL1        0.0038
@<TRIPOS>BOND
     1    11    12    1
     2    12    13    2
     3    12    14   am
     4    14     9    1
     5     9    10    1
     6     9     7    1
     7     7     8    2
     8     8     1    1
     9     1     2   ar
    10     2     3   ar
    11     3     4   ar
    12     4    16    1
    13    16    17    1
    14    17    18   ar
    15    18    19   ar
    16    19    20   ar
    17    20    24    1
    18    24    25    1
    19    25    26    1
    20    26    27    1
    21    27    28    1
    22    20    21   ar
    23    21    22   ar
    24    22    23    1
    25     4     5   ar
    26     5     6   ar
    27     6     1   ar
    28    22    17   ar
    29    28    26    1
    30    14    15    1
@<TRIPOS>MOLECULE
*****
 28 30 0 0 0
SMALL
GASTEIGER

@<TRIPOS>ATOM
      1 C           2.1121    0.0135   20.5785 C.ar    1  UNL1        0.0383
      2 C           2.6737    1.4042   20.5599 C.ar    1  UNL1        0.1051
      3 N           1.7507    2.5851   20.4999 N.ar    1  UNL1       -0.1924
      4 C           0.2661    2.3752   20.4584 C.ar    1  UNL1        0.3246
      5 N          -0.2955    0.9844   20.4769 N.ar    1  UNL1       -0.1924
      6 C           0.6275   -0.1964   20.5370 C.ar    1  UNL1        0.1051
      7 C           3.1508   -2.0895   19.4611 C.2     1  UNL1       -0.0068
      8 C           3.0352   -1.1674   20.6385 C.2     1  UNL1        0.0002
      9 C           4.0739   -3.2704   19.5212 C.3     1  UNL1        0.0939
     10 C           3.5299   -4.6572   19.3455 C.3     1  UNL1        0.0262
     11 C           7.8676   -2.2798   18.9082 C.3     1  UNL1        0.0946
     12 C           6.4007   -2.4858   18.6725 C.2     1  UNL1        0.2232
     13 O           5.7936   -2.1130   17.3525 O.2     1  UNL1       -0.2751
     14 N           5.5408   -3.0644   19.7568 N.am    1  UNL1       -0.3022
     15 H           5.9393   -3.3090   20.6232 H       1  UNL1        0.1497
     16 O          -0.6570    3.5560   20.3984 O.3     1  UNL1       -0.4214
     17 C          -1.9223    3.5607   21.2039 C.ar    1  UNL1        0.1593
     18 C          -1.8579    3.5150   22.7019 C.ar    1  UNL1        0.0416
     19 C          -3.1232    3.5196   23.5074 C.ar    1  UNL1        0.0401
     20 C          -4.4529    3.5699   22.8151 C.ar    1  UNL1        0.1396
     21 C          -4.5173    3.6155   21.3172 C.ar    1  UNL1        0.0514
     22 C          -3.2520    3.6109   20.5115 C.ar    1  UNL1        0.0952
     23 CL         -3.3164    3.6566   19.0137 Cl      1  UNL1       -0.0790
     24 O          -5.7183    3.5745   23.6207 O.3     1  UNL1       -0.4754
     25 C          -6.0535    4.7545   24.4838 C.3     1  UNL1        0.2053
     26 C          -5.4331    4.8901   25.8427 C.3     1  UNL1        0.0438
     27 C          -5.3077    5.6214   27.1464 C.3     1  UNL1        0.0038
     28 C          -4.4839    4.3937   26.8928 C.3     1  UNL1        0.0038
@<TRIPOS>BOND
     1    11    12    1
     2    12    13    2
     3    12    14   am
     4    14     9    1
     5     9    10    1
     6     9     7    1
     7     7     8    2
     8     8     1    1
     9     1     2   ar
    10     2     3   ar
    11     3     4   ar
    12     4    16    1
    13    16    17    1
    14    17    18   ar
    15    18    19   ar
    16    19    20   ar
    17    20    24    1
    18    24    25    1
    19    25    26    1
    20    26    27    1
    21    27    28    1
    22    20    21   ar
    23    21    22   ar
    24    22    23    1
    25     4     5   ar
    26     5     6   ar
    27     6     1   ar
    28    22    17   ar
    29    28    26    1
    30    14    15    1
@<TRIPOS>MOLECULE
*****
 28 30 0 0 0
SMALL
GASTEIGER

@<TRIPOS>ATOM
      1 C           4.4936   -1.7375   20.5139 C.ar    1  UNL1        0.0383
      2 C           5.9037   -1.3386   20.8337 C.ar    1  UNL1        0.1051
      3 N           6.8707   -2.3579   21.3588 N.ar    1  UNL1       -0.1924
      4 C           6.4277   -3.7762   21.5641 C.ar    1  UNL1        0.3246
      5 N           5.0175   -4.1751   21.2443 N.ar    1  UNL1       -0.1924
      6 C           4.0505   -3.1557   20.7191 C.ar    1  UNL1        0.1051
      7 C           2.0695   -0.8209   20.3301 C.2     1  UNL1       -0.0068
      8 C           3.5265   -0.7181   19.9888 C.2     1  UNL1        0.0002
      9 C           1.1025    0.1984   19.8050 C.3     1  UNL1        0.0939
     10 C           1.1489    0.6024   18.3611 C.3     1  UNL1        0.0262
     11 C          -0.5639    2.6368   22.4558 C.3     1  UNL1        0.0946
     12 C           0.4496    2.0214   21.5371 C.2     1  UNL1        0.2232
     13 O           1.8237    2.6136   21.4319 O.2     1  UNL1       -0.2751
     14 N           0.0890    0.8138   20.7237 N.am    1  UNL1       -0.3022
     15 H          -0.8129    0.4252   20.7928 H       1  UNL1        0.1497
     16 O           7.3947   -4.7955   22.0892 O.3     1  UNL1       -0.4214
     17 C           7.4257   -5.1150   23.5544 C.ar    1  UNL1        0.1593
     18 C           6.7839   -4.1829   24.5391 C.ar    1  UNL1        0.0416
     19 C           6.8148   -4.5024   26.0043 C.ar    1  UNL1        0.0401
     20 C           7.4875   -5.7540   26.4850 C.ar    1  UNL1        0.1396
     21 C           8.1292   -6.6861   25.5004 C.ar    1  UNL1        0.0514
     22 C           8.0983   -6.3666   24.0351 C.ar    1  UNL1        0.0952
     23 CL          8.7400   -7.2987   23.0506 Cl      1  UNL1       -0.0790
     24 O           7.5184   -6.0735   27.9503 O.3     1  UNL1       -0.4754
     25 C           6.5566   -5.4016   28.8848 C.3     1  UNL1        0.2053
     26 C           6.8763   -5.3036   30.3471 C.3     1  UNL1        0.0438
     27 C           7.3465   -5.9434   31.6197 C.3     1  UNL1        0.0038
     28 C           6.9597   -4.4942   31.6072 C.3     1  UNL1        0.0038
@<TRIPOS>BOND
     1    11    12    1
     2    12    13    2
     3    12    14   am
     4    14     9    1
     5     9    10    1
     6     9     7    1
     7     7     8    2
     8     8     1    1
     9     1     2   ar
    10     2     3   ar
    11     3     4   ar
    12     4    16    1
    13    16    17    1
    14    17    18   ar
    15    18    19   ar
    16    19    20   ar
    17    20    24    1
    18    24    25    1
    19    25    26    1
    20    26    27    1
    21    27    28    1
    22    20    21   ar
    23    21    22   ar
    24    22    23    1
    25     4     5   ar
    26     5     6   ar
    27     6     1   ar
    28    22    17   ar
    29    28    26    1
    30    14    15    1
@<TRIPOS>MOLECULE
*****
 28 30 0 0 0
SMALL
GASTEIGER

@<TRIPOS>ATOM
      1 C           1.6278    0.1403   19.5199 C.ar    1  UNL1        0.0383
      2 C           1.7668    1.2629   18.5348 C.ar    1  UNL1        0.1051
      3 N           0.8513    2.4484   18.6145 N.ar    1  UNL1       -0.1924
      4 C          -0.2033    2.5113   19.6793 C.ar    1  UNL1        0.3246
      5 N          -0.3424    1.3888   20.6644 N.ar    1  UNL1       -0.1924
      6 C           0.5732    0.2033   20.5847 C.ar    1  UNL1        0.1051
      7 C           3.7225   -1.0212   18.5135 C.2     1  UNL1       -0.0068
      8 C           2.5433   -1.0452   19.4402 C.2     1  UNL1        0.0002
      9 C           4.6381   -2.2067   18.4338 C.3     1  UNL1        0.0939
     10 C           6.1153   -2.0038   18.2702 C.3     1  UNL1        0.0262
     11 C           3.4047   -5.6687   19.9314 C.3     1  UNL1        0.0946
     12 C           3.9663   -4.2804   19.8475 C.2     1  UNL1        0.2232
     13 O           4.4177   -3.5774   21.0933 O.2     1  UNL1       -0.2751
     14 N           4.0765   -3.5950   18.5178 N.am    1  UNL1       -0.3022
     15 H           3.7802   -4.0564   17.7001 H       1  UNL1        0.1497
     16 O          -1.1189    3.6968   19.7590 O.3     1  UNL1       -0.4214
     17 C          -2.2808    3.6847   20.7075 C.ar    1  UNL1        0.1593
     18 C          -3.6236    3.2040   20.2424 C.ar    1  UNL1        0.0416
     19 C          -4.7856    3.1919   21.1909 C.ar    1  UNL1        0.0401
     20 C          -4.6049    3.6603   22.6044 C.ar    1  UNL1        0.1396
     21 C          -3.2623    4.1409   23.0694 C.ar    1  UNL1        0.0514
     22 C          -2.1002    4.1531   22.1209 C.ar    1  UNL1        0.0952
     23 CL         -0.7576    4.6337   22.5860 Cl      1  UNL1       -0.0790
     24 O          -5.7670    3.6481   23.5529 O.3     1  UNL1       -0.4754
     25 C          -5.9405    4.7634   24.5407 C.3     1  UNL1        0.2053
     26 C          -5.2335    4.7112   25.8626 C.3     1  UNL1        0.0438
     27 C          -4.2145    4.0836   26.7668 C.3     1  UNL1        0.0038
     28 C          -5.0278    5.2486   27.2478 C.3     1  UNL1        0.0038
@<TRIPOS>BOND
     1    11    12    1
     2    12    13    2
     3    12    14   am
     4    14     9    1
     5     9    10    1
     6     9     7    1
     7     7     8    2
     8     8     1    1
     9     1     2   ar
    10     2     3   ar
    11     3     4   ar
    12     4    16    1
    13    16    17    1
    14    17    18   ar
    15    18    19   ar
    16    19    20   ar
    17    20    24    1
    18    24    25    1
    19    25    26    1
    20    26    27    1
    21    27    28    1
    22    20    21   ar
    23    21    22   ar
    24    22    23    1
    25     4     5   ar
    26     5     6   ar
    27     6     1   ar
    28    22    17   ar
    29    28    26    1
    30    14    15    1
@<TRIPOS>MOLECULE
*****
 28 30 0 0 0
SMALL
GASTEIGER

@<TRIPOS>ATOM
      1 C           4.9141   -1.7609   26.1483 C.ar    1  UNL1        0.0383
      2 C           6.1159   -2.6554   26.2217 C.ar    1  UNL1        0.1051
      3 N           6.6024   -3.3606   24.9905 N.ar    1  UNL1       -0.1924
      4 C           5.8870   -3.1714   23.6857 C.ar    1  UNL1        0.3246
      5 N           4.6852   -2.2769   23.6123 N.ar    1  UNL1       -0.1924
      6 C           4.1987   -1.5717   24.8435 C.ar    1  UNL1        0.1051
      7 C           2.9581   -0.9851   27.6722 C.2     1  UNL1       -0.0068
      8 C           4.4276   -1.0557   27.3795 C.2     1  UNL1        0.0002
      9 C           2.4717   -0.2799   28.9034 C.3     1  UNL1        0.0939
     10 C           3.3849    0.6510   29.6448 C.3     1  UNL1        0.0262
     11 C          -1.4882   -0.1496   29.1318 C.3     1  UNL1        0.0946
     12 C          -0.0886    0.0761   28.6419 C.2     1  UNL1        0.2232
     13 O           0.1504    0.8833   27.4005 O.2     1  UNL1       -0.2751
     14 N           1.0720   -0.5055   29.3934 N.am    1  UNL1       -0.3022
     15 H           0.9151   -1.0354   30.2082 H       1  UNL1        0.1497
     16 O           6.3735   -3.8766   22.4545 O.3     1  UNL1       -0.4214
     17 C           5.9797   -3.3739   21.0972 C.ar    1  UNL1        0.1593
     18 C           4.7613   -3.9252   20.4177 C.ar    1  UNL1        0.0416
     19 C           4.3675   -3.4225   19.0604 C.ar    1  UNL1        0.0401
     20 C           5.1920   -2.3685   18.3827 C.ar    1  UNL1        0.1396
     21 C           6.4103   -1.8172   19.0622 C.ar    1  UNL1        0.0514
     22 C           6.8042   -2.3199   20.4195 C.ar    1  UNL1        0.0952
     23 CL          8.0225   -1.7686   21.0990 Cl      1  UNL1       -0.0790
     24 O           4.7981   -1.8658   17.0254 O.3     1  UNL1       -0.4754
     25 C           3.8272   -0.7294   16.8991 C.3     1  UNL1        0.2053
     26 C           3.2151   -0.1259   18.1284 C.3     1  UNL1        0.0438
     27 C           3.2345    0.9068   19.2161 C.3     1  UNL1        0.0038
     28 C           2.1356   -0.1132   19.1698 C.3     1  UNL1        0.0038
@<TRIPOS>BOND
     1    11    12    1
     2    12    13    2
     3    12    14   am
     4    14     9    1
     5     9    10    1
     6     9     7    1
     7     7     8    2
     8     8     1    1
     9     1     2   ar
    10     2     3   ar
    11     3     4   ar
    12     4    16    1
    13    16    17    1
    14    17    18   ar
    15    18    19   ar
    16    19    20   ar
    17    20    24    1
    18    24    25    1
    19    25    26    1
    20    26    27    1
    21    27    28    1
    22    20    21   ar
    23    21    22   ar
    24    22    23    1
    25     4     5   ar
    26     5     6   ar
    27     6     1   ar
    28    22    17   ar
    29    28    26    1
    30    14    15    1
@<TRIPOS>MOLECULE
*****
 28 30 0 0 0
SMALL
GASTEIGER

@<TRIPOS>ATOM
      1 C           2.3721   -0.2316   19.6047 C.ar    1  UNL1        0.0383
      2 C           2.3869    1.2233   19.2399 C.ar    1  UNL1        0.1051
      3 N           1.2039    2.0886   19.5591 N.ar    1  UNL1       -0.1924
      4 C           0.0062    1.4990   20.2430 C.ar    1  UNL1        0.3246
      5 N          -0.0086    0.0442   20.6077 N.ar    1  UNL1       -0.1924
      6 C           1.1744   -0.8211   20.2886 C.ar    1  UNL1        0.1051
      7 C           3.5932   -2.5196   19.7591 C.2     1  UNL1       -0.0068
      8 C           3.5551   -1.0969   19.2855 C.2     1  UNL1        0.0002
      9 C           4.7761   -3.3849   19.4400 C.3     1  UNL1        0.0939
     10 C           4.5773   -4.7035   18.7531 C.3     1  UNL1        0.0262
     11 C           8.4438   -1.9019   19.1267 C.3     1  UNL1        0.0946
     12 C           7.0621   -2.3551   18.7589 C.2     1  UNL1        0.2232
     13 O           6.5845   -2.2318   17.3424 O.2     1  UNL1       -0.2751
     14 N           6.1579   -2.9317   19.8077 N.am    1  UNL1       -0.3022
     15 H           6.4713   -3.0126   20.7375 H       1  UNL1        0.1497
     16 O          -1.1768    2.3643   20.5621 O.3     1  UNL1       -0.4214
     17 C          -1.2134    3.1414   21.8446 C.ar    1  UNL1        0.1593
     18 C          -0.2256    2.8401   22.9326 C.ar    1  UNL1        0.0416
     19 C          -0.2622    3.6171   24.2151 C.ar    1  UNL1        0.0401
     20 C          -1.2867    4.6954   24.4097 C.ar    1  UNL1        0.1396
     21 C          -2.2744    4.9967   23.3219 C.ar    1  UNL1        0.0514
     22 C          -2.2378    4.2196   22.0393 C.ar    1  UNL1        0.0952
     23 CL         -3.2256    4.5209   20.9514 Cl      1  UNL1       -0.0790
     24 O          -1.3233    5.4724   25.6923 O.3     1  UNL1       -0.4754
     25 C          -2.1500    4.9812   26.8435 C.3     1  UNL1        0.2053
     26 C          -3.6312    4.8077   26.6828 C.3     1  UNL1        0.0438
     27 C          -5.0321    5.1804   27.0682 C.3     1  UNL1        0.0038
     28 C          -4.7959    4.1346   26.0192 C.3     1  UNL1        0.0038
@<TRIPOS>BOND
     1    11    12    1
     2    12    13    2
     3    12    14   am
     4    14     9    1
     5     9    10    1
     6     9     7    1
     7     7     8    2
     8     8     1    1
     9     1     2   ar
    10     2     3   ar
    11     3     4   ar
    12     4    16    1
    13    16    17    1
    14    17    18   ar
    15    18    19   ar
    16    19    20   ar
    17    20    24    1
    18    24    25    1
    19    25    26    1
    20    26    27    1
    21    27    28    1
    22    20    21   ar
    23    21    22   ar
    24    22    23    1
    25     4     5   ar
    26     5     6   ar
    27     6     1   ar
    28    22    17   ar
    29    28    26    1
    30    14    15    1
@<TRIPOS>MOLECULE
*****
 28 30 0 0 0
SMALL
GASTEIGER

@<TRIPOS>ATOM
      1 C           5.6524   -3.3271   23.8523 C.ar    1  UNL1        0.0383
      2 C           6.5700   -4.2837   24.5543 C.ar    1  UNL1        0.1051
      3 N           7.2675   -3.8657   25.8148 N.ar    1  UNL1       -0.1924
      4 C           7.0475   -2.4911   26.3732 C.ar    1  UNL1        0.3246
      5 N           6.1299   -1.5344   25.6711 N.ar    1  UNL1       -0.1924
      6 C           5.4324   -1.9525   24.4107 C.ar    1  UNL1        0.1051
      7 C           4.7764   -2.7630   21.4723 C.2     1  UNL1       -0.0068
      8 C           4.9549   -3.7452   22.5919 C.2     1  UNL1        0.0002
      9 C           4.0789   -3.1810   20.2119 C.3     1  UNL1        0.0939
     10 C           3.8941   -4.6376   19.9047 C.3     1  UNL1        0.0262
     11 C           3.8074   -0.8073   17.0431 C.3     1  UNL1        0.0946
     12 C           4.3201   -1.8458   17.9963 C.2     1  UNL1        0.2232
     13 O           5.5867   -2.5874   17.6872 O.2     1  UNL1       -0.2751
     14 N           3.5662   -2.1426   19.2587 N.am    1  UNL1       -0.3022
     15 H           2.7348   -1.6558   19.4615 H       1  UNL1        0.1497
     16 O           7.7450   -2.0730   27.6336 O.3     1  UNL1       -0.4214
     17 C           7.0946   -2.3091   28.9644 C.ar    1  UNL1        0.1593
     18 C           6.1298   -1.3021   29.5169 C.ar    1  UNL1        0.0416
     19 C           5.4794   -1.5382   30.8477 C.ar    1  UNL1        0.0401
     20 C           5.7936   -2.7813   31.6261 C.ar    1  UNL1        0.1396
     21 C           6.7583   -3.7883   31.0737 C.ar    1  UNL1        0.0514
     22 C           7.4088   -3.5522   29.7428 C.ar    1  UNL1        0.0952
     23 CL          8.3735   -4.5593   29.1904 Cl      1  UNL1       -0.0790
     24 O           5.1431   -3.0174   32.9570 O.3     1  UNL1       -0.4754
     25 C           4.3167   -1.9374   33.5900 C.3     1  UNL1        0.2053
     26 C           4.9192   -1.0487   34.6374 C.3     1  UNL1        0.0438
     27 C           4.8116   -0.3294   35.9492 C.3     1  UNL1        0.0038
     28 C           6.0703   -0.2285   35.1397 C.3     1  UNL1        0.0038
@<TRIPOS>BOND
     1    11    12    1
     2    12    13    2
     3    12    14   am
     4    14     9    1
     5     9    10    1
     6     9     7    1
     7     7     8    2
     8     8     1    1
     9     1     2   ar
    10     2     3   ar
    11     3     4   ar
    12     4    16    1
    13    16    17    1
    14    17    18   ar
    15    18    19   ar
    16    19    20   ar
    17    20    24    1
    18    24    25    1
    19    25    26    1
    20    26    27    1
    21    27    28    1
    22    20    21   ar
    23    21    22   ar
    24    22    23    1
    25     4     5   ar
    26     5     6   ar
    27     6     1   ar
    28    22    17   ar
    29    28    26    1
    30    14    15    1
