@<TRIPOS>MOLECULE
*****
 29 32 0 0 0
SMALL
GASTEIGER

@<TRIPOS>ATOM
      1 C         -14.9712   -7.2159   18.5491 C.3     1  UNL1        0.1747
      2 C         -13.4729   -7.2345   18.6183 C.3     1  UNL1        0.0407
      3 C         -12.7096   -5.9454   18.6919 C.3     1  UNL1        0.0431
      4 C         -11.2112   -5.9639   18.7611 C.3     1  UNL1        0.0921
      5 S         -10.4478   -4.6749   18.8346 S.3     1  UNL1       -0.0787
      6 C         -11.1827   -3.3672   18.8389 C.2     1  UNL1        0.1483
      7 N         -10.4192   -2.0781   18.9124 N.pl3   1  UNL1       -0.3380
      8 N         -12.6810   -3.3486   18.7697 N.2     1  UNL1       -0.2484
      9 C         -13.4444   -4.6378   18.6961 C.3     1  UNL1        0.1352
     10 C         -14.9427   -4.6192   18.6269 C.3     1  UNL1        0.1691
     11 O         -15.7061   -5.9083   18.5534 O.3     1  UNL1       -0.3462
     12 H          -9.4359   -2.0903   18.9579 H       1  UNL1        0.1442
     13 H         -10.9015   -1.2198   18.9152 H       1  UNL1        0.1442
     14 C         -14.1793   -3.3301   18.7004 C.ar    1  UNL1        0.0278
     15 C         -14.5489   -2.6733   17.4035 C.ar    1  UNL1        0.0021
     16 C         -15.2838   -1.3656   17.4077 C.ar    1  UNL1        0.0295
     17 C         -15.6490   -0.7148   18.7090 C.ar    1  UNL1        0.1424
     18 F         -16.3839    0.5928   18.7133 F       1  UNL1       -0.2041
     19 C         -15.2794   -1.3717   20.0058 C.ar    1  UNL1        0.0590
     20 C         -14.5446   -2.6793   20.0015 C.ar    1  UNL1        0.1402
     21 F         -14.1750   -3.3362   21.2984 F       1  UNL1       -0.2044
     22 C         -18.8623  -10.7146   17.8421 C.3     1  UNL1        0.0557
     23 C         -17.5233  -10.1132   18.1506 C.ar    1  UNL1        0.1008
     24 C         -17.1764   -8.6551   18.0896 C.ar    1  UNL1        0.0561
     25 C         -15.7347   -8.5051   18.4756 C.ar    1  UNL1        0.1809
     26 O         -15.1905   -9.8704   18.7751 O.2     1  UNL1       -0.3556
     27 N         -16.2958  -10.8643   18.5742 N.ar    1  UNL1       -0.0817
     28 C         -10.4763   -7.2716   18.7568 C.3     1  UNL1        0.2044
     29 F          -9.1106   -7.3664   19.3698 F       1  UNL1       -0.2334
@<TRIPOS>BOND
     1    22    23    1
     2    23    24   ar
     3    24    25   ar
     4     1    25    1
     5     1     2    1
     6     3     2    1
     7     3     4    1
     8     4    28    1
     9    28    29    1
    10     4     5    1
    11     5     6    1
    12     6     7    1
    13     6     8    2
    14     8     9    1
    15     9    14    1
    16    14    15   ar
    17    15    16   ar
    18    16    17   ar
    19    17    18    1
    20    17    19   ar
    21    19    20   ar
    22    20    21    1
    23     9    10    1
    24    10    11    1
    25    25    26   ar
    26    26    27   ar
    27    27    23   ar
    28    11     1    1
    29     9     3    1
    30    20    14   ar
    31     7    12    1
    32     7    13    1
@<TRIPOS>MOLECULE
*****
 29 32 0 0 0
SMALL
GASTEIGER

@<TRIPOS>ATOM
      1 C         -18.0830   -3.5703   20.1094 C.3     1  UNL1        0.1747
      2 C         -16.5848   -3.5182   20.1611 C.3     1  UNL1        0.0407
      3 C         -15.7791   -4.7279   19.7906 C.3     1  UNL1        0.0431
      4 C         -14.2808   -4.6758   19.8424 C.3     1  UNL1        0.0921
      5 S         -13.4751   -5.8855   19.4719 S.3     1  UNL1       -0.0787
      6 C         -14.1675   -7.1474   19.0497 C.2     1  UNL1        0.1483
      7 N         -13.3617   -8.3571   18.6792 N.pl3   1  UNL1       -0.3380
      8 N         -15.6657   -7.1995   18.9979 N.2     1  UNL1       -0.2484
      9 C         -16.4715   -5.9897   19.3684 C.3     1  UNL1        0.1352
     10 C         -17.9697   -6.0419   19.3166 C.3     1  UNL1        0.1691
     11 O         -18.7754   -4.8321   19.6871 O.3     1  UNL1       -0.3462
     12 H         -12.3784   -8.3229   18.7131 H       1  UNL1        0.1442
     13 H         -13.8161   -9.1853   18.4020 H       1  UNL1        0.1442
     14 C         -17.1639   -7.2516   18.9461 C.ar    1  UNL1        0.0278
     15 C         -17.5710   -8.2641   19.9753 C.ar    1  UNL1        0.0021
     16 C         -18.2634   -9.5260   19.5530 C.ar    1  UNL1        0.0295
     17 C         -18.5488   -9.7752   18.1016 C.ar    1  UNL1        0.1424
     18 F         -19.2412  -11.0371   17.6793 F       1  UNL1       -0.2041
     19 C         -18.1417   -8.7627   17.0725 C.ar    1  UNL1        0.0590
     20 C         -17.4493   -7.5009   17.4948 C.ar    1  UNL1        0.1402
     21 F         -17.0422   -6.4883   16.4657 F       1  UNL1       -0.2044
     22 C         -20.0517    1.3290   20.1622 C.3     1  UNL1        0.0557
     23 C         -19.7937   -0.1086   20.5041 C.ar    1  UNL1        0.1008
     24 C         -18.8203   -1.0179   19.8145 C.ar    1  UNL1        0.0561
     25 C         -18.8888   -2.3605   20.4799 C.ar    1  UNL1        0.1809
     26 O         -19.9046   -2.2810   21.5807 O.2     1  UNL1       -0.3556
     27 N         -20.4638   -0.8893   21.5957 N.ar    1  UNL1       -0.0817
     28 C         -13.5884   -3.4140   20.2647 C.3     1  UNL1        0.2044
     29 F         -13.7339   -2.9132   21.6711 F       1  UNL1       -0.2334
@<TRIPOS>BOND
     1    22    23    1
     2    23    24   ar
     3    24    25   ar
     4     1    25    1
     5     1     2    1
     6     3     2    1
     7     3     4    1
     8     4    28    1
     9    28    29    1
    10     4     5    1
    11     5     6    1
    12     6     7    1
    13     6     8    2
    14     8     9    1
    15     9    14    1
    16    14    15   ar
    17    15    16   ar
    18    16    17   ar
    19    17    18    1
    20    17    19   ar
    21    19    20   ar
    22    20    21    1
    23     9    10    1
    24    10    11    1
    25    25    26   ar
    26    26    27   ar
    27    27    23   ar
    28    11     1    1
    29     9     3    1
    30    20    14   ar
    31     7    12    1
    32     7    13    1
@<TRIPOS>MOLECULE
*****
 29 32 0 0 0
SMALL
GASTEIGER

@<TRIPOS>ATOM
      1 C         -16.4293   -3.0584   19.7063 C.3     1  UNL1        0.1747
      2 C         -17.1793   -4.3532   19.8107 C.3     1  UNL1        0.0407
      3 C         -16.5052   -5.6421   19.4443 C.3     1  UNL1        0.0431
      4 C         -17.2552   -6.9370   19.5488 C.3     1  UNL1        0.0921
      5 S         -16.5811   -8.2258   19.1823 S.3     1  UNL1       -0.0787
      6 C         -15.1570   -8.2199   18.7114 C.2     1  UNL1        0.1483
      7 N         -14.4828   -9.5089   18.3450 N.pl3   1  UNL1       -0.3380
      8 N         -14.4069   -6.9251   18.6069 N.2     1  UNL1       -0.2484
      9 C         -15.0811   -5.6362   18.9734 C.3     1  UNL1        0.1352
     10 C         -14.3310   -4.3414   18.8689 C.3     1  UNL1        0.1691
     11 O         -15.0051   -3.0525   19.2353 O.3     1  UNL1       -0.3462
     12 H         -14.9751  -10.3587   18.4135 H       1  UNL1        0.1442
     13 H         -13.5481   -9.5050   18.0359 H       1  UNL1        0.1442
     14 C         -13.6569   -5.6303   18.5025 C.ar    1  UNL1        0.0278
     15 C         -12.5377   -5.7188   19.4973 C.ar    1  UNL1        0.0021
     16 C         -11.1135   -5.7129   19.0263 C.ar    1  UNL1        0.0295
     17 C         -10.8086   -5.6185   17.5606 C.ar    1  UNL1        0.1424
     18 F          -9.3845   -5.6126   17.0897 F       1  UNL1       -0.2041
     19 C         -11.9278   -5.5300   16.5660 C.ar    1  UNL1        0.0590
     20 C         -13.3520   -5.5359   17.0369 C.ar    1  UNL1        0.1402
     21 F         -14.4712   -5.4474   16.0422 F       1  UNL1       -0.2044
     22 C         -17.3103    2.0699   20.6035 C.3     1  UNL1        0.0557
     23 C         -17.5083    0.5878   20.4851 C.ar    1  UNL1        0.1008
     24 C         -16.4765   -0.4071   20.0430 C.ar    1  UNL1        0.0561
     25 C         -17.1034   -1.7695   20.0727 C.ar    1  UNL1        0.1809
     26 O         -18.5228   -1.6166   20.5331 O.2     1  UNL1       -0.3556
     27 N         -18.7730   -0.1598   20.7880 N.ar    1  UNL1       -0.0817
     28 C         -18.6794   -6.9429   20.0197 C.3     1  UNL1        0.2044
     29 F         -19.1491   -7.9997   20.9749 F       1  UNL1       -0.2334
@<TRIPOS>BOND
     1    22    23    1
     2    23    24   ar
     3    24    25   ar
     4     1    25    1
     5     1     2    1
     6     3     2    1
     7     3     4    1
     8     4    28    1
     9    28    29    1
    10     4     5    1
    11     5     6    1
    12     6     7    1
    13     6     8    2
    14     8     9    1
    15     9    14    1
    16    14    15   ar
    17    15    16   ar
    18    16    17   ar
    19    17    18    1
    20    17    19   ar
    21    19    20   ar
    22    20    21    1
    23     9    10    1
    24    10    11    1
    25    25    26   ar
    26    26    27   ar
    27    27    23   ar
    28    11     1    1
    29     9     3    1
    30    20    14   ar
    31     7    12    1
    32     7    13    1
@<TRIPOS>MOLECULE
*****
 29 32 0 0 0
SMALL
GASTEIGER

@<TRIPOS>ATOM
      1 C          -4.7704  -18.0856   22.1397 C.3     1  UNL1        0.1747
      2 C          -4.7487  -17.1441   23.3072 C.3     1  UNL1        0.0407
      3 C          -6.0344  -16.6019   23.8574 C.3     1  UNL1        0.0431
      4 C          -6.0127  -15.6604   25.0250 C.3     1  UNL1        0.0921
      5 S          -7.2985  -15.1182   25.5752 S.3     1  UNL1       -0.0787
      6 C          -8.6060  -15.5175   24.9580 C.2     1  UNL1        0.1483
      7 N          -9.8918  -14.9752   25.5083 N.pl3   1  UNL1       -0.3380
      8 N          -8.6277  -16.4590   23.7905 N.2     1  UNL1       -0.2484
      9 C          -7.3419  -17.0012   23.2402 C.3     1  UNL1        0.1352
     10 C          -7.3637  -17.9427   22.0727 C.3     1  UNL1        0.1691
     11 O          -6.0780  -18.4849   21.5224 O.3     1  UNL1       -0.3462
     12 H          -9.8775  -14.3573   26.2746 H       1  UNL1        0.1442
     13 H         -10.7499  -15.2373   25.1032 H       1  UNL1        0.1442
     14 C          -8.6495  -17.4005   22.6229 C.ar    1  UNL1        0.0278
     15 C          -9.2647  -18.7261   22.9611 C.ar    1  UNL1        0.0021
     16 C         -10.5722  -19.1254   22.3439 C.ar    1  UNL1        0.0295
     17 C         -11.2645  -18.1991   21.3885 C.ar    1  UNL1        0.1424
     18 F         -12.5720  -18.5984   20.7712 F       1  UNL1       -0.2041
     19 C         -10.6492  -16.8736   21.0503 C.ar    1  UNL1        0.0590
     20 C          -9.3417  -16.4743   21.6676 C.ar    1  UNL1        0.1402
     21 F          -8.7265  -15.1487   21.3294 F       1  UNL1       -0.2044
     22 C          -0.0795  -18.4174   19.7384 C.3     1  UNL1        0.0557
     23 C          -1.3285  -18.7803   20.4856 C.ar    1  UNL1        0.1008
     24 C          -2.4415  -17.8432   20.8502 C.ar    1  UNL1        0.0561
     25 C          -3.4846  -18.6279   21.5894 C.ar    1  UNL1        0.1809
     26 O          -3.0162  -20.0498   21.6816 O.2     1  UNL1       -0.3556
     27 N          -1.6837  -20.1441   20.9994 N.ar    1  UNL1       -0.0817
     28 C          -4.7052  -15.2611   25.6422 C.3     1  UNL1        0.2044
     29 F          -4.6054  -13.9888   26.4303 F       1  UNL1       -0.2334
@<TRIPOS>BOND
     1    22    23    1
     2    23    24   ar
     3    24    25   ar
     4     1    25    1
     5     1     2    1
     6     3     2    1
     7     3     4    1
     8     4    28    1
     9    28    29    1
    10     4     5    1
    11     5     6    1
    12     6     7    1
    13     6     8    2
    14     8     9    1
    15     9    14    1
    16    14    15   ar
    17    15    16   ar
    18    16    17   ar
    19    17    18    1
    20    17    19   ar
    21    19    20   ar
    22    20    21    1
    23     9    10    1
    24    10    11    1
    25    25    26   ar
    26    26    27   ar
    27    27    23   ar
    28    11     1    1
    29     9     3    1
    30    20    14   ar
    31     7    12    1
    32     7    13    1
@<TRIPOS>MOLECULE
*****
 29 32 0 0 0
SMALL
GASTEIGER

@<TRIPOS>ATOM
      1 C         -13.3197   -1.4612   17.7542 C.3     1  UNL1        0.1747
      2 C         -12.1829   -2.3893   18.0645 C.3     1  UNL1        0.0407
      3 C         -12.4479   -3.8463   18.3025 C.3     1  UNL1        0.0431
      4 C         -11.3111   -4.7745   18.6129 C.3     1  UNL1        0.0921
      5 S         -11.5760   -6.2316   18.8508 S.3     1  UNL1       -0.0787
      6 C         -12.9778   -6.7606   18.7785 C.2     1  UNL1        0.1483
      7 N         -13.2427   -8.2178   19.0164 N.pl3   1  UNL1       -0.3380
      8 N         -14.1146   -5.8325   18.4681 N.2     1  UNL1       -0.2484
      9 C         -13.8496   -4.3754   18.2301 C.3     1  UNL1        0.1352
     10 C         -14.9864   -3.4473   17.9198 C.3     1  UNL1        0.1691
     11 O         -14.7214   -1.9902   17.6818 O.3     1  UNL1       -0.3462
     12 H         -12.4966   -8.8269   19.2201 H       1  UNL1        0.1442
     13 H         -14.1627   -8.5650   18.9689 H       1  UNL1        0.1442
     14 C         -15.2514   -4.9044   18.1578 C.ar    1  UNL1        0.0278
     15 C         -15.7960   -5.4095   16.8545 C.ar    1  UNL1        0.0021
     16 C         -17.1978   -5.9385   16.7822 C.ar    1  UNL1        0.0295
     17 C         -18.0549   -5.9624   18.0130 C.ar    1  UNL1        0.1424
     18 F         -19.4566   -6.4914   17.9406 F       1  UNL1       -0.2041
     19 C         -17.5102   -5.4573   19.3161 C.ar    1  UNL1        0.0590
     20 C         -16.1085   -4.9282   19.3885 C.ar    1  UNL1        0.1402
     21 F         -15.5638   -4.4231   20.6916 F       1  UNL1       -0.2044
     22 C         -14.0374    3.7124   16.9798 C.3     1  UNL1        0.0557
     23 C         -13.3847    2.3740   17.1603 C.ar    1  UNL1        0.1008
     24 C         -14.0924    1.0721   17.3930 C.ar    1  UNL1        0.0561
     25 C         -13.0548   -0.0040   17.5162 C.ar    1  UNL1        0.1809
     26 O         -11.7057    0.6328   17.3597 O.2     1  UNL1       -0.3556
     27 N         -11.9096    2.1025   17.1397 N.ar    1  UNL1       -0.0817
     28 C          -9.9093   -4.2455   18.6852 C.3     1  UNL1        0.2044
     29 F          -9.1650   -3.9186   17.4247 F       1  UNL1       -0.2334
@<TRIPOS>BOND
     1    22    23    1
     2    23    24   ar
     3    24    25   ar
     4     1    25    1
     5     1     2    1
     6     3     2    1
     7     3     4    1
     8     4    28    1
     9    28    29    1
    10     4     5    1
    11     5     6    1
    12     6     7    1
    13     6     8    2
    14     8     9    1
    15     9    14    1
    16    14    15   ar
    17    15    16   ar
    18    16    17   ar
    19    17    18    1
    20    17    19   ar
    21    19    20   ar
    22    20    21    1
    23     9    10    1
    24    10    11    1
    25    25    26   ar
    26    26    27   ar
    27    27    23   ar
    28    11     1    1
    29     9     3    1
    30    20    14   ar
    31     7    12    1
    32     7    13    1
@<TRIPOS>MOLECULE
*****
 29 32 0 0 0
SMALL
GASTEIGER

@<TRIPOS>ATOM
      1 C           3.1735   -0.3082   23.3832 C.3     1  UNL1        0.1747
      2 C           3.7392   -1.4354   22.5713 C.3     1  UNL1        0.0407
      3 C           3.7318   -1.3583   21.0734 C.3     1  UNL1        0.0431
      4 C           4.2975   -2.4856   20.2614 C.3     1  UNL1        0.0921
      5 S           4.2901   -2.4084   18.7635 S.3     1  UNL1       -0.0787
      6 C           3.7169   -1.2039   18.0774 C.2     1  UNL1        0.1483
      7 N           3.7094   -1.1268   16.5793 N.pl3   1  UNL1       -0.3380
      8 N           3.1511   -0.0767   18.8892 N.2     1  UNL1       -0.2484
      9 C           3.1586   -0.1538   20.3873 C.3     1  UNL1        0.1352
     10 C           2.5928    0.9735   21.1991 C.3     1  UNL1        0.1691
     11 O           2.6003    0.8963   22.6971 O.3     1  UNL1       -0.3462
     12 H           4.0808   -1.8666   16.0465 H       1  UNL1        0.1442
     13 H           3.3332   -0.3363   16.1290 H       1  UNL1        0.1442
     14 C           2.5854    1.0506   19.7012 C.ar    1  UNL1        0.0278
     15 C           3.4759    2.2020   19.3386 C.ar    1  UNL1        0.0021
     16 C           2.9027    3.4064   18.6525 C.ar    1  UNL1        0.0295
     17 C           1.4389    3.4595   18.3290 C.ar    1  UNL1        0.1424
     18 F           0.8657    4.6640   17.6429 F       1  UNL1       -0.2041
     19 C           0.5485    2.3082   18.6915 C.ar    1  UNL1        0.0590
     20 C           1.1217    1.1038   19.3776 C.ar    1  UNL1        0.1402
     21 F           0.2312   -0.0475   19.7401 F       1  UNL1       -0.2044
     22 C           2.4303    0.8712   28.4762 C.3     1  UNL1        0.0557
     23 C           2.8393    0.1568   27.2222 C.ar    1  UNL1        0.1008
     24 C           2.6141    0.6385   25.8196 C.ar    1  UNL1        0.0561
     25 C           3.1809   -0.3853   24.8813 C.ar    1  UNL1        0.1809
     26 O           3.7565   -1.4998   25.7039 O.2     1  UNL1       -0.3556
     27 N           3.5454   -1.1648   27.1506 N.ar    1  UNL1       -0.0817
     28 C           4.8708   -3.6900   20.9475 C.3     1  UNL1        0.2044
     29 F           3.9688   -4.6290   21.6923 F       1  UNL1       -0.2334
@<TRIPOS>BOND
     1    22    23    1
     2    23    24   ar
     3    24    25   ar
     4     1    25    1
     5     1     2    1
     6     3     2    1
     7     3     4    1
     8     4    28    1
     9    28    29    1
    10     4     5    1
    11     5     6    1
    12     6     7    1
    13     6     8    2
    14     8     9    1
    15     9    14    1
    16    14    15   ar
    17    15    16   ar
    18    16    17   ar
    19    17    18    1
    20    17    19   ar
    21    19    20   ar
    22    20    21    1
    23     9    10    1
    24    10    11    1
    25    25    26   ar
    26    26    27   ar
    27    27    23   ar
    28    11     1    1
    29     9     3    1
    30    20    14   ar
    31     7    12    1
    32     7    13    1
@<TRIPOS>MOLECULE
*****
 29 32 0 0 0
SMALL
GASTEIGER

@<TRIPOS>ATOM
      1 C           2.2421    0.0713   30.2569 C.3     1  UNL1        0.1747
      2 C           3.3807   -0.6559   29.6051 C.3     1  UNL1        0.0407
      3 C           4.6300   -0.9445   30.3835 C.3     1  UNL1        0.0431
      4 C           5.7686   -1.6717   29.7317 C.3     1  UNL1        0.0921
      5 S           7.0179   -1.9603   30.5101 S.3     1  UNL1       -0.0787
      6 C           7.1286   -1.5218   31.9403 C.2     1  UNL1        0.1483
      7 N           8.3780   -1.8105   32.7187 N.pl3   1  UNL1       -0.3380
      8 N           5.9901   -0.7947   32.5921 N.2     1  UNL1       -0.2484
      9 C           4.7407   -0.5060   31.8137 C.3     1  UNL1        0.1352
     10 C           3.6021    0.2211   32.4655 C.3     1  UNL1        0.1691
     11 O           2.3529    0.5097   31.6871 O.3     1  UNL1       -0.3462
     12 H           9.1253   -2.2877   32.2909 H       1  UNL1        0.1442
     13 H           8.4507   -1.5227   33.6574 H       1  UNL1        0.1442
     14 C           4.8514   -0.0675   33.2439 C.ar    1  UNL1        0.0278
     15 C           5.3054    1.3249   33.5685 C.ar    1  UNL1        0.0021
     16 C           5.4161    1.7634   34.9987 C.ar    1  UNL1        0.0295
     17 C           5.0728    0.8095   36.1043 C.ar    1  UNL1        0.1424
     18 F           5.1835    1.2479   37.5345 F       1  UNL1       -0.2041
     19 C           4.6189   -0.5828   35.7797 C.ar    1  UNL1        0.0590
     20 C           4.5082   -1.0213   34.3495 C.ar    1  UNL1        0.1402
     21 F           4.0543   -2.4136   34.0249 F       1  UNL1       -0.2044
     22 C          -1.2462    2.3795   27.0344 C.3     1  UNL1        0.0557
     23 C          -0.6106    1.4210   27.9973 C.ar    1  UNL1        0.1008
     24 C           0.7747    1.5275   28.5625 C.ar    1  UNL1        0.0561
     25 C           0.9928    0.3599   29.4785 C.ar    1  UNL1        0.1809
     26 O          -0.2578   -0.4683   29.4796 O.2     1  UNL1       -0.3556
     27 N          -1.2488    0.1874   28.5642 N.ar    1  UNL1       -0.0817
     28 C           5.6579   -2.1102   28.3015 C.3     1  UNL1        0.2044
     29 F           5.7430   -3.5671   27.9550 F       1  UNL1       -0.2334
@<TRIPOS>BOND
     1    22    23    1
     2    23    24   ar
     3    24    25   ar
     4     1    25    1
     5     1     2    1
     6     3     2    1
     7     3     4    1
     8     4    28    1
     9    28    29    1
    10     4     5    1
    11     5     6    1
    12     6     7    1
    13     6     8    2
    14     8     9    1
    15     9    14    1
    16    14    15   ar
    17    15    16   ar
    18    16    17   ar
    19    17    18    1
    20    17    19   ar
    21    19    20   ar
    22    20    21    1
    23     9    10    1
    24    10    11    1
    25    25    26   ar
    26    26    27   ar
    27    27    23   ar
    28    11     1    1
    29     9     3    1
    30    20    14   ar
    31     7    12    1
    32     7    13    1
@<TRIPOS>MOLECULE
*****
 29 32 0 0 0
SMALL
GASTEIGER

@<TRIPOS>ATOM
      1 C           2.3192    0.1679   30.5233 C.3     1  UNL1        0.1747
      2 C           2.3585    0.9558   31.7991 C.3     1  UNL1        0.0407
      3 C           3.4519    0.7135   32.7968 C.3     1  UNL1        0.0431
      4 C           3.4912    1.5014   34.0727 C.3     1  UNL1        0.0921
      5 S           4.5847    1.2591   35.0705 S.3     1  UNL1       -0.0787
      6 C           5.6389    0.2289   34.7925 C.2     1  UNL1        0.1483
      7 N           6.7324   -0.0134   35.7903 N.pl3   1  UNL1       -0.3380
      8 N           5.5997   -0.5590   33.5167 N.2     1  UNL1       -0.2484
      9 C           4.5062   -0.3167   32.5188 C.3     1  UNL1        0.1352
     10 C           4.4669   -1.1046   31.2431 C.3     1  UNL1        0.1691
     11 O           3.3734   -0.8623   30.2453 O.3     1  UNL1       -0.3462
     12 H           6.7582    0.5038   36.6276 H       1  UNL1        0.1442
     13 H           7.4243   -0.6895   35.6079 H       1  UNL1        0.1442
     14 C           5.5604   -1.3469   32.2408 C.ar    1  UNL1        0.0278
     15 C           6.8013   -0.9662   31.4890 C.ar    1  UNL1        0.0021
     16 C           7.8555   -1.9964   31.2110 C.ar    1  UNL1        0.0295
     17 C           7.6688   -3.4073   31.6848 C.ar    1  UNL1        0.1424
     18 F           8.7230   -4.4376   31.4068 F       1  UNL1       -0.2041
     19 C           6.4280   -3.7880   32.4367 C.ar    1  UNL1        0.0590
     20 C           5.3737   -2.7578   32.7147 C.ar    1  UNL1        0.1402
     21 F           4.1329   -3.1385   33.4665 F       1  UNL1       -0.2044
     22 C          -0.2305    1.4212   26.0725 C.3     1  UNL1        0.0557
     23 C           0.0538    0.9863   27.4797 C.ar    1  UNL1        0.1008
     24 C           1.4093    0.8814   28.1133 C.ar    1  UNL1        0.0561
     25 C           1.2257    0.4102   29.5255 C.ar    1  UNL1        0.1809
     26 O          -0.2433    0.2237   29.7646 O.2     1  UNL1       -0.3556
     27 N          -0.9676    0.5798   28.5003 N.ar    1  UNL1       -0.0817
     28 C           2.4370    2.5316   34.3507 C.3     1  UNL1        0.2044
     29 F           2.0496    2.8454   35.7654 F       1  UNL1       -0.2334
@<TRIPOS>BOND
     1    22    23    1
     2    23    24   ar
     3    24    25   ar
     4     1    25    1
     5     1     2    1
     6     3     2    1
     7     3     4    1
     8     4    28    1
     9    28    29    1
    10     4     5    1
    11     5     6    1
    12     6     7    1
    13     6     8    2
    14     8     9    1
    15     9    14    1
    16    14    15   ar
    17    15    16   ar
    18    16    17   ar
    19    17    18    1
    20    17    19   ar
    21    19    20   ar
    22    20    21    1
    23     9    10    1
    24    10    11    1
    25    25    26   ar
    26    26    27   ar
    27    27    23   ar
    28    11     1    1
    29     9     3    1
    30    20    14   ar
    31     7    12    1
    32     7    13    1
@<TRIPOS>MOLECULE
*****
 29 32 0 0 0
SMALL
GASTEIGER

@<TRIPOS>ATOM
      1 C           3.6082    0.0326   32.3084 C.3     1  UNL1        0.1747
      2 C           4.5471   -0.6698   31.3730 C.3     1  UNL1        0.0407
      3 C           4.2268   -0.7509   29.9098 C.3     1  UNL1        0.0431
      4 C           5.1657   -1.4533   28.9743 C.3     1  UNL1        0.0921
      5 S           4.8455   -1.5343   27.5111 S.3     1  UNL1       -0.0787
      6 C           3.5864   -0.9129   26.9834 C.2     1  UNL1        0.1483
      7 N           3.2661   -0.9940   25.5202 N.pl3   1  UNL1       -0.3380
      8 N           2.6475   -0.2105   27.9189 N.2     1  UNL1       -0.2484
      9 C           2.9677   -0.1295   29.3821 C.3     1  UNL1        0.1352
     10 C           2.0288    0.5729   30.3175 C.3     1  UNL1        0.1691
     11 O           2.3491    0.6540   31.7807 O.3     1  UNL1       -0.3462
     12 H           3.8824   -1.4550   24.9062 H       1  UNL1        0.1442
     13 H           2.4397   -0.5861   25.1738 H       1  UNL1        0.1442
     14 C           1.7086    0.4919   28.8544 C.ar    1  UNL1        0.0278
     15 C           0.4288   -0.2906   28.8546 C.ar    1  UNL1        0.0021
     16 C          -0.8303    0.3308   28.3269 C.ar    1  UNL1        0.0295
     17 C          -0.8097    1.7347   27.7990 C.ar    1  UNL1        0.1424
     18 F          -2.0688    2.3561   27.2713 F       1  UNL1       -0.2041
     19 C           0.4700    2.5172   27.7988 C.ar    1  UNL1        0.0590
     20 C           1.7292    1.8958   28.3265 C.ar    1  UNL1        0.1402
     21 F           3.0089    2.6783   28.3264 F       1  UNL1       -0.2044
     22 C           4.2170    1.8685   37.2216 C.3     1  UNL1        0.0557
     23 C           4.2083    0.9575   36.0300 C.ar    1  UNL1        0.1008
     24 C           3.7721    1.3248   34.6426 C.ar    1  UNL1        0.0561
     25 C           3.9284    0.1136   33.7716 C.ar    1  UNL1        0.1809
     26 O           4.4612   -1.0023   34.6207 O.2     1  UNL1       -0.3556
     27 N           4.6341   -0.4807   36.0164 N.ar    1  UNL1       -0.0817
     28 C           6.4249   -2.0747   29.5020 C.3     1  UNL1        0.2044
     29 F           6.3632   -3.3701   30.2556 F       1  UNL1       -0.2334
@<TRIPOS>BOND
     1    22    23    1
     2    23    24   ar
     3    24    25   ar
     4     1    25    1
     5     1     2    1
     6     3     2    1
     7     3     4    1
     8     4    28    1
     9    28    29    1
    10     4     5    1
    11     5     6    1
    12     6     7    1
    13     6     8    2
    14     8     9    1
    15     9    14    1
    16    14    15   ar
    17    15    16   ar
    18    16    17   ar
    19    17    18    1
    20    17    19   ar
    21    19    20   ar
    22    20    21    1
    23     9    10    1
    24    10    11    1
    25    25    26   ar
    26    26    27   ar
    27    27    23   ar
    28    11     1    1
    29     9     3    1
    30    20    14   ar
    31     7    12    1
    32     7    13    1
