@<TRIPOS>MOLECULE
*****
 20 23 0 0 0
SMALL
GASTEIGER

@<TRIPOS>ATOM
      1 C          -4.3898  -18.3051   22.6570 C.ar    1  UNL1        0.1384
      2 C          -4.3895  -17.1928   23.6635 C.ar    1  UNL1        0.0366
      3 C          -5.6553  -16.4411   23.9509 C.ar    1  UNL1       -0.0014
      4 C          -6.9214  -16.8016   23.2317 C.ar    1  UNL1       -0.0246
      5 C          -6.9217  -17.9138   22.2253 C.ar    1  UNL1       -0.0236
      6 C          -5.6559  -18.6656   21.9379 C.ar    1  UNL1        0.0323
      7 C          -8.1878  -18.2743   21.5061 C.3     1  UNL1        0.0213
      8 C          -8.1880  -19.3865   20.4997 C.3     1  UNL1        0.0041
      9 C          -9.4541  -19.7470   19.7806 C.3     1  UNL1        0.0003
     10 C         -10.7199  -18.9952   20.0680 C.3     1  UNL1        0.0001
     11 C         -10.7197  -17.8830   21.0744 C.3     1  UNL1        0.0017
     12 C          -9.4536  -17.5226   21.7935 C.3     1  UNL1        0.0188
     13 C          -9.4533  -16.4103   22.8000 C.3     1  UNL1        0.0621
     14 C          -8.1873  -16.0498   23.5190 C.3     1  UNL1        0.0420
     15 N          -8.6776  -16.7455   22.7375 N.3     1  UNL1       -0.2724
     16 C         -11.9852  -16.0191   22.3682 C.3     1  UNL1        0.0896
     17 C          -8.9471  -17.3783   22.0812 C.3     1  UNL1        0.0724
     18 C          -8.0448  -17.6775   22.0905 C.3     1  UNL1        0.0214
     19 C          -2.9875  -19.8365   21.0954 C.3     1  UNL1        0.2525
     20 O          -3.1240  -19.0568   22.3697 O.3     1  UNL1       -0.4714
@<TRIPOS>BOND
     1    19    20    1
     2    20     1    1
     3     1     2   ar
     4     2     3   ar
     5     3     4   ar
     6     4     5   ar
     7     5     6   ar
     8     5     7    1
     9     7     8    1
    10     8     9    1
    11     9    10    1
    12    10    11    1
    13    12    11    1
    14    12    13    1
    15    13    14    1
    16    13    15    1
    17    15    16    1
    18    15    17    1
    19    17    18    1
    20     6     1   ar
    21    12     7    1
    22    14     4    1
    23    18     7    1
@<TRIPOS>MOLECULE
*****
 20 23 0 0 0
SMALL
GASTEIGER

@<TRIPOS>ATOM
      1 C          -4.0886  -19.6022   21.2714 C.ar    1  UNL1        0.1384
      2 C          -4.9162  -20.5120   20.4126 C.ar    1  UNL1        0.0366
      3 C          -6.4103  -20.3792   20.4018 C.ar    1  UNL1       -0.0014
      4 C          -7.0767  -19.3367   21.2497 C.ar    1  UNL1       -0.0246
      5 C          -6.2492  -18.4269   22.1084 C.ar    1  UNL1       -0.0236
      6 C          -4.7551  -18.5597   22.1193 C.ar    1  UNL1        0.0323
      7 C          -6.9157  -17.3843   22.9563 C.3     1  UNL1        0.0213
      8 C          -6.0881  -16.4746   23.8151 C.3     1  UNL1        0.0041
      9 C          -6.7546  -15.4321   24.6629 C.3     1  UNL1        0.0003
     10 C          -8.2486  -15.2993   24.6520 C.3     1  UNL1        0.0001
     11 C          -9.0762  -16.2090   23.7933 C.3     1  UNL1        0.0017
     12 C          -8.4097  -17.2516   22.9455 C.3     1  UNL1        0.0188
     13 C          -9.2373  -18.1614   22.0867 C.3     1  UNL1        0.0621
     14 C          -8.5708  -19.2039   21.2388 C.3     1  UNL1        0.0420
     15 N          -8.4151  -18.3454   21.9964 N.3     1  UNL1       -0.2724
     16 C         -11.3979  -16.9860   22.9237 C.3     1  UNL1        0.0896
     17 C          -8.1431  -17.6686   22.6063 C.3     1  UNL1        0.0724
     18 C          -7.2543  -17.9568   22.4313 C.3     1  UNL1        0.0214
     19 C          -1.7573  -18.8590   20.3981 C.3     1  UNL1        0.2525
     20 O          -2.5945  -19.7350   21.2823 O.3     1  UNL1       -0.4714
@<TRIPOS>BOND
     1    19    20    1
     2    20     1    1
     3     1     2   ar
     4     2     3   ar
     5     3     4   ar
     6     4     5   ar
     7     5     6   ar
     8     5     7    1
     9     7     8    1
    10     8     9    1
    11     9    10    1
    12    10    11    1
    13    12    11    1
    14    12    13    1
    15    13    14    1
    16    13    15    1
    17    15    16    1
    18    15    17    1
    19    17    18    1
    20     6     1   ar
    21    12     7    1
    22    14     4    1
    23    18     7    1
@<TRIPOS>MOLECULE
*****
 20 23 0 0 0
SMALL
GASTEIGER

@<TRIPOS>ATOM
      1 C         -11.9074  -18.0205   22.5844 C.ar    1  UNL1        0.1384
      2 C         -11.6742  -19.1969   21.6834 C.ar    1  UNL1        0.0366
      3 C         -10.2743  -19.6179   21.3468 C.ar    1  UNL1       -0.0014
      4 C          -9.1077  -18.8625   21.9112 C.ar    1  UNL1       -0.0246
      5 C          -9.3410  -17.6862   22.8122 C.ar    1  UNL1       -0.0236
      6 C         -10.7408  -17.2652   23.1488 C.ar    1  UNL1        0.0323
      7 C          -8.1744  -16.9308   23.3766 C.3     1  UNL1        0.0213
      8 C          -8.4076  -15.7544   24.2775 C.3     1  UNL1        0.0041
      9 C          -7.2411  -14.9991   24.8419 C.3     1  UNL1        0.0003
     10 C          -5.8413  -15.4201   24.5053 C.3     1  UNL1        0.0001
     11 C          -5.6080  -16.5964   23.6043 C.3     1  UNL1        0.0017
     12 C          -6.7746  -17.3517   23.0399 C.3     1  UNL1        0.0188
     13 C          -6.5414  -18.5282   22.1389 C.3     1  UNL1        0.0621
     14 C          -7.7079  -19.2835   21.5746 C.3     1  UNL1        0.0420
     15 N          -7.3729  -18.4029   22.2435 N.3     1  UNL1       -0.2724
     16 C          -3.9750  -18.1937   22.3667 C.3     1  UNL1        0.0896
     17 C          -7.2412  -17.6540   22.8141 C.3     1  UNL1        0.0724
     18 C          -8.1894  -17.6042   22.8624 C.3     1  UNL1        0.0214
     19 C         -13.9415  -18.0592   24.2003 C.3     1  UNL1        0.2525
     20 O         -13.3072  -17.5995   22.9211 O.3     1  UNL1       -0.4714
@<TRIPOS>BOND
     1    19    20    1
     2    20     1    1
     3     1     2   ar
     4     2     3   ar
     5     3     4   ar
     6     4     5   ar
     7     5     6   ar
     8     5     7    1
     9     7     8    1
    10     8     9    1
    11     9    10    1
    12    10    11    1
    13    12    11    1
    14    12    13    1
    15    13    14    1
    16    13    15    1
    17    15    16    1
    18    15    17    1
    19    17    18    1
    20     6     1   ar
    21    12     7    1
    22    14     4    1
    23    18     7    1
@<TRIPOS>MOLECULE
*****
 20 23 0 0 0
SMALL
GASTEIGER

@<TRIPOS>ATOM
      1 C         -10.7476  -17.7146   22.2019 C.ar    1  UNL1        0.1384
      2 C         -11.0382  -18.7317   21.1383 C.ar    1  UNL1        0.0366
      3 C          -9.9134  -19.4909   20.4992 C.ar    1  UNL1       -0.0014
      4 C          -8.4980  -19.2330   20.9237 C.ar    1  UNL1       -0.0246
      5 C          -8.2074  -18.2159   21.9872 C.ar    1  UNL1       -0.0236
      6 C          -9.3323  -17.4567   22.6263 C.ar    1  UNL1        0.0323
      7 C          -6.7920  -17.9580   22.4117 C.3     1  UNL1        0.0213
      8 C          -6.5015  -16.9409   23.4753 C.3     1  UNL1        0.0041
      9 C          -5.0861  -16.6830   23.8997 C.3     1  UNL1        0.0003
     10 C          -3.9613  -17.4422   23.2606 C.3     1  UNL1        0.0001
     11 C          -4.2518  -18.4593   22.1971 C.3     1  UNL1        0.0017
     12 C          -5.6672  -18.7172   21.7727 C.3     1  UNL1        0.0188
     13 C          -5.9578  -19.7343   20.7091 C.3     1  UNL1        0.0621
     14 C          -7.3731  -19.9921   20.2846 C.3     1  UNL1        0.0420
     15 N          -6.6799  -19.3838   20.9807 N.3     1  UNL1       -0.2724
     16 C          -3.4175  -20.2355   20.4945 C.3     1  UNL1        0.0896
     17 C          -6.2334  -18.8204   21.6028 C.3     1  UNL1        0.0724
     18 C          -7.0970  -18.4956   21.8321 C.3     1  UNL1        0.0214
     19 C         -13.1518  -17.6589   23.1851 C.3     1  UNL1        0.2525
     20 O         -11.8724  -16.9554   22.8410 O.3     1  UNL1       -0.4714
@<TRIPOS>BOND
     1    19    20    1
     2    20     1    1
     3     1     2   ar
     4     2     3   ar
     5     3     4   ar
     6     4     5   ar
     7     5     6   ar
     8     5     7    1
     9     7     8    1
    10     8     9    1
    11     9    10    1
    12    10    11    1
    13    12    11    1
    14    12    13    1
    15    13    14    1
    16    13    15    1
    17    15    16    1
    18    15    17    1
    19    17    18    1
    20     6     1   ar
    21    12     7    1
    22    14     4    1
    23    18     7    1
@<TRIPOS>MOLECULE
*****
 20 23 0 0 0
SMALL
GASTEIGER

@<TRIPOS>ATOM
      1 C          -3.9093  -19.0330   20.5505 C.ar    1  UNL1        0.1384
      2 C          -3.6084  -18.4228   21.8874 C.ar    1  UNL1        0.0366
      3 C          -4.7301  -18.0425   22.8079 C.ar    1  UNL1       -0.0014
      4 C          -6.1527  -18.2723   22.3914 C.ar    1  UNL1       -0.0246
      5 C          -6.4536  -18.8825   21.0545 C.ar    1  UNL1       -0.0236
      6 C          -5.3319  -19.2628   20.1341 C.ar    1  UNL1        0.0323
      7 C          -7.8762  -19.1123   20.6380 C.3     1  UNL1        0.0213
      8 C          -8.1771  -19.7224   19.3012 C.3     1  UNL1        0.0041
      9 C          -9.5996  -19.9522   18.8848 C.3     1  UNL1        0.0003
     10 C         -10.7213  -19.5719   19.8052 C.3     1  UNL1        0.0001
     11 C         -10.4204  -18.9618   21.1420 C.3     1  UNL1        0.0017
     12 C          -8.9979  -18.7320   21.5585 C.3     1  UNL1        0.0188
     13 C          -8.6969  -18.1218   22.8954 C.3     1  UNL1        0.0621
     14 C          -7.2744  -17.8920   23.3118 C.3     1  UNL1        0.0420
     15 N          -7.9756  -18.2860   22.4822 N.3     1  UNL1       -0.2724
     16 C         -11.2413  -17.9713   23.3993 C.3     1  UNL1        0.0896
     17 C          -8.4288  -18.6400   21.7251 C.3     1  UNL1        0.0724
     18 C          -7.5652  -18.7813   21.3535 C.3     1  UNL1        0.0214
     19 C          -1.9428  -18.3476   18.9970 C.3     1  UNL1        0.2525
     20 O          -2.7876  -19.4133   19.6301 O.3     1  UNL1       -0.4714
@<TRIPOS>BOND
     1    19    20    1
     2    20     1    1
     3     1     2   ar
     4     2     3   ar
     5     3     4   ar
     6     4     5   ar
     7     5     6   ar
     8     5     7    1
     9     7     8    1
    10     8     9    1
    11     9    10    1
    12    10    11    1
    13    12    11    1
    14    12    13    1
    15    13    14    1
    16    13    15    1
    17    15    16    1
    18    15    17    1
    19    17    18    1
    20     6     1   ar
    21    12     7    1
    22    14     4    1
    23    18     7    1
@<TRIPOS>MOLECULE
*****
 20 23 0 0 0
SMALL
GASTEIGER

@<TRIPOS>ATOM
      1 C         -15.4435   -8.9578   18.6196 C.ar    1  UNL1        0.1384
      2 C         -16.6248   -8.0518   18.8032 C.ar    1  UNL1        0.0366
      3 C         -16.4187   -6.5757   18.9729 C.ar    1  UNL1       -0.0014
      4 C         -15.0313   -6.0057   18.9590 C.ar    1  UNL1       -0.0246
      5 C         -13.8500   -6.9117   18.7755 C.ar    1  UNL1       -0.0236
      6 C         -14.0561   -8.3878   18.6058 C.ar    1  UNL1        0.0323
      7 C         -12.4626   -6.3417   18.7616 C.3     1  UNL1        0.0213
      8 C         -11.2813   -7.2477   18.5781 C.3     1  UNL1        0.0041
      9 C          -9.8939   -6.6776   18.5642 C.3     1  UNL1        0.0003
     10 C          -9.6878   -5.2016   18.7339 C.3     1  UNL1        0.0001
     11 C         -10.8691   -4.2956   18.9175 C.3     1  UNL1        0.0017
     12 C         -12.2565   -4.8656   18.9313 C.3     1  UNL1        0.0188
     13 C         -13.4378   -3.9596   19.1149 C.3     1  UNL1        0.0621
     14 C         -14.8252   -4.5296   19.1287 C.3     1  UNL1        0.0420
     15 N         -13.6974   -4.7619   19.0316 N.3     1  UNL1       -0.2724
     16 C         -11.8443   -1.9135   19.2707 C.3     1  UNL1        0.0896
     17 C         -12.8115   -5.0936   18.9369 C.3     1  UNL1        0.0724
     18 C         -13.2097   -5.9530   18.8549 C.3     1  UNL1        0.0214
     19 C         -17.0169  -11.0253   18.6253 C.3     1  UNL1        0.2525
     20 O         -15.6496  -10.4338   18.4499 O.3     1  UNL1       -0.4714
@<TRIPOS>BOND
     1    19    20    1
     2    20     1    1
     3     1     2   ar
     4     2     3   ar
     5     3     4   ar
     6     4     5   ar
     7     5     6   ar
     8     5     7    1
     9     7     8    1
    10     8     9    1
    11     9    10    1
    12    10    11    1
    13    12    11    1
    14    12    13    1
    15    13    14    1
    16    13    15    1
    17    15    16    1
    18    15    17    1
    19    17    18    1
    20     6     1   ar
    21    12     7    1
    22    14     4    1
    23    18     7    1
@<TRIPOS>MOLECULE
*****
 20 23 0 0 0
SMALL
GASTEIGER

@<TRIPOS>ATOM
      1 C          -9.5610  -16.2701   23.7368 C.ar    1  UNL1        0.1384
      2 C         -10.8877  -16.0963   23.0588 C.ar    1  UNL1        0.0366
      3 C         -11.2011  -16.8723   21.8139 C.ar    1  UNL1       -0.0014
      4 C         -10.1878  -17.8220   21.2471 C.ar    1  UNL1       -0.0246
      5 C          -8.8612  -17.9958   21.9251 C.ar    1  UNL1       -0.0236
      6 C          -8.5477  -17.2198   23.1700 C.ar    1  UNL1        0.0323
      7 C          -7.8478  -18.9456   21.3583 C.3     1  UNL1        0.0213
      8 C          -6.5212  -19.1193   22.0363 C.3     1  UNL1        0.0041
      9 C          -5.5080  -20.0691   21.4695 C.3     1  UNL1        0.0003
     10 C          -5.8214  -20.8450   20.2246 C.3     1  UNL1        0.0001
     11 C          -7.1480  -20.6712   19.5466 C.3     1  UNL1        0.0017
     12 C          -8.1613  -19.7215   20.1134 C.3     1  UNL1        0.0188
     13 C          -9.4880  -19.5477   19.4354 C.3     1  UNL1        0.0621
     14 C         -10.5012  -18.5980   20.0022 C.3     1  UNL1        0.0420
     15 N          -9.4457  -19.0526   20.1218 N.3     1  UNL1       -0.2724
     16 C          -8.7881  -21.2734   17.6237 C.3     1  UNL1        0.0896
     17 C          -8.5667  -19.3416   20.3402 C.3     1  UNL1        0.0724
     18 C          -8.6255  -18.7515   21.0832 C.3     1  UNL1        0.0214
     19 C          -7.8610  -15.5216   25.5534 C.3     1  UNL1        0.2525
     20 O          -9.2475  -15.4942   24.9817 O.3     1  UNL1       -0.4714
@<TRIPOS>BOND
     1    19    20    1
     2    20     1    1
     3     1     2   ar
     4     2     3   ar
     5     3     4   ar
     6     4     5   ar
     7     5     6   ar
     8     5     7    1
     9     7     8    1
    10     8     9    1
    11     9    10    1
    12    10    11    1
    13    12    11    1
    14    12    13    1
    15    13    14    1
    16    13    15    1
    17    15    16    1
    18    15    17    1
    19    17    18    1
    20     6     1   ar
    21    12     7    1
    22    14     4    1
    23    18     7    1
@<TRIPOS>MOLECULE
*****
 20 23 0 0 0
SMALL
GASTEIGER

@<TRIPOS>ATOM
      1 C          -7.6640  -15.8690   24.8333 C.ar    1  UNL1        0.1384
      2 C          -9.1168  -15.5963   24.5781 C.ar    1  UNL1        0.0366
      3 C          -9.8213  -16.2832   23.4459 C.ar    1  UNL1       -0.0014
      4 C          -9.0728  -17.2428   22.5688 C.ar    1  UNL1       -0.0246
      5 C          -7.6201  -17.5154   22.8240 C.ar    1  UNL1       -0.0236
      6 C          -6.9157  -16.8285   23.9562 C.ar    1  UNL1        0.0323
      7 C          -6.8717  -18.4750   21.9469 C.3     1  UNL1        0.0213
      8 C          -5.4189  -18.7476   22.2021 C.3     1  UNL1        0.0041
      9 C          -4.6706  -19.7071   21.3250 C.3     1  UNL1        0.0003
     10 C          -5.3750  -20.3940   20.1928 C.3     1  UNL1        0.0001
     11 C          -6.8278  -20.1214   19.9376 C.3     1  UNL1        0.0017
     12 C          -7.5761  -19.1619   20.8147 C.3     1  UNL1        0.0188
     13 C          -9.0289  -18.8892   20.5595 C.3     1  UNL1        0.0621
     14 C          -9.7773  -17.9297   21.4366 C.3     1  UNL1        0.0420
     15 N          -8.7612  -18.4375   21.2246 N.3     1  UNL1       -0.2724
     16 C          -8.9849  -20.5357   18.5502 C.3     1  UNL1        0.0896
     17 C          -7.8755  -18.7780   21.1655 C.3     1  UNL1        0.0724
     18 C          -7.6825  -18.2304   21.9183 C.3     1  UNL1        0.0214
     19 C          -5.4659  -15.2619   26.0783 C.3     1  UNL1        0.2525
     20 O          -6.9596  -15.1821   25.9655 O.3     1  UNL1       -0.4714
@<TRIPOS>BOND
     1    19    20    1
     2    20     1    1
     3     1     2   ar
     4     2     3   ar
     5     3     4   ar
     6     4     5   ar
     7     5     6   ar
     8     5     7    1
     9     7     8    1
    10     8     9    1
    11     9    10    1
    12    10    11    1
    13    12    11    1
    14    12    13    1
    15    13    14    1
    16    13    15    1
    17    15    16    1
    18    15    17    1
    19    17    18    1
    20     6     1   ar
    21    12     7    1
    22    14     4    1
    23    18     7    1
@<TRIPOS>MOLECULE
*****
 20 23 0 0 0
SMALL
GASTEIGER

@<TRIPOS>ATOM
      1 C         -17.1921   -8.4021   19.0109 C.ar    1  UNL1        0.1384
      2 C         -16.3652   -9.5076   18.4241 C.ar    1  UNL1        0.0366
      3 C         -14.8964   -9.3056   18.1963 C.ar    1  UNL1       -0.0014
      4 C         -14.2545   -7.9982   18.5553 C.ar    1  UNL1       -0.0246
      5 C         -15.0815   -6.8928   19.1420 C.ar    1  UNL1       -0.0236
      6 C         -16.5502   -7.0948   19.3699 C.ar    1  UNL1        0.0323
      7 C         -14.4396   -5.5854   19.5010 C.3     1  UNL1        0.0213
      8 C         -15.2665   -4.4801   20.0878 C.3     1  UNL1        0.0041
      9 C         -14.6247   -3.1727   20.4467 C.3     1  UNL1        0.0003
     10 C         -13.1559   -2.9708   20.2189 C.3     1  UNL1        0.0001
     11 C         -12.3290   -4.0761   19.6321 C.3     1  UNL1        0.0017
     12 C         -12.9708   -5.3835   19.2732 C.3     1  UNL1        0.0188
     13 C         -12.1439   -6.4889   18.6864 C.3     1  UNL1        0.0621
     14 C         -12.7858   -7.7962   18.3274 C.3     1  UNL1        0.0420
     15 N         -12.9507   -6.7374   18.7598 N.3     1  UNL1       -0.2724
     16 C         -10.0333   -4.9795   18.8176 C.3     1  UNL1        0.0896
     17 C         -13.2276   -5.9065   19.1296 C.3     1  UNL1        0.0724
     18 C         -14.0985   -6.2856   19.1671 C.3     1  UNL1        0.0214
     19 C         -19.3170   -8.0271   20.4581 C.3     1  UNL1        0.2525
     20 O         -18.6609   -8.6041   19.2387 O.3     1  UNL1       -0.4714
@<TRIPOS>BOND
     1    19    20    1
     2    20     1    1
     3     1     2   ar
     4     2     3   ar
     5     3     4   ar
     6     4     5   ar
     7     5     6   ar
     8     5     7    1
     9     7     8    1
    10     8     9    1
    11     9    10    1
    12    10    11    1
    13    12    11    1
    14    12    13    1
    15    13    14    1
    16    13    15    1
    17    15    16    1
    18    15    17    1
    19    17    18    1
    20     6     1   ar
    21    12     7    1
    22    14     4    1
    23    18     7    1
