@<TRIPOS>MOLECULE
*****
 24 26 0 0 0
SMALL
GASTEIGER

@<TRIPOS>ATOM
      1 C          -8.7905  -17.1457   22.6125 C.3     1  UNL1        0.0847
      2 C         -10.2136  -17.4189   23.0000 C.ar    1  UNL1       -0.0073
      3 C         -11.3274  -16.6470   22.3568 C.ar    1  UNL1       -0.0007
      4 C         -12.7506  -16.9201   22.7443 C.ar    1  UNL1        0.0294
      5 C         -13.0599  -17.9652   23.7749 C.ar    1  UNL1        0.1401
      6 F         -14.4830  -18.2383   24.1623 F       1  UNL1       -0.2042
      7 C         -11.9461  -18.7371   24.4180 C.ar    1  UNL1        0.0294
      8 C         -10.5230  -18.4640   24.0306 C.ar    1  UNL1       -0.0007
      9 N          -8.0210  -18.1605   21.8200 N.3     1  UNL1       -0.2676
     10 C          -6.6402  -18.5583   22.2504 C.3     1  UNL1        0.0896
     11 C          -5.8707  -19.5730   21.4579 C.3     1  UNL1        0.0862
     12 N          -6.4819  -20.1899   20.2350 N.3     1  UNL1       -0.2951
     13 C          -7.8627  -19.7922   19.8045 C.3     1  UNL1        0.0862
     14 C          -8.6322  -18.7775   20.5970 C.3     1  UNL1        0.0896
     15 H          -6.5012  -21.1976   20.3918 H       1  UNL1        0.1233
     16 C          -8.1369  -15.8578   23.0177 C.3     1  UNL1        0.0499
     17 C          -6.1691  -15.5153   24.6792 C.ar    1  UNL1        0.1347
     18 C          -5.6698  -15.3366   26.0823 C.ar    1  UNL1        0.0366
     19 C          -6.6389  -15.3217   27.2270 C.ar    1  UNL1        0.0031
     20 C          -8.1074  -15.4855   26.9687 C.ar    1  UNL1       -0.0001
     21 C          -8.6067  -15.6642   25.5656 C.ar    1  UNL1       -0.0012
     22 C          -7.6376  -15.6791   24.4208 C.ar    1  UNL1        0.0135
     23 C          -4.1088  -16.5585   23.4888 C.3     1  UNL1        0.2525
     24 O          -5.2000  -15.5302   23.5343 O.3     1  UNL1       -0.4717
@<TRIPOS>BOND
     1    23    24    1
     2    24    17    1
     3    17    18   ar
     4    18    19   ar
     5    19    20   ar
     6    20    21   ar
     7    21    22   ar
     8    22    16    1
     9    16     1    1
    10     1     2    1
    11     2     3   ar
    12     3     4   ar
    13     4     5   ar
    14     5     6    1
    15     5     7   ar
    16     7     8   ar
    17     1     9    1
    18     9    10    1
    19    10    11    1
    20    11    12    1
    21    12    13    1
    22    13    14    1
    23    22    17   ar
    24     8     2   ar
    25    14     9    1
    26    12    15    1
@<TRIPOS>MOLECULE
*****
 24 26 0 0 0
SMALL
GASTEIGER

@<TRIPOS>ATOM
      1 C          -8.7038  -17.0341   22.5091 C.3     1  UNL1        0.0847
      2 C          -7.9339  -18.1334   21.8394 C.ar    1  UNL1       -0.0073
      3 C          -8.4644  -18.7653   20.5867 C.ar    1  UNL1       -0.0007
      4 C          -7.6943  -19.8647   19.9171 C.ar    1  UNL1        0.0294
      5 C          -6.3938  -20.3322   20.5001 C.ar    1  UNL1        0.1401
      6 F          -5.6238  -21.4316   19.8305 F       1  UNL1       -0.2042
      7 C          -5.8633  -19.7004   21.7528 C.ar    1  UNL1        0.0294
      8 C          -6.6332  -18.6010   22.4225 C.ar    1  UNL1       -0.0007
      9 N         -10.1764  -17.1886   22.7495 N.3     1  UNL1       -0.2676
     10 C         -10.6773  -18.2594   23.6727 C.3     1  UNL1        0.0896
     11 C         -12.1498  -18.4140   23.9131 C.3     1  UNL1        0.0862
     12 N         -13.1214  -17.4976   23.2303 N.3     1  UNL1       -0.2951
     13 C         -12.6205  -16.4267   22.3071 C.3     1  UNL1        0.0862
     14 C         -11.1480  -16.2722   22.0667 C.3     1  UNL1        0.0896
     15 H         -13.6504  -17.0287   23.9656 H       1  UNL1        0.1233
     16 C          -8.0013  -15.7802   22.9383 C.3     1  UNL1        0.0499
     17 C          -6.0735  -15.4693   24.6521 C.ar    1  UNL1        0.1347
     18 C          -5.6074  -15.3186   26.0698 C.ar    1  UNL1        0.0366
     19 C          -6.6031  -15.3281   27.1916 C.ar    1  UNL1        0.0031
     20 C          -8.0648  -15.4883   26.8957 C.ar    1  UNL1       -0.0001
     21 C          -8.5309  -15.6390   25.4779 C.ar    1  UNL1       -0.0012
     22 C          -7.5353  -15.6295   24.3561 C.ar    1  UNL1        0.0135
     23 C          -4.0365  -16.5358   23.4425 C.3     1  UNL1        0.2525
     24 O          -5.0778  -15.4598   23.5302 O.3     1  UNL1       -0.4717
@<TRIPOS>BOND
     1    23    24    1
     2    24    17    1
     3    17    18   ar
     4    18    19   ar
     5    19    20   ar
     6    20    21   ar
     7    21    22   ar
     8    22    16    1
     9    16     1    1
    10     1     2    1
    11     2     3   ar
    12     3     4   ar
    13     4     5   ar
    14     5     6    1
    15     5     7   ar
    16     7     8   ar
    17     1     9    1
    18     9    10    1
    19    10    11    1
    20    11    12    1
    21    12    13    1
    22    13    14    1
    23    22    17   ar
    24     8     2   ar
    25    14     9    1
    26    12    15    1
@<TRIPOS>MOLECULE
*****
 24 26 0 0 0
SMALL
GASTEIGER

@<TRIPOS>ATOM
      1 C          -8.6078  -16.6187   23.4669 C.3     1  UNL1        0.0847
      2 C         -10.0392  -17.0632   23.5243 C.ar    1  UNL1       -0.0073
      3 C         -10.4177  -18.2711   24.3292 C.ar    1  UNL1       -0.0007
      4 C         -11.8492  -18.7157   24.3866 C.ar    1  UNL1        0.0294
      5 C         -12.9022  -17.9523   23.6392 C.ar    1  UNL1        0.1401
      6 F         -14.3336  -18.3969   23.6967 F       1  UNL1       -0.2042
      7 C         -12.5237  -16.7445   22.8344 C.ar    1  UNL1        0.0294
      8 C         -11.0923  -16.2999   22.7769 C.ar    1  UNL1       -0.0007
      9 N          -7.9398  -16.0798   24.6972 N.3     1  UNL1       -0.2676
     10 C          -6.4838  -15.7208   24.6638 C.3     1  UNL1        0.0896
     11 C          -5.8158  -15.1820   25.8940 C.3     1  UNL1        0.0862
     12 N          -6.6038  -15.0023   27.1576 N.3     1  UNL1       -0.2951
     13 C          -8.0598  -15.3614   27.1910 C.3     1  UNL1        0.0862
     14 C          -8.7278  -15.9002   25.9608 C.3     1  UNL1        0.0896
     15 H          -6.5380  -14.0156   27.4078 H       1  UNL1        0.1233
     16 C          -7.8443  -16.7129   22.1792 C.3     1  UNL1        0.0499
     17 C          -7.9862  -18.8735   20.7433 C.ar    1  UNL1        0.1347
     18 C          -7.4039  -20.1865   20.3110 C.ar    1  UNL1        0.0366
     19 C          -6.0974  -20.6519   20.8822 C.ar    1  UNL1        0.0031
     20 C          -5.3732  -19.8044   21.8858 C.ar    1  UNL1       -0.0001
     21 C          -5.9555  -18.4914   22.3181 C.ar    1  UNL1       -0.0012
     22 C          -7.2620  -18.0259   21.7469 C.ar    1  UNL1        0.0135
     23 C         -10.5463  -19.1893   20.4329 C.3     1  UNL1        0.2525
     24 O          -9.2927  -18.4080   20.1720 O.3     1  UNL1       -0.4717
@<TRIPOS>BOND
     1    23    24    1
     2    24    17    1
     3    17    18   ar
     4    18    19   ar
     5    19    20   ar
     6    20    21   ar
     7    21    22   ar
     8    22    16    1
     9    16     1    1
    10     1     2    1
    11     2     3   ar
    12     3     4   ar
    13     4     5   ar
    14     5     6    1
    15     5     7   ar
    16     7     8   ar
    17     1     9    1
    18     9    10    1
    19    10    11    1
    20    11    12    1
    21    12    13    1
    22    13    14    1
    23    22    17   ar
    24     8     2   ar
    25    14     9    1
    26    12    15    1
@<TRIPOS>MOLECULE
*****
 24 26 0 0 0
SMALL
GASTEIGER

@<TRIPOS>ATOM
      1 C          -5.8202  -18.5020   22.3340 C.3     1  UNL1        0.0847
      2 C          -4.4839  -18.6201   21.6630 C.ar    1  UNL1       -0.0073
      3 C          -4.4058  -18.8937   20.1902 C.ar    1  UNL1       -0.0007
      4 C          -3.0694  -19.0119   19.5192 C.ar    1  UNL1        0.0294
      5 C          -1.8113  -18.8564   20.3209 C.ar    1  UNL1        0.1401
      6 F          -0.4750  -18.9745   19.6498 F       1  UNL1       -0.2042
      7 C          -1.8894  -18.5827   21.7936 C.ar    1  UNL1        0.0294
      8 C          -3.2256  -18.4646   22.4647 C.ar    1  UNL1       -0.0007
      9 N          -6.2282  -17.2060   22.9698 N.3     1  UNL1       -0.2676
     10 C          -5.2827  -16.4911   23.8890 C.3     1  UNL1        0.0896
     11 C          -5.6907  -15.1953   24.5248 C.3     1  UNL1        0.0862
     12 N          -7.0442  -14.6143   24.2414 N.3     1  UNL1       -0.2951
     13 C          -7.9898  -15.3292   23.3222 C.3     1  UNL1        0.0862
     14 C          -7.5818  -16.6251   22.6864 C.3     1  UNL1        0.0896
     15 H          -6.8896  -13.6883   23.8426 H       1  UNL1        0.1233
     16 C          -6.7485  -19.6797   22.3694 C.3     1  UNL1        0.0499
     17 C          -9.3451  -19.7550   22.4145 C.ar    1  UNL1        0.1347
     18 C         -10.6591  -19.6962   21.6935 C.ar    1  UNL1        0.0366
     19 C         -10.6905  -19.5031   20.2063 C.ar    1  UNL1        0.0031
     20 C          -9.4080  -19.3689   19.4401 C.ar    1  UNL1       -0.0001
     21 C          -8.0940  -19.4277   20.1611 C.ar    1  UNL1       -0.0012
     22 C          -8.0625  -19.6208   21.6483 C.ar    1  UNL1        0.0135
     23 C          -9.8816  -18.8955   24.8068 C.3     1  UNL1        0.2525
     24 O          -9.3136  -19.9481   23.9017 O.3     1  UNL1       -0.4717
@<TRIPOS>BOND
     1    23    24    1
     2    24    17    1
     3    17    18   ar
     4    18    19   ar
     5    19    20   ar
     6    20    21   ar
     7    21    22   ar
     8    22    16    1
     9    16     1    1
    10     1     2    1
    11     2     3   ar
    12     3     4   ar
    13     4     5   ar
    14     5     6    1
    15     5     7   ar
    16     7     8   ar
    17     1     9    1
    18     9    10    1
    19    10    11    1
    20    11    12    1
    21    12    13    1
    22    13    14    1
    23    22    17   ar
    24     8     2   ar
    25    14     9    1
    26    12    15    1
@<TRIPOS>MOLECULE
*****
 24 26 0 0 0
SMALL
GASTEIGER

@<TRIPOS>ATOM
      1 C          -8.5573  -16.5679   23.5442 C.3     1  UNL1        0.0847
      2 C          -9.9869  -17.0215   23.5602 C.ar    1  UNL1       -0.0073
      3 C         -11.0246  -16.2584   22.7915 C.ar    1  UNL1       -0.0007
      4 C         -12.4543  -16.7120   22.8076 C.ar    1  UNL1        0.0294
      5 C         -12.8463  -17.9287   23.5924 C.ar    1  UNL1        0.1401
      6 F         -14.2760  -18.3823   23.6084 F       1  UNL1       -0.2042
      7 C         -11.8086  -18.6919   24.3611 C.ar    1  UNL1        0.0294
      8 C         -10.3790  -18.2383   24.3450 C.ar    1  UNL1       -0.0007
      9 N          -7.9267  -16.0308   24.7948 N.3     1  UNL1       -0.2676
     10 C          -6.4813  -15.6296   24.7933 C.3     1  UNL1        0.0896
     11 C          -5.8508  -15.0925   26.0438 C.3     1  UNL1        0.0862
     12 N          -6.6655  -14.9567   27.2958 N.3     1  UNL1       -0.2951
     13 C          -8.1109  -15.3579   27.2974 C.3     1  UNL1        0.0862
     14 C          -8.7414  -15.8950   26.0468 C.3     1  UNL1        0.0896
     15 H          -6.6328  -13.9729   27.5632 H       1  UNL1        0.1233
     16 C          -7.7581  -16.6514   22.2775 C.3     1  UNL1        0.0499
     17 C          -5.8595  -18.4198   22.1412 C.ar    1  UNL1        0.1347
     18 C          -5.3527  -19.7471   21.6603 C.ar    1  UNL1        0.0366
     19 C          -6.2375  -20.6335   20.8349 C.ar    1  UNL1        0.0031
     20 C          -7.6293  -20.1926   20.4904 C.ar    1  UNL1       -0.0001
     21 C          -8.1361  -18.8652   20.9712 C.ar    1  UNL1       -0.0012
     22 C          -7.2513  -17.9788   21.7966 C.ar    1  UNL1        0.0135
     23 C          -3.5746  -17.9634   23.2906 C.3     1  UNL1        0.2525
     24 O          -4.9747  -17.5333   22.9666 O.3     1  UNL1       -0.4717
@<TRIPOS>BOND
     1    23    24    1
     2    24    17    1
     3    17    18   ar
     4    18    19   ar
     5    19    20   ar
     6    20    21   ar
     7    21    22   ar
     8    22    16    1
     9    16     1    1
    10     1     2    1
    11     2     3   ar
    12     3     4   ar
    13     4     5   ar
    14     5     6    1
    15     5     7   ar
    16     7     8   ar
    17     1     9    1
    18     9    10    1
    19    10    11    1
    20    11    12    1
    21    12    13    1
    22    13    14    1
    23    22    17   ar
    24     8     2   ar
    25    14     9    1
    26    12    15    1
@<TRIPOS>MOLECULE
*****
 24 26 0 0 0
SMALL
GASTEIGER

@<TRIPOS>ATOM
      1 C          -8.9994  -17.9951   22.9924 C.3     1  UNL1        0.0847
      2 C          -8.4773  -17.1757   24.1352 C.ar    1  UNL1       -0.0073
      3 C          -9.0820  -17.3210   25.5002 C.ar    1  UNL1       -0.0007
      4 C          -8.5598  -16.5016   26.6429 C.ar    1  UNL1        0.0294
      5 C          -7.4330  -15.5368   26.4207 C.ar    1  UNL1        0.1401
      6 F          -6.9109  -14.7174   27.5635 F       1  UNL1       -0.2042
      7 C          -6.8283  -15.3914   25.0557 C.ar    1  UNL1        0.0294
      8 C          -7.3504  -16.2108   23.9130 C.ar    1  UNL1       -0.0007
      9 N         -10.1936  -17.5245   22.2162 N.3     1  UNL1       -0.2676
     10 C         -11.5037  -18.2434   22.3467 C.3     1  UNL1        0.0896
     11 C         -12.6979  -17.7729   21.5705 C.3     1  UNL1        0.0862
     12 N         -12.5820  -16.5836   20.6638 N.3     1  UNL1       -0.2951
     13 C         -11.2719  -15.8648   20.5333 C.3     1  UNL1        0.0862
     14 C         -10.0777  -16.3353   21.3095 C.3     1  UNL1        0.0896
     15 H         -13.2631  -15.8977   20.9894 H       1  UNL1        0.1233
     16 C          -8.3273  -19.2850   22.6259 C.3     1  UNL1        0.0499
     17 C          -7.1358  -19.1520   20.3209 C.ar    1  UNL1        0.1347
     18 C          -5.8741  -19.1363   19.5098 C.ar    1  UNL1        0.0366
     19 C          -4.5424  -19.2378   20.1924 C.ar    1  UNL1        0.0031
     20 C          -4.4722  -19.3551   21.6862 C.ar    1  UNL1       -0.0001
     21 C          -5.7338  -19.3709   22.4973 C.ar    1  UNL1       -0.0012
     22 C          -7.0656  -19.2693   21.8147 C.ar    1  UNL1        0.0135
     23 C          -8.9281  -20.1479   18.7254 C.3     1  UNL1        0.2525
     24 O          -8.4676  -19.0504   19.6383 O.3     1  UNL1       -0.4717
@<TRIPOS>BOND
     1    23    24    1
     2    24    17    1
     3    17    18   ar
     4    18    19   ar
     5    19    20   ar
     6    20    21   ar
     7    21    22   ar
     8    22    16    1
     9    16     1    1
    10     1     2    1
    11     2     3   ar
    12     3     4   ar
    13     4     5   ar
    14     5     6    1
    15     5     7   ar
    16     7     8   ar
    17     1     9    1
    18     9    10    1
    19    10    11    1
    20    11    12    1
    21    12    13    1
    22    13    14    1
    23    22    17   ar
    24     8     2   ar
    25    14     9    1
    26    12    15    1
@<TRIPOS>MOLECULE
*****
 24 26 0 0 0
SMALL
GASTEIGER

@<TRIPOS>ATOM
      1 C          -7.9762  -18.6429   22.7032 C.3     1  UNL1        0.0847
      2 C          -6.7608  -19.2108   22.0323 C.ar    1  UNL1       -0.0073
      3 C          -5.3936  -18.7475   22.4400 C.ar    1  UNL1       -0.0007
      4 C          -4.1782  -19.3155   21.7690 C.ar    1  UNL1        0.0294
      5 C          -4.3299  -20.3466   20.6903 C.ar    1  UNL1        0.1401
      6 F          -3.1145  -20.9145   20.0194 F       1  UNL1       -0.2042
      7 C          -5.6970  -20.8099   20.2826 C.ar    1  UNL1        0.0294
      8 C          -6.9125  -20.2420   20.9535 C.ar    1  UNL1       -0.0007
      9 N          -7.9747  -17.2202   23.1786 N.3     1  UNL1       -0.2676
     10 C          -8.1063  -16.9183   24.6420 C.3     1  UNL1        0.0896
     11 C          -8.1047  -15.4956   25.1174 C.3     1  UNL1        0.0862
     12 N          -7.9716  -14.3749   24.1294 N.3     1  UNL1       -0.2951
     13 C          -7.8400  -14.6768   22.6660 C.3     1  UNL1        0.0862
     14 C          -7.8415  -16.0995   22.1906 C.3     1  UNL1        0.0896
     15 H          -7.1425  -13.8441   24.3962 H       1  UNL1        0.1233
     16 C          -9.1932  -19.4977   22.8988 C.3     1  UNL1        0.0499
     17 C         -11.0660  -18.2363   21.6138 C.ar    1  UNL1        0.1347
     18 C         -12.4310  -17.6151   21.5865 C.ar    1  UNL1        0.0366
     19 C         -13.2883  -17.6340   22.8172 C.ar    1  UNL1        0.0031
     20 C         -12.7806  -18.2742   24.0752 C.ar    1  UNL1       -0.0001
     21 C         -11.4156  -18.8954   24.1024 C.ar    1  UNL1       -0.0012
     22 C         -10.5583  -18.8765   22.8717 C.ar    1  UNL1        0.0135
     23 C         -10.2292  -19.3810   19.4367 C.3     1  UNL1        0.2525
     24 O         -10.2087  -18.2173   20.3830 O.3     1  UNL1       -0.4717
@<TRIPOS>BOND
     1    23    24    1
     2    24    17    1
     3    17    18   ar
     4    18    19   ar
     5    19    20   ar
     6    20    21   ar
     7    21    22   ar
     8    22    16    1
     9    16     1    1
    10     1     2    1
    11     2     3   ar
    12     3     4   ar
    13     4     5   ar
    14     5     6    1
    15     5     7   ar
    16     7     8   ar
    17     1     9    1
    18     9    10    1
    19    10    11    1
    20    11    12    1
    21    12    13    1
    22    13    14    1
    23    22    17   ar
    24     8     2   ar
    25    14     9    1
    26    12    15    1
@<TRIPOS>MOLECULE
*****
 24 26 0 0 0
SMALL
GASTEIGER

@<TRIPOS>ATOM
      1 C          -8.7179  -16.7026   23.4410 C.3     1  UNL1        0.0847
      2 C         -10.1540  -17.1207   23.5533 C.ar    1  UNL1       -0.0073
      3 C         -10.5150  -18.3709   24.2995 C.ar    1  UNL1       -0.0007
      4 C         -11.9513  -18.7889   24.4118 C.ar    1  UNL1        0.0294
      5 C         -13.0264  -17.9569   23.7780 C.ar    1  UNL1        0.1401
      6 F         -14.4625  -18.3749   23.8903 F       1  UNL1       -0.2042
      7 C         -12.6653  -16.7067   23.0318 C.ar    1  UNL1        0.0294
      8 C         -11.2292  -16.2886   22.9195 C.ar    1  UNL1       -0.0007
      9 N          -8.0021  -16.1489   24.6374 N.3     1  UNL1       -0.2676
     10 C          -8.7309  -15.9857   25.9382 C.3     1  UNL1        0.0896
     11 C          -8.0153  -15.4320   27.1345 C.3     1  UNL1        0.0862
     12 N          -6.5708  -15.0414   27.0300 N.3     1  UNL1       -0.2951
     13 C          -5.8420  -15.2046   25.7291 C.3     1  UNL1        0.0862
     14 C          -6.5577  -15.7583   24.5328 C.3     1  UNL1        0.0896
     15 H          -6.0654  -15.5946   27.7220 H       1  UNL1        0.1233
     16 C          -7.9974  -16.8382   22.1324 C.3     1  UNL1        0.0499
     17 C          -7.3636  -18.8724   20.6456 C.ar    1  UNL1        0.1347
     18 C          -7.7603  -19.9487   19.6791 C.ar    1  UNL1        0.0366
     19 C          -9.1874  -20.0672   19.2328 C.ar    1  UNL1        0.0031
     20 C         -10.2179  -19.1093   19.7530 C.ar    1  UNL1       -0.0001
     21 C          -9.8212  -18.0330   20.7195 C.ar    1  UNL1       -0.0012
     22 C          -8.3941  -17.9146   21.1658 C.ar    1  UNL1        0.0135
     23 C          -4.8292  -19.2275   20.1977 C.3     1  UNL1        0.2525
     24 O          -5.9364  -18.7539   21.0919 O.3     1  UNL1       -0.4717
@<TRIPOS>BOND
     1    23    24    1
     2    24    17    1
     3    17    18   ar
     4    18    19   ar
     5    19    20   ar
     6    20    21   ar
     7    21    22   ar
     8    22    16    1
     9    16     1    1
    10     1     2    1
    11     2     3   ar
    12     3     4   ar
    13     4     5   ar
    14     5     6    1
    15     5     7   ar
    16     7     8   ar
    17     1     9    1
    18     9    10    1
    19    10    11    1
    20    11    12    1
    21    12    13    1
    22    13    14    1
    23    22    17   ar
    24     8     2   ar
    25    14     9    1
    26    12    15    1
@<TRIPOS>MOLECULE
*****
 24 26 0 0 0
SMALL
GASTEIGER

@<TRIPOS>ATOM
      1 C          -6.0608  -18.6551   22.1401 C.3     1  UNL1        0.0847
      2 C          -4.6836  -18.7345   21.5512 C.ar    1  UNL1       -0.0073
      3 C          -4.5095  -18.9603   20.0785 C.ar    1  UNL1       -0.0007
      4 C          -3.1322  -19.0397   19.4895 C.ar    1  UNL1        0.0294
      5 C          -1.9291  -18.8933   20.3732 C.ar    1  UNL1        0.1401
      6 F          -0.5519  -18.9727   19.7842 F       1  UNL1       -0.2042
      7 C          -2.1031  -18.6675   21.8459 C.ar    1  UNL1        0.0294
      8 C          -3.4803  -18.5881   22.4348 C.ar    1  UNL1       -0.0007
      9 N          -6.5851  -17.3444   22.6476 N.3     1  UNL1       -0.2676
     10 C          -5.8814  -16.6386   23.7686 C.3     1  UNL1        0.0896
     11 C          -6.4056  -15.3280   24.2761 C.3     1  UNL1        0.0862
     12 N          -7.6336  -14.7233   23.6625 N.3     1  UNL1       -0.2951
     13 C          -8.3373  -15.4292   22.5416 C.3     1  UNL1        0.0862
     14 C          -7.8130  -16.7397   22.0341 C.3     1  UNL1        0.0896
     15 H          -7.3646  -13.8050   23.3094 H       1  UNL1        0.1233
     16 C          -6.9137  -19.8862   22.2217 C.3     1  UNL1        0.0499
     17 C          -9.1899  -19.4674   21.0411 C.ar    1  UNL1        0.1347
     18 C         -10.6832  -19.3422   21.1058 C.ar    1  UNL1        0.0366
     19 C         -11.3938  -19.5107   22.4160 C.ar    1  UNL1        0.0031
     20 C         -10.6111  -19.8043   23.6614 C.ar    1  UNL1       -0.0001
     21 C          -9.1178  -19.9295   23.5967 C.ar    1  UNL1       -0.0012
     22 C          -8.4072  -19.7611   22.2865 C.ar    1  UNL1        0.0135
     23 C          -8.8236  -20.1860   18.5713 C.3     1  UNL1        0.2525
     24 O          -8.4792  -19.2989   19.7308 O.3     1  UNL1       -0.4717
@<TRIPOS>BOND
     1    23    24    1
     2    24    17    1
     3    17    18   ar
     4    18    19   ar
     5    19    20   ar
     6    20    21   ar
     7    21    22   ar
     8    22    16    1
     9    16     1    1
    10     1     2    1
    11     2     3   ar
    12     3     4   ar
    13     4     5   ar
    14     5     6    1
    15     5     7   ar
    16     7     8   ar
    17     1     9    1
    18     9    10    1
    19    10    11    1
    20    11    12    1
    21    12    13    1
    22    13    14    1
    23    22    17   ar
    24     8     2   ar
    25    14     9    1
    26    12    15    1
