@<TRIPOS>MOLECULE
*****
 29 32 0 0 0
SMALL
GASTEIGER

@<TRIPOS>ATOM
      1 C          -6.6836  -16.5469   23.9252 C.3     1  UNL1        0.1025
      2 C          -7.8056  -15.9952   24.7539 C.3     1  UNL1        0.0259
      3 C          -9.2287  -16.2659   24.3648 C.3     1  UNL1        0.0450
      4 C          -9.5298  -17.0883   23.1470 C.ar    1  UNL1        0.0350
      5 C         -10.8233  -17.5181   22.5207 C.ar    1  UNL1        0.0141
      6 C         -10.5007  -18.3354   21.3050 C.ar    1  UNL1        0.0945
      7 N         -11.3734  -19.0207   20.2958 N.ar    1  UNL1       -0.2427
      8 C         -10.7533  -19.7814   19.1614 C.ar    1  UNL1        0.0989
      9 C          -9.2604  -19.8568   19.0364 C.ar    1  UNL1        0.0222
     10 C          -8.3877  -19.1714   20.0456 C.ar    1  UNL1        0.0203
     11 C          -9.0078  -18.4108   21.1799 C.ar    1  UNL1        0.0773
     12 N          -8.4078  -17.6400   22.3183 N.ar    1  UNL1       -0.3283
     13 C          -6.9847  -17.3693   22.7074 C.3     1  UNL1        0.1234
     14 C          -4.9554  -15.5901   25.6129 C.3     1  UNL1        0.1149
     15 N          -5.2604  -16.2761   24.3143 N.3     1  UNL1       -0.1535
     16 S          -4.1423  -16.6915   23.4047 S.O2    1  UNL1        0.0633
     17 O          -4.1258  -15.3198   22.7983 O.2     1  UNL1       -0.1528
     18 O          -4.1588  -18.0634   24.0112 O.2     1  UNL1       -0.1528
     19 C          -3.0242  -17.1070   22.4952 C.ar    1  UNL1        0.1223
     20 C          -2.7349  -18.5630   22.2790 C.ar    1  UNL1        0.0222
     21 C          -1.6168  -18.9785   21.3695 C.ar    1  UNL1        0.0310
     22 C          -0.7881  -17.9380   20.6762 C.ar    1  UNL1        0.1402
     23 F           0.3300  -18.3535   19.7666 F       1  UNL1       -0.2042
     24 C          -1.0774  -16.4821   20.8923 C.ar    1  UNL1        0.0310
     25 C          -2.1954  -16.0667   21.8018 C.ar    1  UNL1        0.0222
     26 C         -12.1981  -17.1885   23.0221 C.3     1  UNL1        0.0707
     27 C         -12.8663  -18.0844   24.0226 C.2     1  UNL1        0.0548
     28 O         -12.0402  -18.9836   24.8938 O.co2   1  UNL1       -0.5488
     29 O         -14.3608  -18.0811   24.1519 O.co2   1  UNL1       -0.5488
@<TRIPOS>UNITY_ATOM_ATTR
28 1
charge -1
@<TRIPOS>BOND
     1    14    15    1
     2     1    15    1
     3     1     2    1
     4     2     3    1
     5     3     4    1
     6     4     5   ar
     7     5    26    1
     8    26    27    1
     9    27    28   ar
    10    27    29   ar
    11     5     6   ar
    12     6     7   ar
    13     7     8   ar
    14     8     9   ar
    15     9    10   ar
    16    10    11   ar
    17    11    12   ar
    18    12    13    1
    19    15    16    1
    20    16    17    2
    21    16    18    2
    22    16    19    1
    23    19    20   ar
    24    20    21   ar
    25    21    22   ar
    26    22    23    1
    27    22    24   ar
    28    24    25   ar
    29    13     1    1
    30    25    19   ar
    31    12     4   ar
    32    11     6   ar
@<TRIPOS>MOLECULE
*****
 29 32 0 0 0
SMALL
GASTEIGER

@<TRIPOS>ATOM
      1 C          -6.4143  -16.5518   23.8599 C.3     1  UNL1        0.1025
      2 C          -5.0411  -16.0148   24.1356 C.3     1  UNL1        0.0259
      3 C          -3.8434  -16.6562   23.4998 C.3     1  UNL1        0.0450
      4 C          -4.0189  -17.8345   22.5883 C.ar    1  UNL1        0.0350
      5 C          -3.0334  -18.6677   21.8239 C.ar    1  UNL1        0.0141
      6 C          -3.7974  -19.7196   21.0758 C.ar    1  UNL1        0.0945
      7 N          -3.3540  -20.8206   20.1586 N.ar    1  UNL1       -0.2427
      8 C          -4.3684  -21.7384   19.5434 C.ar    1  UNL1        0.0989
      9 C          -5.8262  -21.5553   19.8454 C.ar    1  UNL1        0.0222
     10 C          -6.2696  -20.4543   20.7626 C.ar    1  UNL1        0.0203
     11 C          -5.2552  -19.5365   21.3778 C.ar    1  UNL1        0.0773
     12 N          -5.3921  -18.3714   22.3126 N.ar    1  UNL1       -0.3283
     13 C          -6.5898  -17.7301   22.9484 C.3     1  UNL1        0.1234
     14 C          -7.4334  -14.7594   25.4407 C.3     1  UNL1        0.1149
     15 N          -7.6121  -15.9104   24.4957 N.3     1  UNL1       -0.1535
     16 S          -8.9884  -16.4203   24.1863 S.O2    1  UNL1        0.0633
     17 O          -9.0228  -17.1294   25.5076 O.2     1  UNL1       -0.1528
     18 O          -8.9540  -15.7112   22.8649 O.2     1  UNL1       -0.1528
     19 C         -10.3648  -16.9301   23.8769 C.ar    1  UNL1        0.1223
     20 C         -11.2354  -16.1944   22.9017 C.ar    1  UNL1        0.0222
     21 C         -12.6118  -16.7042   22.5922 C.ar    1  UNL1        0.0310
     22 C         -13.1174  -17.9497   23.2580 C.ar    1  UNL1        0.1402
     23 F         -14.4938  -18.4595   22.9486 F       1  UNL1       -0.2042
     24 C         -12.2468  -18.6853   24.2331 C.ar    1  UNL1        0.0310
     25 C         -10.8706  -18.1755   24.5425 C.ar    1  UNL1        0.0222
     26 C          -1.5450  -18.4817   21.8101 C.3     1  UNL1        0.0707
     27 C          -0.8700  -17.9248   20.5917 C.2     1  UNL1        0.0548
     28 O          -0.0395  -18.8190   19.7196 O.co2   1  UNL1       -0.5488
     29 O          -1.0256  -16.4736   20.2455 O.co2   1  UNL1       -0.5488
@<TRIPOS>UNITY_ATOM_ATTR
28 1
charge -1
@<TRIPOS>BOND
     1    14    15    1
     2     1    15    1
     3     1     2    1
     4     2     3    1
     5     3     4    1
     6     4     5   ar
     7     5    26    1
     8    26    27    1
     9    27    28   ar
    10    27    29   ar
    11     5     6   ar
    12     6     7   ar
    13     7     8   ar
    14     8     9   ar
    15     9    10   ar
    16    10    11   ar
    17    11    12   ar
    18    12    13    1
    19    15    16    1
    20    16    17    2
    21    16    18    2
    22    16    19    1
    23    19    20   ar
    24    20    21   ar
    25    21    22   ar
    26    22    23    1
    27    22    24   ar
    28    24    25   ar
    29    13     1    1
    30    25    19   ar
    31    12     4   ar
    32    11     6   ar
@<TRIPOS>MOLECULE
*****
 29 32 0 0 0
SMALL
GASTEIGER

@<TRIPOS>ATOM
      1 C          -6.8533  -19.1854   21.0762 C.3     1  UNL1        0.1025
      2 C          -8.1942  -19.1552   20.4047 C.3     1  UNL1        0.0259
      3 C          -9.3117  -18.3488   20.9971 C.3     1  UNL1        0.0450
      4 C          -9.0882  -17.5726   22.2611 C.ar    1  UNL1        0.0350
      5 C          -9.9935  -16.6943   23.0729 C.ar    1  UNL1        0.0141
      6 C          -9.2120  -16.1817   24.2462 C.ar    1  UNL1        0.0945
      7 N          -9.5852  -15.2762   25.3823 N.ar    1  UNL1       -0.2427
      8 C          -8.5701  -14.9322   26.4317 C.ar    1  UNL1        0.0989
      9 C          -7.1819  -15.4937   26.3450 C.ar    1  UNL1        0.0222
     10 C          -6.8087  -16.3992   25.2089 C.ar    1  UNL1        0.0203
     11 C          -7.8238  -16.7432   24.1595 C.ar    1  UNL1        0.0773
     12 N          -7.7473  -17.6028   22.9327 N.ar    1  UNL1       -0.3283
     13 C          -6.6298  -18.4092   22.3402 C.3     1  UNL1        0.1234
     14 C          -5.9901  -21.3928   20.0121 C.3     1  UNL1        0.1149
     15 N          -5.7358  -19.9918   20.4838 N.3     1  UNL1       -0.1535
     16 S          -4.3640  -19.3971   20.3632 S.O2    1  UNL1        0.0633
     17 O          -4.8629  -18.4612   19.3025 O.2     1  UNL1       -0.1528
     18 O          -3.8650  -20.3330   21.4239 O.2     1  UNL1       -0.1528
     19 C          -2.9922  -18.8024   20.2426 C.ar    1  UNL1        0.1223
     20 C          -2.4895  -18.3409   18.9067 C.ar    1  UNL1        0.0222
     21 C          -1.1177  -17.7462   18.7861 C.ar    1  UNL1        0.0310
     22 C          -0.2486  -17.6131   20.0014 C.ar    1  UNL1        0.1402
     23 F           1.1232  -17.0184   19.8809 F       1  UNL1       -0.2042
     24 C          -0.7513  -18.0746   21.3372 C.ar    1  UNL1        0.0310
     25 C          -2.1230  -18.6692   21.4578 C.ar    1  UNL1        0.0222
     26 C         -11.4283  -16.3832   22.7655 C.3     1  UNL1        0.0707
     27 C         -12.4206  -17.4973   22.6096 C.2     1  UNL1        0.0548
     28 O         -12.9747  -17.8239   21.2545 O.co2   1  UNL1       -0.5488
     29 O         -12.8586  -18.2847   23.8088 O.co2   1  UNL1       -0.5488
@<TRIPOS>UNITY_ATOM_ATTR
28 1
charge -1
@<TRIPOS>BOND
     1    14    15    1
     2     1    15    1
     3     1     2    1
     4     2     3    1
     5     3     4    1
     6     4     5   ar
     7     5    26    1
     8    26    27    1
     9    27    28   ar
    10    27    29   ar
    11     5     6   ar
    12     6     7   ar
    13     7     8   ar
    14     8     9   ar
    15     9    10   ar
    16    10    11   ar
    17    11    12   ar
    18    12    13    1
    19    15    16    1
    20    16    17    2
    21    16    18    2
    22    16    19    1
    23    19    20   ar
    24    20    21   ar
    25    21    22   ar
    26    22    23    1
    27    22    24   ar
    28    24    25   ar
    29    13     1    1
    30    25    19   ar
    31    12     4   ar
    32    11     6   ar
@<TRIPOS>MOLECULE
*****
 29 32 0 0 0
SMALL
GASTEIGER

@<TRIPOS>ATOM
      1 C          -7.2235  -19.6975   21.3228 C.3     1  UNL1        0.1025
      2 C          -7.4841  -19.1888   19.9359 C.3     1  UNL1        0.0259
      3 C          -8.8108  -18.5753   19.5991 C.3     1  UNL1        0.0450
      4 C          -9.8769  -18.4703   20.6491 C.ar    1  UNL1        0.0350
      5 C         -11.2712  -17.9187   20.6122 C.ar    1  UNL1        0.0141
      6 C         -11.8724  -18.0863   21.9762 C.ar    1  UNL1        0.0945
      7 N         -13.2190  -17.7270   22.5306 N.ar    1  UNL1       -0.2427
      8 C         -13.5428  -18.0229   23.9650 C.ar    1  UNL1        0.0989
      9 C         -12.5199  -18.6783   24.8450 C.ar    1  UNL1        0.0222
     10 C         -11.1733  -19.0376   24.2906 C.ar    1  UNL1        0.0203
     11 C         -10.8496  -18.7417   22.8562 C.ar    1  UNL1        0.0773
     12 N          -9.6163  -18.9790   22.0360 N.ar    1  UNL1       -0.3283
     13 C          -8.2896  -19.5925   22.3728 C.3     1  UNL1        0.1234
     14 C          -5.8397  -21.6233   22.3841 C.3     1  UNL1        0.1149
     15 N          -5.8968  -20.3111   21.6597 N.3     1  UNL1       -0.1535
     16 S          -4.6274  -19.6123   21.2720 S.O2    1  UNL1        0.0633
     17 O          -4.9489  -18.4994   22.2248 O.2     1  UNL1       -0.1528
     18 O          -4.3058  -20.7253   20.3192 O.2     1  UNL1       -0.1528
     19 C          -3.3579  -18.9137   20.8843 C.ar    1  UNL1        0.1223
     20 C          -2.9831  -18.7874   19.4373 C.ar    1  UNL1        0.0222
     21 C          -1.7136  -18.0887   19.0496 C.ar    1  UNL1        0.0310
     22 C          -0.8190  -17.5164   20.1089 C.ar    1  UNL1        0.1402
     23 F           0.4505  -16.8177   19.7211 F       1  UNL1       -0.2042
     24 C          -1.1938  -17.6427   21.5558 C.ar    1  UNL1        0.0310
     25 C          -2.4632  -18.3413   21.9435 C.ar    1  UNL1        0.0222
     26 C         -11.9460  -17.3067   19.4205 C.3     1  UNL1        0.0707
     27 C         -11.9504  -15.8171   19.2438 C.2     1  UNL1        0.0548
     28 O         -13.2485  -15.0654   19.2457 O.co2   1  UNL1       -0.5488
     29 O         -10.6567  -15.0792   19.0653 O.co2   1  UNL1       -0.5488
@<TRIPOS>UNITY_ATOM_ATTR
28 1
charge -1
@<TRIPOS>BOND
     1    14    15    1
     2     1    15    1
     3     1     2    1
     4     2     3    1
     5     3     4    1
     6     4     5   ar
     7     5    26    1
     8    26    27    1
     9    27    28   ar
    10    27    29   ar
    11     5     6   ar
    12     6     7   ar
    13     7     8   ar
    14     8     9   ar
    15     9    10   ar
    16    10    11   ar
    17    11    12   ar
    18    12    13    1
    19    15    16    1
    20    16    17    2
    21    16    18    2
    22    16    19    1
    23    19    20   ar
    24    20    21   ar
    25    21    22   ar
    26    22    23    1
    27    22    24   ar
    28    24    25   ar
    29    13     1    1
    30    25    19   ar
    31    12     4   ar
    32    11     6   ar
@<TRIPOS>MOLECULE
*****
 29 32 0 0 0
SMALL
GASTEIGER

@<TRIPOS>ATOM
      1 C           0.5980    2.3017   20.0066 C.3     1  UNL1        0.1025
      2 C           0.8118    1.7457   18.6300 C.3     1  UNL1        0.0259
      3 C           1.6627    0.5255   18.4378 C.3     1  UNL1        0.0450
      4 C           2.2999   -0.1387   19.6223 C.ar    1  UNL1        0.0350
      5 C           3.1830   -1.3453   19.7417 C.ar    1  UNL1        0.0141
      6 C           3.5150   -1.5350   21.1922 C.ar    1  UNL1        0.0945
      7 N           4.3471   -2.5589   21.9058 N.ar    1  UNL1       -0.2427
      8 C           4.5011   -2.4934   23.3964 C.ar    1  UNL1        0.0989
      9 C           3.8232   -1.4041   24.1734 C.ar    1  UNL1        0.0222
     10 C           2.9911   -0.3802   23.4598 C.ar    1  UNL1        0.0203
     11 C           2.8370   -0.4456   21.9692 C.ar    1  UNL1        0.0773
     12 N           2.0860    0.4173   20.9989 N.ar    1  UNL1       -0.3283
     13 C           1.2351    1.6375   21.1911 C.3     1  UNL1        0.1234
     14 C          -0.0286    4.7349   19.3453 C.3     1  UNL1        0.1149
     15 N          -0.2530    3.5220   20.1989 N.3     1  UNL1       -0.1535
     16 S          -1.3283    3.5292   21.2447 S.O2    1  UNL1        0.0633
     17 O          -0.5599    4.5520   22.0278 O.2     1  UNL1       -0.1528
     18 O          -2.0967    2.5063   20.4615 O.2     1  UNL1       -0.1528
     19 C          -2.4036    3.5363   22.2905 C.ar    1  UNL1        0.1223
     20 C          -3.8434    3.4178   21.8865 C.ar    1  UNL1        0.0222
     21 C          -4.9188    3.4250   22.9323 C.ar    1  UNL1        0.0310
     22 C          -4.5542    3.5506   24.3819 C.ar    1  UNL1        0.1402
     23 F          -5.6296    3.5578   25.4277 F       1  UNL1       -0.2042
     24 C          -3.1145    3.6691   24.7858 C.ar    1  UNL1        0.0310
     25 C          -2.0392    3.6619   23.7401 C.ar    1  UNL1        0.0222
     26 C           3.6519   -2.2103   18.6095 C.3     1  UNL1        0.0707
     27 C           4.5363   -1.6355   17.5429 C.2     1  UNL1        0.0548
     28 O           3.9294   -1.0054   16.3244 O.co2   1  UNL1       -0.5488
     29 O           6.0276   -1.6907   17.6949 O.co2   1  UNL1       -0.5488
@<TRIPOS>UNITY_ATOM_ATTR
28 1
charge -1
@<TRIPOS>BOND
     1    14    15    1
     2     1    15    1
     3     1     2    1
     4     2     3    1
     5     3     4    1
     6     4     5   ar
     7     5    26    1
     8    26    27    1
     9    27    28   ar
    10    27    29   ar
    11     5     6   ar
    12     6     7   ar
    13     7     8   ar
    14     8     9   ar
    15     9    10   ar
    16    10    11   ar
    17    11    12   ar
    18    12    13    1
    19    15    16    1
    20    16    17    2
    21    16    18    2
    22    16    19    1
    23    19    20   ar
    24    20    21   ar
    25    21    22   ar
    26    22    23    1
    27    22    24   ar
    28    24    25   ar
    29    13     1    1
    30    25    19   ar
    31    12     4   ar
    32    11     6   ar
@<TRIPOS>MOLECULE
*****
 29 32 0 0 0
SMALL
GASTEIGER

@<TRIPOS>ATOM
      1 C           0.7095    2.3416   20.0810 C.3     1  UNL1        0.1025
      2 C           0.8878    1.7898   18.6977 C.3     1  UNL1        0.0259
      3 C           1.7070    0.5515   18.4840 C.3     1  UNL1        0.0450
      4 C           2.3478   -0.1349   19.6537 C.ar    1  UNL1        0.0350
      5 C           3.2046   -1.3623   19.7512 C.ar    1  UNL1        0.0141
      6 C           3.5558   -1.5690   21.1948 C.ar    1  UNL1        0.0945
      7 N           4.3754   -2.6164   21.8884 N.ar    1  UNL1       -0.2427
      8 C           4.5554   -2.5642   23.3766 C.ar    1  UNL1        0.0989
      9 C           3.9156   -1.4646   24.1713 C.ar    1  UNL1        0.0222
     10 C           3.0960   -0.4171   23.4778 C.ar    1  UNL1        0.0203
     11 C           2.9161   -0.4693   21.9895 C.ar    1  UNL1        0.0773
     12 N           2.1695    0.4169   21.0371 N.ar    1  UNL1       -0.3283
     13 C           1.3504    1.6552   21.2507 C.3     1  UNL1        0.1234
     14 C           0.5300    4.8146   20.8573 C.3     1  UNL1        0.1149
     15 N          -0.1097    3.5799   20.2947 N.3     1  UNL1       -0.1535
     16 S          -1.5685    3.5835   19.9457 S.O2    1  UNL1        0.0633
     17 O          -1.8527    2.7000   21.1241 O.2     1  UNL1       -0.1528
     18 O          -1.2844    4.4671   18.7673 O.2     1  UNL1       -0.1528
     19 C          -3.0274    3.5871   19.5967 C.ar    1  UNL1        0.1223
     20 C          -4.0530    3.3172   20.6575 C.ar    1  UNL1        0.0222
     21 C          -5.5119    3.3208   20.3084 C.ar    1  UNL1        0.0310
     22 C          -5.9449    3.5943   18.8986 C.ar    1  UNL1        0.1402
     23 F          -7.4038    3.5979   18.5495 F       1  UNL1       -0.2042
     24 C          -4.9193    3.8643   17.8379 C.ar    1  UNL1        0.0310
     25 C          -3.4606    3.8606   18.1869 C.ar    1  UNL1        0.0222
     26 C           3.6347   -2.2306   18.6062 C.3     1  UNL1        0.0707
     27 C           4.5310   -1.6752   17.5392 C.2     1  UNL1        0.0548
     28 O           6.0207   -1.7668   17.6886 O.co2   1  UNL1       -0.5488
     29 O           3.9375   -1.0283   16.3229 O.co2   1  UNL1       -0.5488
@<TRIPOS>UNITY_ATOM_ATTR
28 1
charge -1
@<TRIPOS>BOND
     1    14    15    1
     2     1    15    1
     3     1     2    1
     4     2     3    1
     5     3     4    1
     6     4     5   ar
     7     5    26    1
     8    26    27    1
     9    27    28   ar
    10    27    29   ar
    11     5     6   ar
    12     6     7   ar
    13     7     8   ar
    14     8     9   ar
    15     9    10   ar
    16    10    11   ar
    17    11    12   ar
    18    12    13    1
    19    15    16    1
    20    16    17    2
    21    16    18    2
    22    16    19    1
    23    19    20   ar
    24    20    21   ar
    25    21    22   ar
    26    22    23    1
    27    22    24   ar
    28    24    25   ar
    29    13     1    1
    30    25    19   ar
    31    12     4   ar
    32    11     6   ar
@<TRIPOS>MOLECULE
*****
 29 32 0 0 0
SMALL
GASTEIGER

@<TRIPOS>ATOM
      1 C         -13.2072   -0.7999   17.9186 C.3     1  UNL1        0.1025
      2 C         -13.2932    0.6750   18.1780 C.3     1  UNL1        0.0259
      3 C         -14.5024    1.2481   18.8557 C.3     1  UNL1        0.0450
      4 C         -15.6257    0.3464   19.2741 C.ar    1  UNL1        0.0350
      5 C         -16.9330    0.6216   19.9561 C.ar    1  UNL1        0.0141
      6 C         -17.6551   -0.6831   20.1182 C.ar    1  UNL1        0.0945
      7 N         -18.9853   -1.0260   20.7204 N.ar    1  UNL1       -0.2427
      8 C         -19.4546   -2.4505   20.7409 C.ar    1  UNL1        0.0989
      9 C         -18.5935   -3.5322   20.1591 C.ar    1  UNL1        0.0222
     10 C         -17.2632   -3.1893   19.5568 C.ar    1  UNL1        0.0203
     11 C         -16.7940   -1.7648   19.5364 C.ar    1  UNL1        0.0773
     12 N         -15.5398   -1.1285   19.0147 N.ar    1  UNL1       -0.3283
     13 C         -14.3306   -1.7017   18.3370 C.3     1  UNL1        0.1234
     14 C         -11.2727   -0.5739   16.1992 C.3     1  UNL1        0.1149
     15 N         -11.9980   -1.3731   17.2409 N.3     1  UNL1       -0.1535
     16 S         -11.5142   -2.7454   17.6050 S.O2    1  UNL1        0.0633
     17 O         -11.1147   -2.2448   18.9613 O.2     1  UNL1       -0.1528
     18 O         -11.9137   -3.2460   16.2486 O.2     1  UNL1       -0.1528
     19 C         -11.0304   -4.1178   17.9690 C.ar    1  UNL1        0.1223
     20 C         -11.7268   -5.3283   17.4214 C.ar    1  UNL1        0.0222
     21 C         -11.2431   -6.7007   17.7855 C.ar    1  UNL1        0.0310
     22 C         -10.0629   -6.8625   18.6971 C.ar    1  UNL1        0.1402
     23 F          -9.5791   -8.2349   19.0611 F       1  UNL1       -0.2042
     24 C          -9.3665   -5.6521   19.2446 C.ar    1  UNL1        0.0310
     25 C          -9.8502   -4.2798   18.8806 C.ar    1  UNL1        0.0222
     26 C         -17.4309    1.9657   20.3983 C.3     1  UNL1        0.0707
     27 C         -17.0710    2.4889   21.7573 C.2     1  UNL1        0.0548
     28 O         -17.6254    1.8300   22.9856 O.co2   1  UNL1       -0.5488
     29 O         -16.1569    3.6709   21.8881 O.co2   1  UNL1       -0.5488
@<TRIPOS>UNITY_ATOM_ATTR
28 1
charge -1
@<TRIPOS>BOND
     1    14    15    1
     2     1    15    1
     3     1     2    1
     4     2     3    1
     5     3     4    1
     6     4     5   ar
     7     5    26    1
     8    26    27    1
     9    27    28   ar
    10    27    29   ar
    11     5     6   ar
    12     6     7   ar
    13     7     8   ar
    14     8     9   ar
    15     9    10   ar
    16    10    11   ar
    17    11    12   ar
    18    12    13    1
    19    15    16    1
    20    16    17    2
    21    16    18    2
    22    16    19    1
    23    19    20   ar
    24    20    21   ar
    25    21    22   ar
    26    22    23    1
    27    22    24   ar
    28    24    25   ar
    29    13     1    1
    30    25    19   ar
    31    12     4   ar
    32    11     6   ar
@<TRIPOS>MOLECULE
*****
 29 32 0 0 0
SMALL
GASTEIGER

@<TRIPOS>ATOM
      1 C          -9.3750  -18.3673   20.6535 C.3     1  UNL1        0.1025
      2 C          -8.8285  -19.3265   19.6380 C.3     1  UNL1        0.0259
      3 C          -7.3764  -19.7011   19.6656 C.3     1  UNL1        0.0450
      4 C          -6.4707  -19.1166   20.7087 C.ar    1  UNL1        0.0350
      5 C          -5.0071  -19.2977   20.9828 C.ar    1  UNL1        0.0141
      6 C          -4.6490  -18.4505   22.1677 C.ar    1  UNL1        0.0945
      7 N          -3.3523  -18.2297   22.8886 N.ar    1  UNL1       -0.2427
      8 C          -3.2979  -17.3042   24.0677 C.ar    1  UNL1        0.0989
      9 C          -4.5402  -16.5995   24.5260 C.ar    1  UNL1        0.0222
     10 C          -5.8369  -16.8202   23.8051 C.ar    1  UNL1        0.0203
     11 C          -5.8913  -17.7458   22.6259 C.ar    1  UNL1        0.0773
     12 N          -7.0171  -18.1574   21.7242 N.ar    1  UNL1       -0.3283
     13 C          -8.4693  -17.7828   21.6967 C.3     1  UNL1        0.1234
     14 C         -11.4450  -17.4771   19.3600 C.3     1  UNL1        0.1149
     15 N         -10.8273  -17.9927   20.6260 N.3     1  UNL1       -0.1535
     16 S         -11.6617  -18.1336   21.8645 S.O2    1  UNL1        0.0633
     17 O         -11.8931  -16.6517   21.8773 O.2     1  UNL1       -0.1528
     18 O         -11.4303  -19.6156   21.8517 O.2     1  UNL1       -0.1528
     19 C         -12.4961  -18.2746   23.1031 C.ar    1  UNL1        0.1223
     20 C         -13.9770  -18.0441   23.0399 C.ar    1  UNL1        0.0222
     21 C         -14.8114  -18.1851   24.2785 C.ar    1  UNL1        0.0310
     22 C         -14.1649  -18.5565   25.5800 C.ar    1  UNL1        0.1402
     23 F         -14.9993  -18.6975   26.8185 F       1  UNL1       -0.2042
     24 C         -12.6840  -18.7870   25.6431 C.ar    1  UNL1        0.0310
     25 C         -11.8497  -18.6460   24.4046 C.ar    1  UNL1        0.0222
     26 C          -4.0666  -20.1725   20.2080 C.3     1  UNL1        0.0707
     27 C          -2.6042  -19.8424   20.1583 C.2     1  UNL1        0.0548
     28 O          -1.6738  -20.4002   21.1943 O.co2   1  UNL1       -0.5488
     29 O          -2.0722  -18.9544   19.0727 O.co2   1  UNL1       -0.5488
@<TRIPOS>UNITY_ATOM_ATTR
28 1
charge -1
@<TRIPOS>BOND
     1    14    15    1
     2     1    15    1
     3     1     2    1
     4     2     3    1
     5     3     4    1
     6     4     5   ar
     7     5    26    1
     8    26    27    1
     9    27    28   ar
    10    27    29   ar
    11     5     6   ar
    12     6     7   ar
    13     7     8   ar
    14     8     9   ar
    15     9    10   ar
    16    10    11   ar
    17    11    12   ar
    18    12    13    1
    19    15    16    1
    20    16    17    2
    21    16    18    2
    22    16    19    1
    23    19    20   ar
    24    20    21   ar
    25    21    22   ar
    26    22    23    1
    27    22    24   ar
    28    24    25   ar
    29    13     1    1
    30    25    19   ar
    31    12     4   ar
    32    11     6   ar
@<TRIPOS>MOLECULE
*****
 29 32 0 0 0
SMALL
GASTEIGER

@<TRIPOS>ATOM
      1 C           0.5296    1.8949   19.9347 C.3     1  UNL1        0.1025
      2 C           0.1718    0.5123   20.3933 C.3     1  UNL1        0.0259
      3 C           1.1292   -0.6216   20.1749 C.3     1  UNL1        0.0450
      4 C           2.4444   -0.3729   19.4978 C.ar    1  UNL1        0.0350
      5 C           3.5817   -1.2861   19.1478 C.ar    1  UNL1        0.0141
      6 C           4.6424   -0.4680   18.4729 C.ar    1  UNL1        0.0945
      7 N           5.9846   -0.8317   17.9108 N.ar    1  UNL1       -0.2427
      8 C           6.8451    0.2235   17.2815 C.ar    1  UNL1        0.0989
      9 C           6.3634    1.6425   17.2144 C.ar    1  UNL1        0.0222
     10 C           5.0211    2.0062   17.7765 C.ar    1  UNL1        0.0203
     11 C           4.1606    0.9510   18.4057 C.ar    1  UNL1        0.0773
     12 N           2.8022    1.0097   19.0392 N.ar    1  UNL1       -0.3283
     13 C           1.8448    2.1436   19.2576 C.3     1  UNL1        0.1234
     14 C          -0.6879    4.0135   19.0518 C.3     1  UNL1        0.1149
     15 N          -0.4278    3.0289   20.1531 N.3     1  UNL1       -0.1535
     16 S          -1.1250    3.1780   21.4728 S.O2    1  UNL1        0.0633
     17 O           0.1671    3.5986   22.1080 O.2     1  UNL1       -0.1528
     18 O          -2.4171    2.7574   20.8376 O.2     1  UNL1       -0.1528
     19 C          -1.8223    3.3271   22.7925 C.ar    1  UNL1        0.1223
     20 C          -1.0584    3.1398   24.0698 C.ar    1  UNL1        0.0222
     21 C          -1.7557    3.2889   25.3895 C.ar    1  UNL1        0.0310
     22 C          -3.2169    3.6253   25.4318 C.ar    1  UNL1        0.1402
     23 F          -3.9142    3.7744   26.7515 F       1  UNL1       -0.2042
     24 C          -3.9807    3.8126   24.1545 C.ar    1  UNL1        0.0310
     25 C          -3.2835    3.6635   22.8349 C.ar    1  UNL1        0.0222
     26 C           3.6469   -2.7590   19.4242 C.3     1  UNL1        0.0707
     27 C           4.1747   -3.2528   20.7387 C.2     1  UNL1        0.0548
     28 O           4.8085   -4.6092   20.8305 O.co2   1  UNL1       -0.5488
     29 O           4.0688   -2.3901   21.9612 O.co2   1  UNL1       -0.5488
@<TRIPOS>UNITY_ATOM_ATTR
28 1
charge -1
@<TRIPOS>BOND
     1    14    15    1
     2     1    15    1
     3     1     2    1
     4     2     3    1
     5     3     4    1
     6     4     5   ar
     7     5    26    1
     8    26    27    1
     9    27    28   ar
    10    27    29   ar
    11     5     6   ar
    12     6     7   ar
    13     7     8   ar
    14     8     9   ar
    15     9    10   ar
    16    10    11   ar
    17    11    12   ar
    18    12    13    1
    19    15    16    1
    20    16    17    2
    21    16    18    2
    22    16    19    1
    23    19    20   ar
    24    20    21   ar
    25    21    22   ar
    26    22    23    1
    27    22    24   ar
    28    24    25   ar
    29    13     1    1
    30    25    19   ar
    31    12     4   ar
    32    11     6   ar
