@<TRIPOS>MOLECULE
*****
 25 29 0 0 0
SMALL
GASTEIGER

@<TRIPOS>ATOM
      1 O           7.4516   -3.8957   20.4564 O.2     1  UNL1       -0.2523
      2 C           6.5479   -3.4788   21.5786 C.2     1  UNL1        0.3072
      3 N           6.8337   -3.9319   22.9796 N.am    1  UNL1       -0.2639
      4 C           7.9795   -4.7995   23.4092 C.3     1  UNL1        0.0967
      5 C           7.8778   -5.0008   24.8921 C.3     1  UNL1        0.0430
      6 C           8.5231   -5.6614   26.0741 C.3     1  UNL1        0.0939
      7 N           7.7133   -5.3266   27.2915 N.pl3   1  UNL1       -0.2931
      8 C           6.5676   -4.4591   26.8620 C.3     1  UNL1        0.0939
      9 C           6.6692   -4.2577   25.3791 C.3     1  UNL1        0.0430
     10 C           6.0239   -3.5971   24.1971 C.3     1  UNL1        0.0967
     11 N           5.3583   -2.6086   21.2997 N.am    1  UNL1       -0.2640
     12 C           4.3704   -2.1141   22.3144 C.3     1  UNL1        0.0950
     13 C           3.3493   -1.2801   21.5991 C.3     1  UNL1        0.0232
     14 C           3.7060   -1.2591   20.1422 C.3     1  UNL1        0.0200
     15 C           2.4644   -0.4381   20.3272 C.3     1  UNL1        0.0017
     16 C           2.0539    0.0903   18.9847 C.3     1  UNL1        0.0001
     17 C           3.0417   -0.4043   17.9700 C.3     1  UNL1        0.0001
     18 C           4.0628   -1.2383   18.6854 C.3     1  UNL1        0.0017
     19 C           4.9477   -2.0803   19.9572 C.3     1  UNL1        0.0949
     20 C           7.9991   -5.7798   28.6926 C.ar    1  UNL1        0.1317
     21 C           7.0363   -5.4569   29.7965 C.ar    1  UNL1        0.0343
     22 C           7.3221   -5.9101   31.1975 C.ar    1  UNL1        0.0045
     23 C           8.5708   -6.6862   31.4947 C.ar    1  UNL1        0.0208
     24 C           9.5337   -7.0090   30.3909 C.ar    1  UNL1        0.1003
     25 N           9.2479   -6.5559   28.9898 N.ar    1  UNL1       -0.2292
@<TRIPOS>BOND
     1     1     2    2
     2     2     3   am
     3     3     4    1
     4     5     4    1
     5     5     6    1
     6     6     7    1
     7     7    20    1
     8    20    21   ar
     9    21    22   ar
    10    22    23   ar
    11    23    24   ar
    12    24    25   ar
    13     7     8    1
    14     9     8    1
    15     9    10    1
    16     2    11   am
    17    11    12    1
    18    12    13    1
    19    13    14    1
    20    14    15    1
    21    15    16    1
    22    16    17    1
    23    17    18    1
    24    14    19    1
    25    10     3    1
    26    19    11    1
    27     9     5    1
    28    18    14    1
    29    25    20   ar
@<TRIPOS>MOLECULE
*****
 25 29 0 0 0
SMALL
GASTEIGER

@<TRIPOS>ATOM
      1 O           8.3229   -6.3063   30.7145 O.2     1  UNL1       -0.2523
      2 C           7.5940   -5.2887   29.8880 C.2     1  UNL1        0.3072
      3 N           6.8510   -4.1711   30.5580 N.am    1  UNL1       -0.2639
      4 C           6.7481   -3.9428   32.0369 C.3     1  UNL1        0.0967
      5 C           5.9139   -2.7163   32.2597 C.3     1  UNL1        0.0430
      6 C           5.3348   -1.8171   33.3113 C.3     1  UNL1        0.0939
      7 N           4.5642   -0.7316   32.6200 N.pl3   1  UNL1       -0.2931
      8 C           4.6671   -0.9599   31.1411 C.3     1  UNL1        0.0939
      9 C           5.5012   -2.1864   30.9183 C.3     1  UNL1        0.0430
     10 C           6.0804   -3.0856   29.8667 C.3     1  UNL1        0.0967
     11 N           7.6082   -5.3887   28.3914 N.am    1  UNL1       -0.2640
     12 C           6.9290   -4.4502   27.4386 C.3     1  UNL1        0.0950
     13 C           7.2050   -4.9262   26.0432 C.3     1  UNL1        0.0232
     14 C           8.0549   -6.1590   26.1335 C.3     1  UNL1        0.0200
     15 C           7.8057   -5.8731   24.6823 C.3     1  UNL1        0.0017
     16 C           8.5015   -6.9292   23.8758 C.3     1  UNL1        0.0001
     17 C           9.1808   -7.8678   24.8286 C.3     1  UNL1        0.0001
     18 C           8.9047   -7.3917   26.2240 C.3     1  UNL1        0.0017
     19 C           8.3040   -6.4448   27.5849 C.3     1  UNL1        0.0949
     20 C           3.8211    0.3860   33.2900 C.ar    1  UNL1        0.1317
     21 C           4.1832    0.7961   34.6867 C.ar    1  UNL1        0.0343
     22 C           3.4401    1.9137   35.3567 C.ar    1  UNL1        0.0045
     23 C           2.3350    2.6212   34.6300 C.ar    1  UNL1        0.0208
     24 C           1.9730    2.2111   33.2333 C.ar    1  UNL1        0.1003
     25 N           2.7160    1.0935   32.5633 N.ar    1  UNL1       -0.2292
@<TRIPOS>BOND
     1     1     2    2
     2     2     3   am
     3     3     4    1
     4     5     4    1
     5     5     6    1
     6     6     7    1
     7     7    20    1
     8    20    21   ar
     9    21    22   ar
    10    22    23   ar
    11    23    24   ar
    12    24    25   ar
    13     7     8    1
    14     9     8    1
    15     9    10    1
    16     2    11   am
    17    11    12    1
    18    12    13    1
    19    13    14    1
    20    14    15    1
    21    15    16    1
    22    16    17    1
    23    17    18    1
    24    14    19    1
    25    10     3    1
    26    19    11    1
    27     9     5    1
    28    18    14    1
    29    25    20   ar
@<TRIPOS>MOLECULE
*****
 25 29 0 0 0
SMALL
GASTEIGER

@<TRIPOS>ATOM
      1 O           0.2374    3.9176   17.6435 O.2     1  UNL1       -0.2523
      2 C          -0.1932    3.0860   18.8152 C.2     1  UNL1        0.3072
      3 N          -1.3552    3.5217   19.6577 N.am    1  UNL1       -0.2639
      4 C          -2.1788    4.7583   19.4518 C.3     1  UNL1        0.0967
      5 C          -3.2303    4.7982   20.5208 C.3     1  UNL1        0.0430
      6 C          -4.3892    5.5871   21.0543 C.3     1  UNL1        0.0939
      7 N          -4.9316    4.8627   22.2505 N.pl3   1  UNL1       -0.2931
      8 C          -4.1080    3.6261   22.4564 C.3     1  UNL1        0.0939
      9 C          -3.0565    3.5862   21.3874 C.3     1  UNL1        0.0430
     10 C          -1.8976    2.7973   20.8540 C.3     1  UNL1        0.0967
     11 N           0.5384    1.8185   19.1445 N.am    1  UNL1       -0.2640
     12 C           0.2245    0.8886   20.2788 C.3     1  UNL1        0.0950
     13 C           1.2044   -0.2462   20.2325 C.3     1  UNL1        0.0232
     14 C           2.1239   -0.0176   19.0696 C.3     1  UNL1        0.0200
     15 C           2.5355   -1.2937   19.7421 C.3     1  UNL1        0.0017
     16 C           3.7093   -1.8537   18.9948 C.3     1  UNL1        0.0001
     17 C           4.0232   -0.9238   17.8605 C.3     1  UNL1        0.0001
     18 C           3.0434    0.2110   17.9067 C.3     1  UNL1        0.0017
     19 C           1.7122    1.2585   18.3972 C.3     1  UNL1        0.0949
     20 C          -6.0936    5.2984   23.0930 C.ar    1  UNL1        0.1317
     21 C          -7.3020    4.4184   23.2170 C.ar    1  UNL1        0.0343
     22 C          -8.4640    4.8541   24.0594 C.ar    1  UNL1        0.0045
     23 C          -8.4178    6.1699   24.7780 C.ar    1  UNL1        0.0208
     24 C          -7.2095    7.0500   24.6541 C.ar    1  UNL1        0.1003
     25 N          -6.0474    6.6143   23.8116 N.ar    1  UNL1       -0.2292
@<TRIPOS>BOND
     1     1     2    2
     2     2     3   am
     3     3     4    1
     4     5     4    1
     5     5     6    1
     6     6     7    1
     7     7    20    1
     8    20    21   ar
     9    21    22   ar
    10    22    23   ar
    11    23    24   ar
    12    24    25   ar
    13     7     8    1
    14     9     8    1
    15     9    10    1
    16     2    11   am
    17    11    12    1
    18    12    13    1
    19    13    14    1
    20    14    15    1
    21    15    16    1
    22    16    17    1
    23    17    18    1
    24    14    19    1
    25    10     3    1
    26    19    11    1
    27     9     5    1
    28    18    14    1
    29    25    20   ar
@<TRIPOS>MOLECULE
*****
 25 29 0 0 0
SMALL
GASTEIGER

@<TRIPOS>ATOM
      1 O           5.7370   -4.4790   20.5150 O.2     1  UNL1       -0.2523
      2 C           5.2687   -3.5218   21.5706 C.2     1  UNL1        0.3072
      3 N           4.2599   -2.4650   21.2307 N.am    1  UNL1       -0.2639
      4 C           3.6332   -2.2446   19.8858 C.3     1  UNL1        0.0967
      5 C           2.6867   -1.0865   19.9998 C.3     1  UNL1        0.0430
      6 C           1.7144   -0.2346   19.2391 C.3     1  UNL1        0.0939
      7 N           1.1552    0.7872   20.1843 N.pl3   1  UNL1       -0.2931
      8 C           1.7819    0.5667   21.5291 C.3     1  UNL1        0.0939
      9 C           2.7284   -0.5913   21.4151 C.3     1  UNL1        0.0430
     10 C           3.7007   -1.4433   22.1758 C.3     1  UNL1        0.0967
     11 N           5.8093   -3.6213   22.9663 N.am    1  UNL1       -0.2640
     12 C           5.4371   -2.7391   24.1209 C.3     1  UNL1        0.0950
     13 C           6.2147   -3.1931   25.3206 C.3     1  UNL1        0.0232
     14 C           7.0676   -4.3558   24.9075 C.3     1  UNL1        0.0200
     15 C           7.3181   -4.0912   26.3625 C.3     1  UNL1        0.0017
     16 C           8.3257   -5.0903   26.8486 C.3     1  UNL1        0.0001
     17 C           8.6980   -5.9726   25.6939 C.3     1  UNL1        0.0001
     18 C           7.9203   -5.5186   24.4943 C.3     1  UNL1        0.0017
     19 C           6.8170   -4.6205   23.4524 C.3     1  UNL1        0.0949
     20 C           0.1464    1.8439   19.8443 C.ar    1  UNL1        0.1317
     21 C           0.2520    2.5927   18.5489 C.ar    1  UNL1        0.0343
     22 C          -0.7568    3.6495   18.2089 C.ar    1  UNL1        0.0045
     23 C          -1.8713    3.9575   19.1644 C.ar    1  UNL1        0.0208
     24 C          -1.9770    3.2087   20.4598 C.ar    1  UNL1        0.1003
     25 N          -0.9682    2.1520   20.7998 N.ar    1  UNL1       -0.2292
@<TRIPOS>BOND
     1     1     2    2
     2     2     3   am
     3     3     4    1
     4     5     4    1
     5     5     6    1
     6     6     7    1
     7     7    20    1
     8    20    21   ar
     9    21    22   ar
    10    22    23   ar
    11    23    24   ar
    12    24    25   ar
    13     7     8    1
    14     9     8    1
    15     9    10    1
    16     2    11   am
    17    11    12    1
    18    12    13    1
    19    13    14    1
    20    14    15    1
    21    15    16    1
    22    16    17    1
    23    17    18    1
    24    14    19    1
    25    10     3    1
    26    19    11    1
    27     9     5    1
    28    18    14    1
    29    25    20   ar
@<TRIPOS>MOLECULE
*****
 25 29 0 0 0
SMALL
GASTEIGER

@<TRIPOS>ATOM
      1 O         -14.0972    2.5475   18.2262 O.2     1  UNL1       -0.2523
      2 C         -14.7067    1.3332   18.8618 C.2     1  UNL1        0.3072
      3 N         -14.0074    0.0092   18.7728 N.am    1  UNL1       -0.2639
      4 C         -12.7004   -0.2532   18.0852 C.3     1  UNL1        0.0967
      5 C         -12.3776   -1.7094   18.2432 C.3     1  UNL1        0.0430
      6 C         -11.3704   -2.7716   17.9159 C.3     1  UNL1        0.0939
      7 N         -11.8554   -4.0658   18.4989 N.pl3   1  UNL1       -0.2931
      8 C         -13.1624   -3.8035   19.1866 C.3     1  UNL1        0.0939
      9 C         -13.4852   -2.3472   19.0285 C.3     1  UNL1        0.0430
     10 C         -14.4925   -1.2850   19.3558 C.3     1  UNL1        0.0967
     11 N         -16.0155    1.4430   19.5863 N.am    1  UNL1       -0.2640
     12 C         -16.7429    0.3219   20.2675 C.3     1  UNL1        0.0950
     13 C         -18.0036    0.8792   20.8591 C.3     1  UNL1        0.0232
     14 C         -18.0554    2.3448   20.5435 C.3     1  UNL1        0.0200
     15 C         -19.2842    1.9963   21.3301 C.3     1  UNL1        0.0017
     16 C         -20.0953    3.2464   21.5007 C.3     1  UNL1        0.0001
     17 C         -19.3679    4.3675   20.8195 C.3     1  UNL1        0.0001
     18 C         -18.1072    3.8103   20.2279 C.3     1  UNL1        0.0017
     19 C         -16.8266    2.6932   19.7569 C.3     1  UNL1        0.0949
     20 C         -11.1562   -5.3899   18.4100 C.ar    1  UNL1        0.1317
     21 C          -9.9088   -5.6343   19.2063 C.ar    1  UNL1        0.0343
     22 C          -9.2096   -6.9584   19.1174 C.ar    1  UNL1        0.0045
     23 C          -9.7577   -8.0381   18.2320 C.ar    1  UNL1        0.0208
     24 C         -11.0051   -7.7936   17.4357 C.ar    1  UNL1        0.1003
     25 N         -11.7043   -6.4695   17.5246 N.ar    1  UNL1       -0.2292
@<TRIPOS>BOND
     1     1     2    2
     2     2     3   am
     3     3     4    1
     4     5     4    1
     5     5     6    1
     6     6     7    1
     7     7    20    1
     8    20    21   ar
     9    21    22   ar
    10    22    23   ar
    11    23    24   ar
    12    24    25   ar
    13     7     8    1
    14     9     8    1
    15     9    10    1
    16     2    11   am
    17    11    12    1
    18    12    13    1
    19    13    14    1
    20    14    15    1
    21    15    16    1
    22    16    17    1
    23    17    18    1
    24    14    19    1
    25    10     3    1
    26    19    11    1
    27     9     5    1
    28    18    14    1
    29    25    20   ar
@<TRIPOS>MOLECULE
*****
 25 29 0 0 0
SMALL
GASTEIGER

@<TRIPOS>ATOM
      1 O           1.9972    0.7384   23.7554 O.2     1  UNL1       -0.2523
      2 C           2.9214   -0.3178   24.2847 C.2     1  UNL1        0.3072
      3 N           3.2394   -0.3707   25.7497 N.am    1  UNL1       -0.2639
      4 C           2.7114    0.5603   26.8006 C.3     1  UNL1        0.0967
      5 C           3.2868    0.1427   28.1213 C.3     1  UNL1        0.0430
      6 C           3.3162    0.4599   29.5871 C.3     1  UNL1        0.0939
      7 N           4.2179   -0.5332   30.2583 N.pl3   1  UNL1       -0.2931
      8 C           4.7459   -1.4643   29.2074 C.3     1  UNL1        0.0939
      9 C           4.1705   -1.0466   27.8867 C.3     1  UNL1        0.0430
     10 C           4.1411   -1.3638   26.4209 C.3     1  UNL1        0.0967
     11 N           3.5277   -1.3213   23.3490 N.am    1  UNL1       -0.2640
     12 C           4.4642   -2.4291   23.7305 C.3     1  UNL1        0.0950
     13 C           4.8192   -3.1856   22.4848 C.3     1  UNL1        0.0232
     14 C           4.1020   -2.5453   21.3334 C.3     1  UNL1        0.0200
     15 C           4.9003   -3.6975   20.7993 C.3     1  UNL1        0.0017
     16 C           4.6764   -3.7692   19.3178 C.3     1  UNL1        0.0001
     17 C           3.7398   -2.6614   18.9363 C.3     1  UNL1        0.0001
     18 C           3.3848   -1.9049   20.1820 C.3     1  UNL1        0.0017
     19 C           3.3038   -1.3930   21.8676 C.3     1  UNL1        0.0949
     20 C           4.5359   -0.5861   31.7233 C.ar    1  UNL1        0.1317
     21 C           5.4203    0.4585   32.3369 C.ar    1  UNL1        0.0343
     22 C           5.7383    0.4056   33.8019 C.ar    1  UNL1        0.0045
     23 C           5.1718   -0.6918   34.6532 C.ar    1  UNL1        0.0208
     24 C           4.2874   -1.7363   34.0395 C.ar    1  UNL1        0.1003
     25 N           3.9694   -1.6835   32.5746 N.ar    1  UNL1       -0.2292
@<TRIPOS>BOND
     1     1     2    2
     2     2     3   am
     3     3     4    1
     4     5     4    1
     5     5     6    1
     6     6     7    1
     7     7    20    1
     8    20    21   ar
     9    21    22   ar
    10    22    23   ar
    11    23    24   ar
    12    24    25   ar
    13     7     8    1
    14     9     8    1
    15     9    10    1
    16     2    11   am
    17    11    12    1
    18    12    13    1
    19    13    14    1
    20    14    15    1
    21    15    16    1
    22    16    17    1
    23    17    18    1
    24    14    19    1
    25    10     3    1
    26    19    11    1
    27     9     5    1
    28    18    14    1
    29    25    20   ar
@<TRIPOS>MOLECULE
*****
 25 29 0 0 0
SMALL
GASTEIGER

@<TRIPOS>ATOM
      1 O           4.1690   -1.0590   25.2073 O.2     1  UNL1       -0.2523
      2 C           3.1443   -0.5465   24.2392 C.2     1  UNL1        0.3072
      3 N           2.0796    0.4015   24.7058 N.am    1  UNL1       -0.2639
      4 C           1.9138    0.9227   26.1026 C.3     1  UNL1        0.0967
      5 C           0.7256    1.8381   26.1177 C.3     1  UNL1        0.0430
      6 C          -0.1113    2.7259   26.9902 C.3     1  UNL1        0.0939
      7 N          -1.1970    3.3191   26.1421 N.pl3   1  UNL1       -0.2931
      8 C          -1.0311    2.7980   24.7454 C.3     1  UNL1        0.0939
      9 C           0.1570    1.8826   24.7303 C.3     1  UNL1        0.0430
     10 C           0.9939    0.9948   23.8577 C.3     1  UNL1        0.0967
     11 N           3.1843   -0.9819   22.8043 N.am    1  UNL1       -0.2640
     12 C           2.2319   -0.5557   21.7267 C.3     1  UNL1        0.0950
     13 C           2.6428   -1.2304   20.4516 C.3     1  UNL1        0.0232
     14 C           3.8491   -2.0737   20.7411 C.3     1  UNL1        0.0200
     15 C           3.5143   -2.2272   19.2870 C.3     1  UNL1        0.0017
     16 C           4.5137   -3.1654   18.6779 C.3     1  UNL1        0.0001
     17 C           5.4661   -3.5916   19.7555 C.3     1  UNL1        0.0001
     18 C           5.0553   -2.9169   21.0307 C.3     1  UNL1        0.0017
     19 C           4.1838   -1.9201   22.1952 C.3     1  UNL1        0.0949
     20 C          -2.2617    4.2671   26.6087 C.ar    1  UNL1        0.1317
     21 C          -3.7091    3.9151   26.4326 C.ar    1  UNL1        0.0343
     22 C          -4.7737    4.8631   26.8993 C.ar    1  UNL1        0.0045
     23 C          -4.3910    6.1632   27.5421 C.ar    1  UNL1        0.0208
     24 C          -2.9436    6.5153   27.7182 C.ar    1  UNL1        0.1003
     25 N          -1.8789    5.5673   27.2516 N.ar    1  UNL1       -0.2292
@<TRIPOS>BOND
     1     1     2    2
     2     2     3   am
     3     3     4    1
     4     5     4    1
     5     5     6    1
     6     6     7    1
     7     7    20    1
     8    20    21   ar
     9    21    22   ar
    10    22    23   ar
    11    23    24   ar
    12    24    25   ar
    13     7     8    1
    14     9     8    1
    15     9    10    1
    16     2    11   am
    17    11    12    1
    18    12    13    1
    19    13    14    1
    20    14    15    1
    21    15    16    1
    22    16    17    1
    23    17    18    1
    24    14    19    1
    25    10     3    1
    26    19    11    1
    27     9     5    1
    28    18    14    1
    29    25    20   ar
@<TRIPOS>MOLECULE
*****
 25 29 0 0 0
SMALL
GASTEIGER

@<TRIPOS>ATOM
      1 O           5.5827   -2.1146   17.7059 O.2     1  UNL1       -0.2523
      2 C           4.9761   -1.8604   19.0540 C.2     1  UNL1        0.3072
      3 N           3.8056   -0.9319   19.1868 N.am    1  UNL1       -0.2639
      4 C           3.1374   -0.1899   18.0674 C.3     1  UNL1        0.0967
      5 C           2.0166    0.6182   18.6511 C.3     1  UNL1        0.0430
      6 C           0.9109    1.5763   18.3200 C.3     1  UNL1        0.0939
      7 N           0.2030    1.9258   19.5955 N.pl3   1  UNL1       -0.2931
      8 C           0.8712    1.1837   20.7148 C.3     1  UNL1        0.0939
      9 C           1.9920    0.3756   20.1312 C.3     1  UNL1        0.0430
     10 C           3.0977   -0.5824   20.4622 C.3     1  UNL1        0.0967
     11 N           5.5402   -2.5348   20.2693 N.am    1  UNL1       -0.2640
     12 C           5.0416   -2.3788   21.6754 C.3     1  UNL1        0.0950
     13 C           5.8951   -3.2311   22.5671 C.3     1  UNL1        0.0232
     14 C           6.9211   -3.9140   21.7121 C.3     1  UNL1        0.0200
     15 C           7.1405   -4.3444   23.1322 C.3     1  UNL1        0.0017
     16 C           8.3020   -5.2932   23.1548 C.3     1  UNL1        0.0001
     17 C           8.8006   -5.4492   21.7487 C.3     1  UNL1        0.0001
     18 C           7.9471   -4.5968   20.8570 C.3     1  UNL1        0.0017
     19 C           6.7017   -3.4836   20.2919 C.3     1  UNL1        0.0949
     20 C          -0.9675    2.8543   19.7283 C.ar    1  UNL1        0.1317
     21 C          -1.1657    3.9585   18.7326 C.ar    1  UNL1        0.0343
     22 C          -2.3363    4.8870   18.8654 C.ar    1  UNL1        0.0045
     23 C          -3.3087    4.7114   19.9940 C.ar    1  UNL1        0.0208
     24 C          -3.1105    3.6072   20.9896 C.ar    1  UNL1        0.1003
     25 N          -1.9399    2.6786   20.8568 N.ar    1  UNL1       -0.2292
@<TRIPOS>BOND
     1     1     2    2
     2     2     3   am
     3     3     4    1
     4     5     4    1
     5     5     6    1
     6     6     7    1
     7     7    20    1
     8    20    21   ar
     9    21    22   ar
    10    22    23   ar
    11    23    24   ar
    12    24    25   ar
    13     7     8    1
    14     9     8    1
    15     9    10    1
    16     2    11   am
    17    11    12    1
    18    12    13    1
    19    13    14    1
    20    14    15    1
    21    15    16    1
    22    16    17    1
    23    17    18    1
    24    14    19    1
    25    10     3    1
    26    19    11    1
    27     9     5    1
    28    18    14    1
    29    25    20   ar
@<TRIPOS>MOLECULE
*****
 25 29 0 0 0
SMALL
GASTEIGER

@<TRIPOS>ATOM
      1 O           3.4700    1.7597   32.2178 O.2     1  UNL1       -0.2523
      2 C           4.0687    0.7187   33.1166 C.2     1  UNL1        0.3072
      3 N           4.7832   -0.4607   32.5264 N.am    1  UNL1       -0.2639
      4 C           4.9777   -0.7324   31.0641 C.3     1  UNL1        0.0967
      5 C           5.7434   -2.0151   30.9288 C.3     1  UNL1        0.0430
      6 C           6.3368   -2.9758   29.9415 C.3     1  UNL1        0.0939
      7 N           6.9823   -4.0906   30.7100 N.pl3   1  UNL1       -0.2931
      8 C           6.7878   -3.8189   32.1723 C.3     1  UNL1        0.0939
      9 C           6.0221   -2.5362   32.3076 C.3     1  UNL1        0.0430
     10 C           5.4287   -1.5755   33.2949 C.3     1  UNL1        0.0967
     11 N           3.9528    0.8572   34.6057 N.am    1  UNL1       -0.2640
     12 C           4.4981   -0.0985   35.6251 C.3     1  UNL1        0.0950
     13 C           4.1536    0.4293   36.9863 C.3     1  UNL1        0.0232
     14 C           3.3954    1.7113   36.8081 C.3     1  UNL1        0.0200
     15 C           3.5195    1.4469   38.2794 C.3     1  UNL1        0.0017
     16 C           2.8380    2.5654   39.0104 C.3     1  UNL1        0.0001
     17 C           2.2927    3.5211   37.9910 C.3     1  UNL1        0.0001
     18 C           2.6372    2.9933   36.6299 C.3     1  UNL1        0.0017
     19 C           3.2713    1.9758   35.3368 C.3     1  UNL1        0.0949
     20 C           7.6968   -5.2701   30.1198 C.ar    1  UNL1        0.1317
     21 C           7.2868   -5.8010   28.7782 C.ar    1  UNL1        0.0343
     22 C           8.0013   -6.9805   28.1880 C.ar    1  UNL1        0.0045
     23 C           9.1260   -7.6290   28.9395 C.ar    1  UNL1        0.0208
     24 C           9.5360   -7.0980   30.2810 C.ar    1  UNL1        0.1003
     25 N           8.8215   -5.9186   30.8712 N.ar    1  UNL1       -0.2292
@<TRIPOS>BOND
     1     1     2    2
     2     2     3   am
     3     3     4    1
     4     5     4    1
     5     5     6    1
     6     6     7    1
     7     7    20    1
     8    20    21   ar
     9    21    22   ar
    10    22    23   ar
    11    23    24   ar
    12    24    25   ar
    13     7     8    1
    14     9     8    1
    15     9    10    1
    16     2    11   am
    17    11    12    1
    18    12    13    1
    19    13    14    1
    20    14    15    1
    21    15    16    1
    22    16    17    1
    23    17    18    1
    24    14    19    1
    25    10     3    1
    26    19    11    1
    27     9     5    1
    28    18    14    1
    29    25    20   ar
