@<TRIPOS>MOLECULE
*****
 31 32 0 0 0
SMALL
GASTEIGER

@<TRIPOS>ATOM
      1 C         -10.5822  -17.6995   22.8187 C.3     1  UNL1        0.2430
      2 C         -10.0260  -18.8287   23.6346 C.2     1  UNL1        0.2845
      3 O          -8.7890  -19.5446   23.1794 O.2     1  UNL1       -0.2691
      4 N         -10.7070  -19.2420   24.9056 N.am    1  UNL1       -0.1940
      5 O         -10.1509  -20.3711   25.7215 O.3     1  UNL1       -0.2951
      6 H         -11.5189  -18.7721   25.2043 H       1  UNL1        0.1823
      7 H          -9.3559  -20.7211   25.2898 H       1  UNL1        0.2414
      8 O          -9.8623  -16.3845   22.7691 O.3     1  UNL1       -0.4699
      9 C          -8.2459  -15.2500   27.5754 C.3     1  UNL1        0.0335
     10 C          -7.9390  -15.5360   26.1353 C.ar    1  UNL1        0.0083
     11 C          -9.0540  -15.8172   25.1723 C.ar    1  UNL1        0.0349
     12 C          -8.7471  -16.1032   23.7322 C.ar    1  UNL1        0.1386
     13 C          -7.3250  -16.1078   23.2550 C.ar    1  UNL1        0.0349
     14 C          -6.2100  -15.8266   24.2180 C.ar    1  UNL1        0.0083
     15 C          -4.7878  -15.8312   23.7409 C.3     1  UNL1        0.0335
     16 C          -6.5169  -15.5406   25.6582 C.ar    1  UNL1        0.1323
     17 F          -5.4017  -15.2593   26.6212 F       1  UNL1       -0.2048
     18 C         -11.8582  -17.8853   22.0524 C.3     1  UNL1        0.0533
     19 C         -11.8444  -18.6029   20.7353 C.3     1  UNL1        0.0057
     20 C         -10.7202  -18.3748   19.7687 C.3     1  UNL1        0.0172
     21 C          -9.5783  -19.3452   19.7038 C.3     1  UNL1        0.0688
     22 N          -8.2429  -18.9713   20.2756 N.3     1  UNL1       -0.2937
     23 H          -8.3073  -19.1037   21.2849 H       1  UNL1        0.1236
     24 C          -7.0058  -19.6886   19.8229 C.3     1  UNL1        0.0956
     25 C          -5.6909  -19.4093   20.4885 C.ar    1  UNL1       -0.0062
     26 C          -5.5774  -19.4764   21.9827 C.ar    1  UNL1       -0.0006
     27 C          -4.2625  -19.1970   22.6483 C.ar    1  UNL1        0.0294
     28 C          -3.0611  -18.8506   21.8197 C.ar    1  UNL1        0.1401
     29 F          -1.7462  -18.5712   22.4853 F       1  UNL1       -0.2042
     30 C          -3.1746  -18.7835   20.3255 C.ar    1  UNL1        0.0294
     31 C          -4.4894  -19.0628   19.6599 C.ar    1  UNL1       -0.0006
@<TRIPOS>BOND
     1     9    10    1
     2    10    11   ar
     3    11    12   ar
     4    12     8    1
     5     8     1    1
     6     1    18    1
     7    18    19    1
     8    19    20    1
     9    20    21    1
    10    21    22    1
    11    22    24    1
    12    24    25    1
    13    25    26   ar
    14    26    27   ar
    15    27    28   ar
    16    28    29    1
    17    28    30   ar
    18    30    31   ar
    19     1     2    1
    20     2     3    2
    21     2     4   am
    22     4     5    1
    23    12    13   ar
    24    13    14   ar
    25    14    15    1
    26    14    16   ar
    27    16    17    1
    28    16    10   ar
    29    31    25   ar
    30    22    23    1
    31     4     6    1
    32     5     7    1
@<TRIPOS>MOLECULE
*****
 31 32 0 0 0
SMALL
GASTEIGER

@<TRIPOS>ATOM
      1 C         -10.6010  -17.5731   22.8165 C.3     1  UNL1        0.2430
      2 C         -10.0689  -18.7172   23.6276 C.2     1  UNL1        0.2845
      3 O          -8.8344  -19.4429   23.1811 O.2     1  UNL1       -0.2691
      4 N         -10.7714  -19.1357   24.8852 N.am    1  UNL1       -0.1940
      5 O         -10.2393  -20.2798   25.6963 O.3     1  UNL1       -0.2951
      6 H         -11.5816  -18.6594   25.1782 H       1  UNL1        0.1823
      7 H          -9.4428  -20.6345   25.2713 H       1  UNL1        0.2414
      8 O          -9.8595  -16.2696   22.7818 O.3     1  UNL1       -0.4699
      9 C          -4.7694  -15.8477   23.7373 C.3     1  UNL1        0.0335
     10 C          -6.1892  -15.8101   24.2197 C.ar    1  UNL1        0.0083
     11 C          -7.3145  -16.0586   23.2596 C.ar    1  UNL1        0.0349
     12 C          -8.7342  -16.0211   23.7420 C.ar    1  UNL1        0.1386
     13 C          -9.0288  -15.7350   25.1847 C.ar    1  UNL1        0.0349
     14 C          -7.9035  -15.4864   26.1449 C.ar    1  UNL1        0.0083
     15 C          -8.1980  -15.2003   27.5877 C.3     1  UNL1        0.0335
     16 C          -6.4837  -15.5240   25.6624 C.ar    1  UNL1        0.1323
     17 F          -5.3585  -15.2755   26.6227 F       1  UNL1       -0.2048
     18 C         -11.8745  -17.7324   22.0401 C.3     1  UNL1        0.0533
     19 C         -11.8705  -18.4753   20.7370 C.3     1  UNL1        0.0057
     20 C         -10.7331  -18.2968   19.7754 C.3     1  UNL1        0.0172
     21 C          -9.6169  -19.2982   19.7401 C.3     1  UNL1        0.0688
     22 N          -8.2614  -18.9292   20.2657 N.3     1  UNL1       -0.2937
     23 H          -8.3366  -18.9045   21.2827 H       1  UNL1        0.1236
     24 C          -7.0725  -19.7839   19.9401 C.3     1  UNL1        0.0956
     25 C          -5.7371  -19.4746   20.5492 C.ar    1  UNL1       -0.0062
     26 C          -4.5826  -19.0925   19.6710 C.ar    1  UNL1       -0.0006
     27 C          -3.2471  -18.7832   20.2802 C.ar    1  UNL1        0.0294
     28 C          -3.0662  -18.8561   21.7674 C.ar    1  UNL1        0.1401
     29 F          -1.7308  -18.5468   22.3765 F       1  UNL1       -0.2042
     30 C          -4.2207  -19.2382   22.6456 C.ar    1  UNL1        0.0294
     31 C          -5.5561  -19.5475   22.0365 C.ar    1  UNL1       -0.0006
@<TRIPOS>BOND
     1     9    10    1
     2    10    11   ar
     3    11    12   ar
     4    12     8    1
     5     8     1    1
     6     1    18    1
     7    18    19    1
     8    19    20    1
     9    20    21    1
    10    21    22    1
    11    22    24    1
    12    24    25    1
    13    25    26   ar
    14    26    27   ar
    15    27    28   ar
    16    28    29    1
    17    28    30   ar
    18    30    31   ar
    19     1     2    1
    20     2     3    2
    21     2     4   am
    22     4     5    1
    23    12    13   ar
    24    13    14   ar
    25    14    15    1
    26    14    16   ar
    27    16    17    1
    28    16    10   ar
    29    31    25   ar
    30    22    23    1
    31     4     6    1
    32     5     7    1
@<TRIPOS>MOLECULE
*****
 31 32 0 0 0
SMALL
GASTEIGER

@<TRIPOS>ATOM
      1 C         -10.2506  -18.0932   22.4466 C.3     1  UNL1        0.2430
      2 C          -9.8617  -19.1333   23.4551 C.2     1  UNL1        0.2845
      3 O          -8.6920  -20.0343   23.1904 O.2     1  UNL1       -0.2691
      4 N         -10.6425  -19.2723   24.7283 N.am    1  UNL1       -0.1940
      5 O         -10.2536  -20.3123   25.7368 O.3     1  UNL1       -0.2951
      6 H         -11.4101  -18.6809   24.9020 H       1  UNL1        0.1823
      7 H          -9.4833  -20.8047   25.4129 H       1  UNL1        0.2414
      8 O          -9.8753  -16.6577   22.6668 O.3     1  UNL1       -0.4699
      9 C          -8.3294  -15.2234   27.4158 C.3     1  UNL1        0.0335
     10 C          -8.0019  -15.5915   25.9990 C.ar    1  UNL1        0.0083
     11 C          -9.1023  -15.9406   25.0413 C.ar    1  UNL1        0.0349
     12 C          -8.7748  -16.3086   23.6245 C.ar    1  UNL1        0.1386
     13 C          -7.3470  -16.3276   23.1655 C.ar    1  UNL1        0.0349
     14 C          -6.2466  -15.9785   24.1232 C.ar    1  UNL1        0.0083
     15 C          -4.8186  -15.9975   23.6641 C.3     1  UNL1        0.0335
     16 C          -6.5741  -15.6105   25.5400 C.ar    1  UNL1        0.1323
     17 F          -5.4736  -15.2614   26.4977 F       1  UNL1       -0.2048
     18 C         -11.0146  -18.4887   21.2179 C.3     1  UNL1        0.0533
     19 C         -10.3027  -18.6306   19.9052 C.3     1  UNL1        0.0057
     20 C          -9.2346  -19.6707   19.7399 C.3     1  UNL1        0.0172
     21 C          -7.7885  -19.2776   19.8048 C.3     1  UNL1        0.0688
     22 N          -6.8279  -20.0851   20.6265 N.3     1  UNL1       -0.2937
     23 H          -6.2600  -20.6227   19.9717 H       1  UNL1        0.1236
     24 C          -5.8771  -19.3968   21.5605 C.3     1  UNL1        0.0956
     25 C          -4.4584  -19.1515   21.1400 C.ar    1  UNL1       -0.0062
     26 C          -4.1234  -18.9946   19.6863 C.ar    1  UNL1       -0.0006
     27 C          -2.7046  -18.7492   19.2659 C.ar    1  UNL1        0.0294
     28 C          -1.6208  -18.6608   20.2991 C.ar    1  UNL1        0.1401
     29 F          -0.2020  -18.4154   19.8786 F       1  UNL1       -0.2042
     30 C          -1.9557  -18.8177   21.7527 C.ar    1  UNL1        0.0294
     31 C          -3.3745  -19.0630   22.1732 C.ar    1  UNL1       -0.0006
@<TRIPOS>BOND
     1     9    10    1
     2    10    11   ar
     3    11    12   ar
     4    12     8    1
     5     8     1    1
     6     1    18    1
     7    18    19    1
     8    19    20    1
     9    20    21    1
    10    21    22    1
    11    22    24    1
    12    24    25    1
    13    25    26   ar
    14    26    27   ar
    15    27    28   ar
    16    28    29    1
    17    28    30   ar
    18    30    31   ar
    19     1     2    1
    20     2     3    2
    21     2     4   am
    22     4     5    1
    23    12    13   ar
    24    13    14   ar
    25    14    15    1
    26    14    16   ar
    27    16    17    1
    28    16    10   ar
    29    31    25   ar
    30    22    23    1
    31     4     6    1
    32     5     7    1
@<TRIPOS>MOLECULE
*****
 31 32 0 0 0
SMALL
GASTEIGER

@<TRIPOS>ATOM
      1 C         -10.6817  -17.6994   22.6160 C.3     1  UNL1        0.2430
      2 C         -12.0519  -17.2873   23.0667 C.2     1  UNL1        0.2845
      3 O         -12.5838  -15.9319   22.7065 O.2     1  UNL1       -0.2691
      4 N         -12.8900  -18.2307   23.8777 N.am    1  UNL1       -0.1940
      5 O         -14.2600  -17.8187   24.3284 O.3     1  UNL1       -0.2951
      6 H         -12.5408  -19.1203   24.1141 H       1  UNL1        0.1823
      7 H         -14.4476  -16.9207   24.0132 H       1  UNL1        0.2414
      8 O          -9.6410  -16.6574   22.3310 O.3     1  UNL1       -0.4699
      9 C          -4.7023  -15.8163   23.7101 C.3     1  UNL1        0.0335
     10 C          -6.1575  -15.8837   24.0679 C.ar    1  UNL1        0.0083
     11 C          -7.1717  -16.2368   23.0206 C.ar    1  UNL1        0.0349
     12 C          -8.6268  -16.3043   23.3784 C.ar    1  UNL1        0.1386
     13 C          -9.0678  -16.0187   24.7833 C.ar    1  UNL1        0.0349
     14 C          -8.0536  -15.6655   25.8305 C.ar    1  UNL1        0.0083
     15 C          -8.4946  -15.3799   27.2355 C.3     1  UNL1        0.0335
     16 C          -6.5985  -15.5981   25.4728 C.ar    1  UNL1        0.1323
     17 F          -5.5843  -15.2449   26.5201 F       1  UNL1       -0.2048
     18 C         -10.3524  -19.1534   22.4504 C.3     1  UNL1        0.0533
     19 C         -10.8096  -19.8912   21.2270 C.3     1  UNL1        0.0057
     20 C         -10.4190  -19.3994   19.8648 C.3     1  UNL1        0.0172
     21 C          -9.0621  -19.7207   19.3120 C.3     1  UNL1        0.0688
     22 N          -7.8568  -18.9738   19.8012 N.3     1  UNL1       -0.2937
     23 H          -8.1790  -18.0486   20.0851 H       1  UNL1        0.1236
     24 C          -7.0480  -19.5191   20.9407 C.3     1  UNL1        0.0956
     25 C          -5.5682  -19.2797   20.9921 C.ar    1  UNL1       -0.0062
     26 C          -4.8581  -19.2531   22.3132 C.ar    1  UNL1       -0.0006
     27 C          -3.3782  -19.0136   22.3645 C.ar    1  UNL1        0.0294
     28 C          -2.6084  -18.8009   21.0949 C.ar    1  UNL1        0.1401
     29 F          -1.1285  -18.5615   21.1463 F       1  UNL1       -0.2042
     30 C          -3.3184  -18.8275   19.7738 C.ar    1  UNL1        0.0294
     31 C          -4.7982  -19.0669   19.7224 C.ar    1  UNL1       -0.0006
@<TRIPOS>BOND
     1     9    10    1
     2    10    11   ar
     3    11    12   ar
     4    12     8    1
     5     8     1    1
     6     1    18    1
     7    18    19    1
     8    19    20    1
     9    20    21    1
    10    21    22    1
    11    22    24    1
    12    24    25    1
    13    25    26   ar
    14    26    27   ar
    15    27    28   ar
    16    28    29    1
    17    28    30   ar
    18    30    31   ar
    19     1     2    1
    20     2     3    2
    21     2     4   am
    22     4     5    1
    23    12    13   ar
    24    13    14   ar
    25    14    15    1
    26    14    16   ar
    27    16    17    1
    28    16    10   ar
    29    31    25   ar
    30    22    23    1
    31     4     6    1
    32     5     7    1
@<TRIPOS>MOLECULE
*****
 31 32 0 0 0
SMALL
GASTEIGER

@<TRIPOS>ATOM
      1 C         -10.5508  -16.8531   22.6176 C.3     1  UNL1        0.2430
      2 C         -11.0240  -16.4799   21.2439 C.2     1  UNL1        0.2845
      3 O         -12.2648  -17.1079   20.6818 O.2     1  UNL1       -0.2691
      4 N         -10.2565  -15.4786   20.4325 N.am    1  UNL1       -0.1940
      5 O         -10.7297  -15.1054   19.0590 O.3     1  UNL1       -0.2951
      6 H          -9.4421  -15.0664   20.8015 H       1  UNL1        0.1823
      7 H         -11.5386  -15.5985   18.8506 H       1  UNL1        0.2414
      8 O         -10.2631  -15.7827   23.6283 O.3     1  UNL1       -0.4699
      9 C          -7.2739  -15.8162   27.8784 C.3     1  UNL1        0.0335
     10 C          -7.4123  -15.7126   26.3884 C.ar    1  UNL1        0.0083
     11 C          -8.7684  -15.7995   25.7533 C.ar    1  UNL1        0.0349
     12 C          -8.9069  -15.6958   24.2633 C.ar    1  UNL1        0.1386
     13 C          -7.6892  -15.5054   23.4084 C.ar    1  UNL1        0.0349
     14 C          -6.3331  -15.4185   24.0435 C.ar    1  UNL1        0.0083
     15 C          -5.1153  -15.2280   23.1886 C.3     1  UNL1        0.0335
     16 C          -6.1946  -15.5221   25.5335 C.ar    1  UNL1        0.1323
     17 F          -4.8384  -15.4353   26.1686 F       1  UNL1       -0.2048
     18 C         -10.3652  -18.2966   22.9805 C.3     1  UNL1        0.0533
     19 C          -9.3602  -19.1319   22.2441 C.3     1  UNL1        0.0057
     20 C          -9.7391  -19.7978   20.9545 C.3     1  UNL1        0.0172
     21 C          -9.1890  -19.2860   19.6562 C.3     1  UNL1        0.0688
     22 N          -7.7080  -19.2831   19.4184 N.3     1  UNL1       -0.2937
     23 H          -7.3645  -18.3686   19.7115 H       1  UNL1        0.1236
     24 C          -6.8390  -20.3068   20.0869 C.3     1  UNL1        0.0956
     25 C          -5.5458  -19.8921   20.7237 C.ar    1  UNL1       -0.0062
     26 C          -5.5559  -19.1433   22.0234 C.ar    1  UNL1       -0.0006
     27 C          -4.2626  -18.7286   22.6601 C.ar    1  UNL1        0.0294
     28 C          -2.9592  -19.0626   21.9972 C.ar    1  UNL1        0.1401
     29 F          -1.6660  -18.6479   22.6339 F       1  UNL1       -0.2042
     30 C          -2.9491  -19.8113   20.6974 C.ar    1  UNL1        0.0294
     31 C          -4.2423  -20.2261   20.0607 C.ar    1  UNL1       -0.0006
@<TRIPOS>BOND
     1     9    10    1
     2    10    11   ar
     3    11    12   ar
     4    12     8    1
     5     8     1    1
     6     1    18    1
     7    18    19    1
     8    19    20    1
     9    20    21    1
    10    21    22    1
    11    22    24    1
    12    24    25    1
    13    25    26   ar
    14    26    27   ar
    15    27    28   ar
    16    28    29    1
    17    28    30   ar
    18    30    31   ar
    19     1     2    1
    20     2     3    2
    21     2     4   am
    22     4     5    1
    23    12    13   ar
    24    13    14   ar
    25    14    15    1
    26    14    16   ar
    27    16    17    1
    28    16    10   ar
    29    31    25   ar
    30    22    23    1
    31     4     6    1
    32     5     7    1
@<TRIPOS>MOLECULE
*****
 31 32 0 0 0
SMALL
GASTEIGER

@<TRIPOS>ATOM
      1 C          -6.9916  -16.1324   23.4260 C.3     1  UNL1        0.2430
      2 C          -6.5659  -15.7649   24.8167 C.2     1  UNL1        0.2845
      3 O          -5.1587  -16.0280   25.2644 O.2     1  UNL1       -0.2691
      4 N          -7.5475  -15.1344   25.7595 N.am    1  UNL1       -0.1940
      5 O          -7.1219  -14.7670   27.1501 O.3     1  UNL1       -0.2951
      6 H          -8.4711  -14.9618   25.4656 H       1  UNL1        0.1823
      7 H          -6.1893  -15.0023   27.2756 H       1  UNL1        0.2414
      8 O          -8.0667  -15.3446   22.7380 O.3     1  UNL1       -0.4699
      9 C         -11.9745  -18.4726   24.1325 C.3     1  UNL1        0.0335
     10 C         -11.3430  -17.5490   23.1334 C.ar    1  UNL1        0.0083
     11 C         -10.0206  -16.9086   23.4352 C.ar    1  UNL1        0.0349
     12 C          -9.3892  -15.9850   22.4361 C.ar    1  UNL1        0.1386
     13 C         -10.0801  -15.7018   21.1352 C.ar    1  UNL1        0.0349
     14 C         -11.4024  -16.3422   20.8334 C.ar    1  UNL1        0.0083
     15 C         -12.0934  -16.0590   19.5324 C.3     1  UNL1        0.0335
     16 C         -12.0339  -17.2658   21.8325 C.ar    1  UNL1        0.1323
     17 F         -13.3564  -17.9062   21.5306 F       1  UNL1       -0.2048
     18 C          -6.3421  -17.2877   22.7235 C.3     1  UNL1        0.0533
     19 C          -7.1040  -18.5628   22.5147 C.3     1  UNL1        0.0057
     20 C          -7.6544  -18.8942   21.1592 C.3     1  UNL1        0.0172
     21 C          -6.7519  -19.4532   20.0994 C.3     1  UNL1        0.0688
     22 N          -5.9551  -20.6947   20.3712 N.3     1  UNL1       -0.2937
     23 H          -6.3431  -21.4290   19.7791 H       1  UNL1        0.1236
     24 C          -4.4717  -20.6975   20.1487 C.3     1  UNL1        0.0956
     25 C          -3.6617  -19.4785   20.4770 C.ar    1  UNL1       -0.0062
     26 C          -3.3812  -19.1275   21.9081 C.ar    1  UNL1       -0.0006
     27 C          -2.5711  -17.9084   22.2364 C.ar    1  UNL1        0.0294
     28 C          -2.0417  -17.0404   21.1336 C.ar    1  UNL1        0.1401
     29 F          -1.2317  -15.8213   21.4619 F       1  UNL1       -0.2042
     30 C          -2.3223  -17.3914   19.7025 C.ar    1  UNL1        0.0294
     31 C          -3.1323  -18.6104   19.3742 C.ar    1  UNL1       -0.0006
@<TRIPOS>BOND
     1     9    10    1
     2    10    11   ar
     3    11    12   ar
     4    12     8    1
     5     8     1    1
     6     1    18    1
     7    18    19    1
     8    19    20    1
     9    20    21    1
    10    21    22    1
    11    22    24    1
    12    24    25    1
    13    25    26   ar
    14    26    27   ar
    15    27    28   ar
    16    28    29    1
    17    28    30   ar
    18    30    31   ar
    19     1     2    1
    20     2     3    2
    21     2     4   am
    22     4     5    1
    23    12    13   ar
    24    13    14   ar
    25    14    15    1
    26    14    16   ar
    27    16    17    1
    28    16    10   ar
    29    31    25   ar
    30    22    23    1
    31     4     6    1
    32     5     7    1
@<TRIPOS>MOLECULE
*****
 31 32 0 0 0
SMALL
GASTEIGER

@<TRIPOS>ATOM
      1 C          -7.0588  -16.1596   23.6758 C.3     1  UNL1        0.2430
      2 C          -6.7965  -15.6757   25.0712 C.2     1  UNL1        0.2845
      3 O          -5.3961  -15.6584   25.6083 O.2     1  UNL1       -0.2691
      4 N          -7.9348  -15.2089   25.9295 N.am    1  UNL1       -0.1940
      5 O          -7.6726  -14.7250   27.3248 O.3     1  UNL1       -0.2951
      6 H          -8.8539  -15.2203   25.5769 H       1  UNL1        0.1823
      7 H          -6.7225  -14.7789   27.5125 H       1  UNL1        0.2414
      8 O          -8.0251  -15.4235   22.7959 O.3     1  UNL1       -0.4699
      9 C         -12.0246  -16.0183   19.5324 C.3     1  UNL1        0.0335
     10 C         -11.3566  -16.3297   20.8388 C.ar    1  UNL1        0.0083
     11 C         -10.0249  -15.7209   21.1641 C.ar    1  UNL1        0.0349
     12 C          -9.3569  -16.0323   22.4706 C.ar    1  UNL1        0.1386
     13 C         -10.0207  -16.9524   23.4518 C.ar    1  UNL1        0.0349
     14 C         -11.3524  -17.5612   23.1265 C.ar    1  UNL1        0.0083
     15 C         -12.0163  -18.4813   24.1077 C.3     1  UNL1        0.0335
     16 C         -12.0204  -17.2498   21.8200 C.ar    1  UNL1        0.1323
     17 F         -13.3522  -17.8586   21.4947 F       1  UNL1       -0.2048
     18 C          -6.3547  -17.3797   23.1604 C.3     1  UNL1        0.0533
     19 C          -6.6952  -17.9259   21.8055 C.3     1  UNL1        0.0057
     20 C          -7.0384  -19.3775   21.6466 C.3     1  UNL1        0.0172
     21 C          -6.6581  -20.1050   20.3912 C.3     1  UNL1        0.0688
     22 N          -5.5855  -21.1529   20.4272 N.3     1  UNL1       -0.2937
     23 H          -5.9223  -21.9382   19.8701 H       1  UNL1        0.1236
     24 C          -4.2061  -20.8316   19.9331 C.3     1  UNL1        0.0956
     25 C          -3.5228  -19.5739   20.3818 C.ar    1  UNL1       -0.0062
     26 C          -3.0583  -18.5703   19.3685 C.ar    1  UNL1       -0.0006
     27 C          -2.3749  -17.3126   19.8173 C.ar    1  UNL1        0.0294
     28 C          -2.1561  -17.0586   21.2793 C.ar    1  UNL1        0.1401
     29 F          -1.4728  -15.8010   21.7280 F       1  UNL1       -0.2042
     30 C          -2.6207  -18.0623   22.2927 C.ar    1  UNL1        0.0294
     31 C          -3.3040  -19.3199   21.8440 C.ar    1  UNL1       -0.0006
@<TRIPOS>BOND
     1     9    10    1
     2    10    11   ar
     3    11    12   ar
     4    12     8    1
     5     8     1    1
     6     1    18    1
     7    18    19    1
     8    19    20    1
     9    20    21    1
    10    21    22    1
    11    22    24    1
    12    24    25    1
    13    25    26   ar
    14    26    27   ar
    15    27    28   ar
    16    28    29    1
    17    28    30   ar
    18    30    31   ar
    19     1     2    1
    20     2     3    2
    21     2     4   am
    22     4     5    1
    23    12    13   ar
    24    13    14   ar
    25    14    15    1
    26    14    16   ar
    27    16    17    1
    28    16    10   ar
    29    31    25   ar
    30    22    23    1
    31     4     6    1
    32     5     7    1
@<TRIPOS>MOLECULE
*****
 31 32 0 0 0
SMALL
GASTEIGER

@<TRIPOS>ATOM
      1 C          -5.6156  -16.0447   24.4629 C.3     1  UNL1        0.2430
      2 C          -5.8595  -15.1893   25.6708 C.2     1  UNL1        0.2845
      3 O          -4.8308  -14.1851   26.0987 O.2     1  UNL1       -0.2691
      4 N          -7.1321  -15.3383   26.4507 N.am    1  UNL1       -0.1940
      5 O          -7.3760  -14.4829   27.6585 O.3     1  UNL1       -0.2951
      6 H          -7.8073  -15.9974   26.1698 H       1  UNL1        0.1823
      7 H          -6.6186  -13.8926   27.7950 H       1  UNL1        0.2414
      8 O          -4.4535  -16.9928   24.4376 O.3     1  UNL1       -0.4699
      9 C          -4.6882  -20.3495   20.4781 C.3     1  UNL1        0.0335
     10 C          -4.0411  -19.1734   21.1475 C.ar    1  UNL1        0.0083
     11 C          -4.5708  -18.6712   22.4578 C.ar    1  UNL1        0.0349
     12 C          -3.9237  -17.4951   23.1271 C.ar    1  UNL1        0.1386
     13 C          -2.7469  -16.8212   22.4861 C.ar    1  UNL1        0.0349
     14 C          -2.2172  -17.3235   21.1758 C.ar    1  UNL1        0.0083
     15 C          -1.0403  -16.6496   20.5346 C.3     1  UNL1        0.0335
     16 C          -2.8643  -18.4996   20.5064 C.ar    1  UNL1        0.1323
     17 F          -2.3345  -19.0018   19.1960 F       1  UNL1       -0.2048
     18 C          -6.5338  -15.9520   23.2804 C.3     1  UNL1        0.0533
     19 C          -7.6751  -16.9151   23.1398 C.3     1  UNL1        0.0057
     20 C          -8.2192  -17.2399   21.7801 C.3     1  UNL1        0.0172
     21 C          -7.9699  -18.5897   21.1754 C.3     1  UNL1        0.0688
     22 N          -8.7625  -19.0351   19.9824 N.3     1  UNL1       -0.2937
     23 H          -8.1937  -19.7254   19.4920 H       1  UNL1        0.1236
     24 C         -10.1196  -19.6461   20.1691 C.3     1  UNL1        0.0956
     25 C         -11.0384  -19.1215   21.2324 C.ar    1  UNL1       -0.0062
     26 C         -12.0552  -18.0719   20.8939 C.ar    1  UNL1       -0.0006
     27 C         -12.9741  -17.5474   21.9573 C.ar    1  UNL1        0.0294
     28 C         -12.8761  -18.0723   23.3589 C.ar    1  UNL1        0.1401
     29 F         -13.7949  -17.5477   24.4222 F       1  UNL1       -0.2042
     30 C         -11.8593  -19.1218   23.6974 C.ar    1  UNL1        0.0294
     31 C         -10.9405  -19.6464   22.6342 C.ar    1  UNL1       -0.0006
@<TRIPOS>BOND
     1     9    10    1
     2    10    11   ar
     3    11    12   ar
     4    12     8    1
     5     8     1    1
     6     1    18    1
     7    18    19    1
     8    19    20    1
     9    20    21    1
    10    21    22    1
    11    22    24    1
    12    24    25    1
    13    25    26   ar
    14    26    27   ar
    15    27    28   ar
    16    28    29    1
    17    28    30   ar
    18    30    31   ar
    19     1     2    1
    20     2     3    2
    21     2     4   am
    22     4     5    1
    23    12    13   ar
    24    13    14   ar
    25    14    15    1
    26    14    16   ar
    27    16    17    1
    28    16    10   ar
    29    31    25   ar
    30    22    23    1
    31     4     6    1
    32     5     7    1
@<TRIPOS>MOLECULE
*****
 31 32 0 0 0
SMALL
GASTEIGER

@<TRIPOS>ATOM
      1 C          -6.6238  -15.3693   23.8961 C.3     1  UNL1        0.2430
      2 C          -7.3297  -15.1131   25.1947 C.2     1  UNL1        0.2845
      3 O          -8.8271  -15.1721   25.2588 O.2     1  UNL1       -0.2691
      4 N          -6.5380  -14.7980   26.4292 N.am    1  UNL1       -0.1940
      5 O          -7.2438  -14.5418   27.7277 O.3     1  UNL1       -0.2951
      6 H          -5.5552  -14.7593   26.3871 H       1  UNL1        0.1823
      7 H          -8.2017  -14.6183   27.5957 H       1  UNL1        0.2414
      8 O          -7.4082  -15.4552   22.6204 O.3     1  UNL1       -0.4699
      9 C          -9.1547  -20.2405   23.6455 C.3     1  UNL1        0.0335
     10 C          -9.3211  -18.9155   22.9622 C.ar    1  UNL1        0.0083
     11 C          -8.2815  -17.8478   23.1329 C.ar    1  UNL1        0.0349
     12 C          -8.4479  -16.5229   22.4497 C.ar    1  UNL1        0.1386
     13 C          -9.6539  -16.2656   21.5958 C.ar    1  UNL1        0.0349
     14 C         -10.6936  -17.3333   21.4251 C.ar    1  UNL1        0.0083
     15 C         -11.8997  -17.0760   20.5711 C.3     1  UNL1        0.0335
     16 C         -10.5272  -18.6582   22.1083 C.ar    1  UNL1        0.1323
     17 F         -11.5669  -19.7259   21.9376 F       1  UNL1       -0.2048
     18 C          -5.1337  -15.5395   23.8733 C.3     1  UNL1        0.0533
     19 C          -4.5362  -16.8714   23.5282 C.3     1  UNL1        0.0057
     20 C          -3.3024  -16.9423   22.6781 C.3     1  UNL1        0.0172
     21 C          -2.1877  -17.8744   23.0503 C.3     1  UNL1        0.0688
     22 N          -1.4862  -18.6669   21.9873 N.3     1  UNL1       -0.2937
     23 H          -0.6376  -19.0418   22.4113 H       1  UNL1        0.1236
     24 C          -2.1848  -19.8179   21.3261 C.3     1  UNL1        0.0956
     25 C          -3.6444  -19.7193   20.9951 C.ar    1  UNL1       -0.0062
     26 C          -4.6664  -20.2897   21.9333 C.ar    1  UNL1       -0.0006
     27 C          -6.1262  -20.1911   21.6022 C.ar    1  UNL1        0.0294
     28 C          -6.5638  -19.5221   20.3330 C.ar    1  UNL1        0.1401
     29 F          -8.0235  -19.4235   20.0020 F       1  UNL1       -0.2042
     30 C          -5.5418  -18.9517   19.3949 C.ar    1  UNL1        0.0294
     31 C          -4.0822  -19.0503   19.7259 C.ar    1  UNL1       -0.0006
@<TRIPOS>BOND
     1     9    10    1
     2    10    11   ar
     3    11    12   ar
     4    12     8    1
     5     8     1    1
     6     1    18    1
     7    18    19    1
     8    19    20    1
     9    20    21    1
    10    21    22    1
    11    22    24    1
    12    24    25    1
    13    25    26   ar
    14    26    27   ar
    15    27    28   ar
    16    28    29    1
    17    28    30   ar
    18    30    31   ar
    19     1     2    1
    20     2     3    2
    21     2     4   am
    22     4     5    1
    23    12    13   ar
    24    13    14   ar
    25    14    15    1
    26    14    16   ar
    27    16    17    1
    28    16    10   ar
    29    31    25   ar
    30    22    23    1
    31     4     6    1
    32     5     7    1
