@<TRIPOS>MOLECULE
*****
 29 31 0 0 0
SMALL
GASTEIGER

@<TRIPOS>ATOM
      1 C         -10.8459  -17.2196   20.8737 C.ar    1  UNL1        0.3398
      2 C         -10.7745  -18.2741   19.8094 C.ar    1  UNL1        0.1799
      3 N          -9.5194  -19.0760   19.6311 N.ar    1  UNL1       -0.2057
      4 C          -8.3357  -18.8232   20.5170 C.ar    1  UNL1        0.2187
      5 N          -8.4071  -17.7687   21.5813 N.ar    1  UNL1       -0.1927
      6 C          -9.6622  -16.9668   21.7596 C.ar    1  UNL1        0.2031
      7 O         -12.5934  -16.0921   22.4309 O.2     1  UNL1        0.0416
      8 N         -12.1010  -16.4177   21.0520 N.pl3   1  UNL1        0.0855
      9 O         -12.8637  -15.9415   19.8514 O.co2   1  UNL1       -0.5759
     10 N          -7.0806  -19.6251   20.3387 N.pl3   1  UNL1       -0.2990
     11 H          -6.7897  -19.8898   19.4362 H       1  UNL1        0.1500
     12 C          -6.2688  -20.0235   21.5354 C.3     1  UNL1        0.1173
     13 C          -4.9257  -19.3990   21.7723 C.ar    1  UNL1        0.0080
     14 C          -4.7590  -18.3625   22.8437 C.ar    1  UNL1       -0.0018
     15 C          -3.4159  -17.7379   23.0806 C.ar    1  UNL1       -0.0002
     16 C          -2.2395  -18.1499   22.2460 C.ar    1  UNL1        0.0008
     17 C          -2.4063  -19.1864   21.1746 C.ar    1  UNL1        0.0111
     18 C          -3.7493  -19.8109   20.9378 C.ar    1  UNL1        0.0553
     19 CL         -3.9161  -20.8474   19.8664 Cl      1  UNL1       -0.0825
     20 N          -9.7335  -15.9122   22.8240 N.pl3   1  UNL1       -0.3131
     21 H          -9.9692  -14.9867   22.5849 H       1  UNL1        0.1484
     22 C          -9.4459  -16.2677   24.2525 C.3     1  UNL1        0.0884
     23 C          -8.1696  -15.8131   24.8962 C.3     1  UNL1        0.0223
     24 C          -8.0950  -15.6576   26.3863 C.3     1  UNL1        0.0188
     25 C          -6.8187  -15.2030   27.0300 C.3     1  UNL1        0.0686
     26 N          -5.6170  -14.9038   26.1837 N.3     1  UNL1       -0.2975
     27 C          -5.6916  -15.0593   24.6936 C.3     1  UNL1        0.0686
     28 C          -6.9679  -15.5139   24.0499 C.3     1  UNL1        0.0188
     29 H          -4.8692  -15.5177   26.5067 H       1  UNL1        0.1232
@<TRIPOS>UNITY_ATOM_ATTR
8 1
charge 1
9 1
charge -1
@<TRIPOS>BOND
     1     7     8    2
     2     8     9    1
     3     8     1    1
     4     1     2   ar
     5     2     3   ar
     6     3     4   ar
     7     4    10    1
     8    10    12    1
     9    12    13    1
    10    13    14   ar
    11    14    15   ar
    12    15    16   ar
    13    16    17   ar
    14    17    18   ar
    15    18    19    1
    16     4     5   ar
    17     5     6   ar
    18     6    20    1
    19    20    22    1
    20    22    23    1
    21    23    24    1
    22    24    25    1
    23    25    26    1
    24    26    27    1
    25    27    28    1
    26     6     1   ar
    27    28    23    1
    28    18    13   ar
    29    10    11    1
    30    20    21    1
    31    26    29    1
@<TRIPOS>MOLECULE
*****
 29 31 0 0 0
SMALL
GASTEIGER

@<TRIPOS>ATOM
      1 C          -4.1620  -19.0130   21.5355 C.ar    1  UNL1        0.3398
      2 C          -4.7467  -19.7635   20.3759 C.ar    1  UNL1        0.1799
      3 N          -6.2145  -19.6660   20.0827 N.ar    1  UNL1       -0.2057
      4 C          -7.0976  -18.8179   20.9491 C.ar    1  UNL1        0.2187
      5 N          -6.5130  -18.0673   22.1087 N.ar    1  UNL1       -0.1927
      6 C          -5.0451  -18.1648   22.4019 C.ar    1  UNL1        0.2031
      7 O          -1.9660  -17.9356   22.4112 O.2     1  UNL1        0.0416
      8 N          -2.6942  -19.1105   21.8287 N.pl3   1  UNL1        0.0855
      9 O          -1.9545  -20.3829   21.5394 O.co2   1  UNL1       -0.5759
     10 N          -8.5655  -18.7204   20.6558 N.pl3   1  UNL1       -0.2990
     11 H          -8.8909  -18.0849   19.9780 H       1  UNL1        0.1500
     12 C          -9.5375  -19.5911   21.3954 C.3     1  UNL1        0.1173
     13 C         -10.7550  -18.9858   22.0289 C.ar    1  UNL1        0.0080
     14 C         -11.7410  -18.2302   21.1879 C.ar    1  UNL1       -0.0018
     15 C         -12.9585  -17.6250   21.8214 C.ar    1  UNL1       -0.0002
     16 C         -13.1901  -17.7753   23.2958 C.ar    1  UNL1        0.0008
     17 C         -12.2042  -18.5308   24.1367 C.ar    1  UNL1        0.0111
     18 C         -10.9867  -19.1361   23.5032 C.ar    1  UNL1        0.0553
     19 CL        -10.0008  -19.8917   24.3441 Cl      1  UNL1       -0.0825
     20 N          -4.4605  -17.4142   23.5616 N.pl3   1  UNL1       -0.3131
     21 H          -3.7998  -17.8498   24.1472 H       1  UNL1        0.1484
     22 C          -4.8825  -15.9999   23.8290 C.3     1  UNL1        0.0884
     23 C          -5.9665  -15.7165   24.8264 C.3     1  UNL1        0.0223
     24 C          -7.3866  -15.5648   24.3677 C.3     1  UNL1        0.0188
     25 C          -8.4706  -15.2814   25.3650 C.3     1  UNL1        0.0686
     26 N          -8.1345  -15.1497   26.8209 N.3     1  UNL1       -0.2975
     27 C          -6.7144  -15.3014   27.2795 C.3     1  UNL1        0.0686
     28 C          -5.6304  -15.5848   26.2822 C.3     1  UNL1        0.0188
     29 H          -8.6803  -15.8562   27.3142 H       1  UNL1        0.1232
@<TRIPOS>UNITY_ATOM_ATTR
8 1
charge 1
9 1
charge -1
@<TRIPOS>BOND
     1     7     8    2
     2     8     9    1
     3     8     1    1
     4     1     2   ar
     5     2     3   ar
     6     3     4   ar
     7     4    10    1
     8    10    12    1
     9    12    13    1
    10    13    14   ar
    11    14    15   ar
    12    15    16   ar
    13    16    17   ar
    14    17    18   ar
    15    18    19    1
    16     4     5   ar
    17     5     6   ar
    18     6    20    1
    19    20    22    1
    20    22    23    1
    21    23    24    1
    22    24    25    1
    23    25    26    1
    24    26    27    1
    25    27    28    1
    26     6     1   ar
    27    28    23    1
    28    18    13   ar
    29    10    11    1
    30    20    21    1
    31    26    29    1
@<TRIPOS>MOLECULE
*****
 29 31 0 0 0
SMALL
GASTEIGER

@<TRIPOS>ATOM
      1 C          -7.0988  -15.5964   24.8742 C.ar    1  UNL1        0.3398
      2 C          -8.5957  -15.5467   24.9571 C.ar    1  UNL1        0.1799
      3 N          -9.4247  -15.8602   23.7469 N.ar    1  UNL1       -0.2057
      4 C          -8.7568  -16.2234   22.4539 C.ar    1  UNL1        0.2187
      5 N          -7.2599  -16.2731   22.3710 N.ar    1  UNL1       -0.1927
      6 C          -6.4310  -15.9596   23.5812 C.ar    1  UNL1        0.2031
      7 O          -6.7016  -15.7697   27.4358 O.2     1  UNL1        0.0416
      8 N          -6.2698  -15.2829   26.0844 N.pl3   1  UNL1        0.0855
      9 O          -5.0091  -14.4826   25.9431 O.co2   1  UNL1       -0.5759
     10 N          -9.5858  -16.5369   21.2437 N.pl3   1  UNL1       -0.2990
     11 H          -9.5594  -15.9404   20.4609 H       1  UNL1        0.1500
     12 C         -10.4550  -17.7592   21.2261 C.3     1  UNL1        0.1173
     13 C         -11.3435  -18.0646   22.3954 C.ar    1  UNL1        0.0080
     14 C         -12.7087  -17.4490   22.4809 C.ar    1  UNL1       -0.0018
     15 C         -13.5972  -17.7543   23.6503 C.ar    1  UNL1       -0.0002
     16 C         -13.1205  -18.6753   24.7341 C.ar    1  UNL1        0.0008
     17 C         -11.7553  -19.2909   24.6485 C.ar    1  UNL1        0.0111
     18 C         -10.8668  -18.9856   23.4792 C.ar    1  UNL1        0.0553
     19 CL         -9.5017  -19.6011   23.3937 Cl      1  UNL1       -0.0825
     20 N          -4.9340  -16.0093   23.4983 N.pl3   1  UNL1       -0.3131
     21 H          -4.4230  -15.1859   23.3248 H       1  UNL1        0.1484
     22 C          -4.2157  -17.3136   23.6797 C.3     1  UNL1        0.0884
     23 C          -3.2989  -17.8206   22.6061 C.3     1  UNL1        0.0223
     24 C          -3.3566  -19.2602   22.1888 C.3     1  UNL1        0.0188
     25 C          -2.4398  -19.7672   21.1153 C.3     1  UNL1        0.0686
     26 N          -1.4653  -18.8346   20.4592 N.3     1  UNL1       -0.2975
     27 C          -1.4076  -17.3950   20.8765 C.3     1  UNL1        0.0686
     28 C          -2.3244  -16.8880   21.9500 C.3     1  UNL1        0.0188
     29 H          -1.6754  -18.8436   19.4611 H       1  UNL1        0.1232
@<TRIPOS>UNITY_ATOM_ATTR
8 1
charge 1
9 1
charge -1
@<TRIPOS>BOND
     1     7     8    2
     2     8     9    1
     3     8     1    1
     4     1     2   ar
     5     2     3   ar
     6     3     4   ar
     7     4    10    1
     8    10    12    1
     9    12    13    1
    10    13    14   ar
    11    14    15   ar
    12    15    16   ar
    13    16    17   ar
    14    17    18   ar
    15    18    19    1
    16     4     5   ar
    17     5     6   ar
    18     6    20    1
    19    20    22    1
    20    22    23    1
    21    23    24    1
    22    24    25    1
    23    25    26    1
    24    26    27    1
    25    27    28    1
    26     6     1   ar
    27    28    23    1
    28    18    13   ar
    29    10    11    1
    30    20    21    1
    31    26    29    1
@<TRIPOS>MOLECULE
*****
 29 31 0 0 0
SMALL
GASTEIGER

@<TRIPOS>ATOM
      1 C          -7.0398  -15.4391   24.9172 C.ar    1  UNL1        0.3398
      2 C          -8.5340  -15.3996   25.0428 C.ar    1  UNL1        0.1799
      3 N          -9.3949  -15.6882   23.8489 N.ar    1  UNL1       -0.2057
      4 C          -8.7617  -16.0162   22.5293 C.ar    1  UNL1        0.2187
      5 N          -7.2675  -16.0557   22.4037 N.ar    1  UNL1       -0.1927
      6 C          -6.4066  -15.7671   23.5976 C.ar    1  UNL1        0.2031
      7 O          -6.5753  -15.6643   27.4634 O.2     1  UNL1        0.0416
      8 N          -6.1789  -15.1505   26.1111 N.pl3   1  UNL1        0.0855
      9 O          -4.9216  -14.3480   25.9528 O.co2   1  UNL1       -0.5759
     10 N          -9.6226  -16.3048   21.3354 N.pl3   1  UNL1       -0.2990
     11 H          -9.7076  -15.6372   20.6168 H       1  UNL1        0.1500
     12 C         -10.3542  -17.6106   21.2362 C.3     1  UNL1        0.1173
     13 C         -10.3038  -18.5868   22.3740 C.ar    1  UNL1        0.0080
     14 C          -9.1421  -19.5268   22.5047 C.ar    1  UNL1       -0.0018
     15 C          -9.0917  -20.5030   23.6425 C.ar    1  UNL1       -0.0002
     16 C         -10.2029  -20.5392   24.6495 C.ar    1  UNL1        0.0008
     17 C         -11.3645  -19.5993   24.5187 C.ar    1  UNL1        0.0111
     18 C         -11.4149  -18.6230   23.3809 C.ar    1  UNL1        0.0553
     19 CL        -12.5765  -17.6831   23.2502 Cl      1  UNL1       -0.0825
     20 N          -4.9123  -15.8066   23.4719 N.pl3   1  UNL1       -0.3131
     21 H          -4.4170  -14.9911   23.2293 H       1  UNL1        0.1484
     22 C          -4.1728  -17.0886   23.7158 C.3     1  UNL1        0.0884
     23 C          -3.2776  -17.6521   22.6522 C.3     1  UNL1        0.0223
     24 C          -2.3166  -16.7561   21.9286 C.3     1  UNL1        0.0188
     25 C          -1.4215  -17.3196   20.8650 C.3     1  UNL1        0.0686
     26 N          -1.4874  -18.7791   20.5251 N.3     1  UNL1       -0.2975
     27 C          -2.4484  -19.6751   21.2488 C.3     1  UNL1        0.0686
     28 C          -3.3435  -19.1116   22.3123 C.3     1  UNL1        0.0188
     29 H          -0.5544  -19.1603   20.6818 H       1  UNL1        0.1232
@<TRIPOS>UNITY_ATOM_ATTR
8 1
charge 1
9 1
charge -1
@<TRIPOS>BOND
     1     7     8    2
     2     8     9    1
     3     8     1    1
     4     1     2   ar
     5     2     3   ar
     6     3     4   ar
     7     4    10    1
     8    10    12    1
     9    12    13    1
    10    13    14   ar
    11    14    15   ar
    12    15    16   ar
    13    16    17   ar
    14    17    18   ar
    15    18    19    1
    16     4     5   ar
    17     5     6   ar
    18     6    20    1
    19    20    22    1
    20    22    23    1
    21    23    24    1
    22    24    25    1
    23    25    26    1
    24    26    27    1
    25    27    28    1
    26     6     1   ar
    27    28    23    1
    28    18    13   ar
    29    10    11    1
    30    20    21    1
    31    26    29    1
@<TRIPOS>MOLECULE
*****
 29 31 0 0 0
SMALL
GASTEIGER

@<TRIPOS>ATOM
      1 C          -7.1546  -16.0800   24.5941 C.ar    1  UNL1        0.3398
      2 C          -8.0506  -15.8915   25.7822 C.ar    1  UNL1        0.1799
      3 N          -9.2741  -16.7445   25.9418 N.ar    1  UNL1       -0.2057
      4 C          -9.6017  -17.7859   24.9132 C.ar    1  UNL1        0.2187
      5 N          -8.7057  -17.9744   23.7251 N.ar    1  UNL1       -0.1927
      6 C          -7.4822  -17.1215   23.5655 C.ar    1  UNL1        0.2031
      7 O          -5.1800  -14.7589   25.6456 O.2     1  UNL1        0.0416
      8 N          -5.9311  -15.2270   24.4345 N.pl3   1  UNL1        0.0855
      9 O          -5.4587  -14.8422   23.0639 O.co2   1  UNL1       -0.5759
     10 N         -10.8252  -18.6389   25.0728 N.pl3   1  UNL1       -0.2990
     11 H         -10.8991  -19.2556   25.8366 H       1  UNL1        0.1500
     12 C         -11.9360  -18.5523   24.0685 C.3     1  UNL1        0.1173
     13 C         -11.6211  -18.5259   22.6022 C.ar    1  UNL1        0.0080
     14 C         -11.0728  -19.7500   21.9306 C.ar    1  UNL1       -0.0018
     15 C         -10.7578  -19.7235   20.4643 C.ar    1  UNL1       -0.0002
     16 C         -10.9912  -18.4729   19.6695 C.ar    1  UNL1        0.0008
     17 C         -11.5395  -17.2489   20.3411 C.ar    1  UNL1        0.0111
     18 C         -11.8544  -17.2753   21.8074 C.ar    1  UNL1        0.0553
     19 CL        -12.4027  -16.0513   22.4790 Cl      1  UNL1       -0.0825
     20 N          -6.5862  -17.3100   22.3773 N.pl3   1  UNL1       -0.3131
     21 H          -6.4465  -16.5696   21.7438 H       1  UNL1        0.1484
     22 C          -5.9032  -18.6267   22.1545 C.3     1  UNL1        0.0884
     23 C          -4.4060  -18.6937   22.0908 C.3     1  UNL1        0.0223
     24 C          -3.7375  -19.6666   21.1652 C.3     1  UNL1        0.0188
     25 C          -2.2404  -19.7337   21.1015 C.3     1  UNL1        0.0686
     26 N          -1.4118  -18.8278   21.9633 N.3     1  UNL1       -0.2975
     27 C          -2.0802  -17.8549   22.8888 C.3     1  UNL1        0.0686
     28 C          -3.5773  -17.7879   22.9525 C.3     1  UNL1        0.0188
     29 H          -0.8240  -18.2801   21.3348 H       1  UNL1        0.1232
@<TRIPOS>UNITY_ATOM_ATTR
8 1
charge 1
9 1
charge -1
@<TRIPOS>BOND
     1     7     8    2
     2     8     9    1
     3     8     1    1
     4     1     2   ar
     5     2     3   ar
     6     3     4   ar
     7     4    10    1
     8    10    12    1
     9    12    13    1
    10    13    14   ar
    11    14    15   ar
    12    15    16   ar
    13    16    17   ar
    14    17    18   ar
    15    18    19    1
    16     4     5   ar
    17     5     6   ar
    18     6    20    1
    19    20    22    1
    20    22    23    1
    21    23    24    1
    22    24    25    1
    23    25    26    1
    24    26    27    1
    25    27    28    1
    26     6     1   ar
    27    28    23    1
    28    18    13   ar
    29    10    11    1
    30    20    21    1
    31    26    29    1
@<TRIPOS>MOLECULE
*****
 29 31 0 0 0
SMALL
GASTEIGER

@<TRIPOS>ATOM
      1 C          -8.3797  -18.0276   23.4611 C.ar    1  UNL1        0.3398
      2 C          -7.1926  -17.2184   23.0300 C.ar    1  UNL1        0.1799
      3 N          -6.1789  -17.8122   22.0973 N.ar    1  UNL1       -0.2057
      4 C          -6.3524  -19.2151   21.5957 C.ar    1  UNL1        0.2187
      5 N          -7.5395  -20.0243   22.0268 N.ar    1  UNL1       -0.1927
      6 C          -8.5532  -19.4305   22.9595 C.ar    1  UNL1        0.2031
      7 O          -9.7913  -15.9946   24.2513 O.2     1  UNL1        0.0416
      8 N          -9.3934  -17.4338   24.3938 N.pl3   1  UNL1        0.0855
      9 O         -10.0091  -18.2792   25.4689 O.co2   1  UNL1       -0.5759
     10 N          -5.3387  -19.8089   20.6630 N.pl3   1  UNL1       -0.2990
     11 H          -5.6091  -20.0984   19.7618 H       1  UNL1        0.1500
     12 C          -3.9130  -19.9614   21.1035 C.3     1  UNL1        0.1173
     13 C          -2.9213  -18.8709   20.8254 C.ar    1  UNL1        0.0080
     14 C          -2.2776  -18.7692   19.4743 C.ar    1  UNL1       -0.0018
     15 C          -1.2859  -17.6787   19.1962 C.ar    1  UNL1       -0.0002
     16 C          -0.9379  -16.6899   20.2692 C.ar    1  UNL1        0.0008
     17 C          -1.5815  -16.7917   21.6202 C.ar    1  UNL1        0.0111
     18 C          -2.5732  -17.8822   21.8983 C.ar    1  UNL1        0.0553
     19 CL         -3.2169  -17.9840   23.2493 Cl      1  UNL1       -0.0825
     20 N          -9.7403  -20.2397   23.3906 N.pl3   1  UNL1       -0.3131
     21 H          -9.7007  -20.7684   24.2202 H       1  UNL1        0.1484
     22 C         -10.9878  -20.2436   22.5577 C.3     1  UNL1        0.0884
     23 C         -11.3779  -19.0181   21.7856 C.3     1  UNL1        0.0223
     24 C         -10.8612  -18.8134   20.3924 C.3     1  UNL1        0.0188
     25 C         -11.2512  -17.5881   19.6202 C.3     1  UNL1        0.0686
     26 N         -12.1580  -16.5673   20.2413 N.3     1  UNL1       -0.2975
     27 C         -12.6748  -16.7720   21.6345 C.3     1  UNL1        0.0686
     28 C         -12.2847  -17.9974   22.4067 C.3     1  UNL1        0.0188
     29 H         -12.9733  -16.4890   19.6334 H       1  UNL1        0.1232
@<TRIPOS>UNITY_ATOM_ATTR
8 1
charge 1
9 1
charge -1
@<TRIPOS>BOND
     1     7     8    2
     2     8     9    1
     3     8     1    1
     4     1     2   ar
     5     2     3   ar
     6     3     4   ar
     7     4    10    1
     8    10    12    1
     9    12    13    1
    10    13    14   ar
    11    14    15   ar
    12    15    16   ar
    13    16    17   ar
    14    17    18   ar
    15    18    19    1
    16     4     5   ar
    17     5     6   ar
    18     6    20    1
    19    20    22    1
    20    22    23    1
    21    23    24    1
    22    24    25    1
    23    25    26    1
    24    26    27    1
    25    27    28    1
    26     6     1   ar
    27    28    23    1
    28    18    13   ar
    29    10    11    1
    30    20    21    1
    31    26    29    1
@<TRIPOS>MOLECULE
*****
 29 31 0 0 0
SMALL
GASTEIGER

@<TRIPOS>ATOM
      1 C          -7.3825  -16.5153   24.0505 C.ar    1  UNL1        0.3398
      2 C          -8.6587  -16.5346   24.8385 C.ar    1  UNL1        0.1799
      3 N          -9.6270  -17.6678   24.6702 N.ar    1  UNL1       -0.2057
      4 C          -9.3191  -18.7817   23.7139 C.ar    1  UNL1        0.2187
      5 N          -8.0429  -18.7624   22.9260 N.ar    1  UNL1       -0.1927
      6 C          -7.0746  -17.6292   23.0943 C.ar    1  UNL1        0.2031
      7 O          -5.6739  -14.8454   23.0298 O.2     1  UNL1        0.0416
      8 N          -6.4142  -15.3822   24.2188 N.pl3   1  UNL1        0.0855
      9 O          -6.1862  -14.7857   25.5761 O.co2   1  UNL1       -0.5759
     10 N         -10.2874  -19.9149   23.5457 N.pl3   1  UNL1       -0.2990
     11 H         -10.3141  -20.6421   24.2087 H       1  UNL1        0.1500
     12 C         -11.2150  -19.9400   22.3672 C.3     1  UNL1        0.1173
     13 C         -11.5017  -18.6765   21.6113 C.ar    1  UNL1        0.0080
     14 C         -12.3722  -17.6184   22.2217 C.ar    1  UNL1       -0.0018
     15 C         -12.6589  -16.3549   21.4658 C.ar    1  UNL1       -0.0002
     16 C         -12.0749  -16.1495   20.0994 C.ar    1  UNL1        0.0008
     17 C         -11.2044  -17.2076   19.4890 C.ar    1  UNL1        0.0111
     18 C         -10.9178  -18.4711   20.2450 C.ar    1  UNL1        0.0553
     19 CL        -10.0473  -19.5292   19.6346 Cl      1  UNL1       -0.0825
     20 N          -5.7984  -17.6099   22.3063 N.pl3   1  UNL1       -0.3131
     21 H          -5.7933  -17.2602   21.3860 H       1  UNL1        0.1484
     22 C          -4.5299  -18.1235   22.9204 C.3     1  UNL1        0.0884
     23 C          -3.2441  -18.0592   22.1504 C.3     1  UNL1        0.0223
     24 C          -2.6743  -19.3037   21.5368 C.3     1  UNL1        0.0188
     25 C          -1.3887  -19.2394   20.7669 C.3     1  UNL1        0.0686
     26 N          -0.6728  -17.9306   20.6105 N.3     1  UNL1       -0.2975
     27 C          -1.2426  -16.6861   21.2241 C.3     1  UNL1        0.0686
     28 C          -2.5283  -16.7504   21.9941 C.3     1  UNL1        0.0188
     29 H          -0.5944  -17.7557   19.6087 H       1  UNL1        0.1232
@<TRIPOS>UNITY_ATOM_ATTR
8 1
charge 1
9 1
charge -1
@<TRIPOS>BOND
     1     7     8    2
     2     8     9    1
     3     8     1    1
     4     1     2   ar
     5     2     3   ar
     6     3     4   ar
     7     4    10    1
     8    10    12    1
     9    12    13    1
    10    13    14   ar
    11    14    15   ar
    12    15    16   ar
    13    16    17   ar
    14    17    18   ar
    15    18    19    1
    16     4     5   ar
    17     5     6   ar
    18     6    20    1
    19    20    22    1
    20    22    23    1
    21    23    24    1
    22    24    25    1
    23    25    26    1
    24    26    27    1
    25    27    28    1
    26     6     1   ar
    27    28    23    1
    28    18    13   ar
    29    10    11    1
    30    20    21    1
    31    26    29    1
@<TRIPOS>MOLECULE
*****
 29 31 0 0 0
SMALL
GASTEIGER

@<TRIPOS>ATOM
      1 C          -6.1345  -16.1735   24.2509 C.ar    1  UNL1        0.3398
      2 C          -4.8674  -16.8944   23.8976 C.ar    1  UNL1        0.1799
      3 N          -4.8215  -17.7823   22.6895 N.ar    1  UNL1       -0.2057
      4 C          -6.0426  -17.9493   21.8347 C.ar    1  UNL1        0.2187
      5 N          -7.3097  -17.2285   22.1879 N.ar    1  UNL1       -0.1927
      6 C          -7.3557  -16.3406   23.3960 C.ar    1  UNL1        0.2031
      7 O          -5.0308  -14.3710   25.7617 O.2     1  UNL1        0.0416
      8 N          -6.1804  -15.2856   25.4590 N.pl3   1  UNL1        0.0855
      9 O          -7.3760  -15.3124   26.3644 O.co2   1  UNL1       -0.5759
     10 N          -5.9967  -18.8372   20.6266 N.pl3   1  UNL1       -0.2990
     11 H          -6.7713  -18.8846   20.0207 H       1  UNL1        0.1500
     12 C          -4.7707  -19.6530   20.3415 C.3     1  UNL1        0.1173
     13 C          -3.4944  -18.9741   19.9412 C.ar    1  UNL1        0.0080
     14 C          -3.4603  -18.0992   18.7232 C.ar    1  UNL1       -0.0018
     15 C          -2.1841  -17.4203   18.3229 C.ar    1  UNL1       -0.0002
     16 C          -0.9419  -17.6162   19.1407 C.ar    1  UNL1        0.0008
     17 C          -0.9760  -18.4911   20.3587 C.ar    1  UNL1        0.0111
     18 C          -2.2523  -19.1700   20.7589 C.ar    1  UNL1        0.0553
     19 CL         -2.2864  -20.0448   21.9769 Cl      1  UNL1       -0.0825
     20 N          -8.6229  -15.6198   23.7493 N.pl3   1  UNL1       -0.3131
     21 H          -8.6198  -14.6408   23.8529 H       1  UNL1        0.1484
     22 C          -9.8947  -16.3906   23.9447 C.3     1  UNL1        0.0884
     23 C         -10.8237  -16.6106   22.7876 C.3     1  UNL1        0.0223
     24 C         -12.0042  -17.5240   22.9368 C.3     1  UNL1        0.0188
     25 C         -12.9331  -17.7440   21.7798 C.3     1  UNL1        0.0686
     26 N         -12.6816  -17.0507   20.4737 N.3     1  UNL1       -0.2975
     27 C         -11.5011  -16.1373   20.3246 C.3     1  UNL1        0.0686
     28 C         -10.5721  -15.9173   21.4815 C.3     1  UNL1        0.0188
     29 H         -13.5120  -16.4941   20.2711 H       1  UNL1        0.1232
@<TRIPOS>UNITY_ATOM_ATTR
8 1
charge 1
9 1
charge -1
@<TRIPOS>BOND
     1     7     8    2
     2     8     9    1
     3     8     1    1
     4     1     2   ar
     5     2     3   ar
     6     3     4   ar
     7     4    10    1
     8    10    12    1
     9    12    13    1
    10    13    14   ar
    11    14    15   ar
    12    15    16   ar
    13    16    17   ar
    14    17    18   ar
    15    18    19    1
    16     4     5   ar
    17     5     6   ar
    18     6    20    1
    19    20    22    1
    20    22    23    1
    21    23    24    1
    22    24    25    1
    23    25    26    1
    24    26    27    1
    25    27    28    1
    26     6     1   ar
    27    28    23    1
    28    18    13   ar
    29    10    11    1
    30    20    21    1
    31    26    29    1
@<TRIPOS>MOLECULE
*****
 29 31 0 0 0
SMALL
GASTEIGER

@<TRIPOS>ATOM
      1 C          -6.8279  -16.3143   23.5219 C.ar    1  UNL1        0.3398
      2 C          -5.5635  -17.1212   23.5148 C.ar    1  UNL1        0.1799
      3 N          -5.3280  -18.1368   22.4364 N.ar    1  UNL1       -0.2057
      4 C          -6.3568  -18.3454   21.3650 C.ar    1  UNL1        0.2187
      5 N          -7.6212  -17.5385   21.3721 N.ar    1  UNL1       -0.1927
      6 C          -7.8568  -16.5229   22.4505 C.ar    1  UNL1        0.2031
      7 O          -8.4416  -15.1051   25.1602 O.2     1  UNL1        0.0416
      8 N          -7.0635  -15.2987   24.6004 N.pl3   1  UNL1        0.0855
      9 O          -5.9210  -14.4769   25.1192 O.co2   1  UNL1       -0.5759
     10 N          -6.1212  -19.3610   20.2865 N.pl3   1  UNL1       -0.2990
     11 H          -6.8510  -19.6051   19.6723 H       1  UNL1        0.1500
     12 C          -4.7739  -20.0046   20.1437 C.3     1  UNL1        0.1173
     13 C          -3.5603  -19.1578   19.8987 C.ar    1  UNL1        0.0080
     14 C          -3.5021  -18.2599   18.6984 C.ar    1  UNL1       -0.0018
     15 C          -2.2886  -17.4131   18.4535 C.ar    1  UNL1       -0.0002
     16 C          -1.1332  -17.4640   19.4088 C.ar    1  UNL1        0.0008
     17 C          -1.1914  -18.3618   20.6090 C.ar    1  UNL1        0.0111
     18 C          -2.4050  -19.2086   20.8540 C.ar    1  UNL1        0.0553
     19 CL         -2.4632  -20.1064   22.0542 Cl      1  UNL1       -0.0825
     20 N          -9.1213  -15.7160   22.4576 N.pl3   1  UNL1       -0.3131
     21 H          -9.1026  -14.7693   22.1878 H       1  UNL1        0.1484
     22 C         -10.4141  -16.3514   22.8756 C.3     1  UNL1        0.0884
     23 C         -10.4392  -17.7884   23.3051 C.3     1  UNL1        0.0223
     24 C         -10.0807  -18.1564   24.7143 C.3     1  UNL1        0.0188
     25 C         -10.1058  -19.5933   25.1438 C.3     1  UNL1        0.0686
     26 N         -10.4894  -20.6623   24.1640 N.3     1  UNL1       -0.2975
     27 C         -10.8479  -20.2943   22.7547 C.3     1  UNL1        0.0686
     28 C         -10.8228  -18.8574   22.3252 C.3     1  UNL1        0.0188
     29 H         -11.2973  -21.1456   24.5567 H       1  UNL1        0.1232
@<TRIPOS>UNITY_ATOM_ATTR
8 1
charge 1
9 1
charge -1
@<TRIPOS>BOND
     1     7     8    2
     2     8     9    1
     3     8     1    1
     4     1     2   ar
     5     2     3   ar
     6     3     4   ar
     7     4    10    1
     8    10    12    1
     9    12    13    1
    10    13    14   ar
    11    14    15   ar
    12    15    16   ar
    13    16    17   ar
    14    17    18   ar
    15    18    19    1
    16     4     5   ar
    17     5     6   ar
    18     6    20    1
    19    20    22    1
    20    22    23    1
    21    23    24    1
    22    24    25    1
    23    25    26    1
    24    26    27    1
    25    27    28    1
    26     6     1   ar
    27    28    23    1
    28    18    13   ar
    29    10    11    1
    30    20    21    1
    31    26    29    1
