@<TRIPOS>MOLECULE
*****
 33 36 0 0 0
SMALL
GASTEIGER

@<TRIPOS>ATOM
      1 C          -1.5734    3.2157   19.8429 C.3     1  UNL1        0.1383
      2 N          -0.1439    2.9526   19.4722 N.ar    1  UNL1       -0.2455
      3 C           0.4981    1.6476   19.8393 C.ar    1  UNL1        0.2816
      4 O          -0.2894    0.6057   20.5770 O.2     1  UNL1       -0.2652
      5 C           1.9275    1.3845   19.4686 C.ar    1  UNL1        0.1342
      6 C           2.7150    2.4265   18.7308 C.ar    1  UNL1        0.0871
      7 C           4.0958    1.8875   18.5008 C.ar    1  UNL1        0.0515
      8 C           4.1617    0.5124   19.0964 C.ar    1  UNL1        0.1142
      9 N           2.8216    0.2015   19.6945 N.ar    1  UNL1       -0.3068
     10 N           2.0730    3.7315   18.3637 N.ar    1  UNL1       -0.2776
     11 C           2.8604    4.7735   17.6260 C.3     1  UNL1        0.1351
     12 C           0.6435    3.9945   18.7345 C.ar    1  UNL1        0.3339
     13 O           0.0014    5.2996   18.3674 O.2     1  UNL1       -0.2462
     14 N           5.3576   -0.3930   19.0944 N.pl3   1  UNL1       -0.2932
     15 C           5.6108   -1.2985   17.9257 C.3     1  UNL1        0.0922
     16 C           6.8068   -2.2039   17.9237 C.3     1  UNL1        0.0228
     17 C           7.7496   -2.2037   19.0903 C.3     1  UNL1        0.0177
     18 C           7.4965   -1.2981   20.2590 C.3     1  UNL1        0.0575
     19 C           7.6810   -0.6259   21.5871 C.3     1  UNL1        0.0173
     20 N           8.7565   -1.9700   20.7182 N.3     1  UNL1       -0.3219
     21 C           6.3005   -0.3928   20.2610 C.3     1  UNL1        0.1062
     22 H           9.0645   -2.6359   20.0096 H       1  UNL1        0.1188
     23 H           8.5795   -2.4627   21.5936 H       1  UNL1        0.1188
     24 C           2.4424   -1.0692   20.3955 C.3     1  UNL1        0.1348
     25 C           3.2156   -1.5216   21.5986 C.ar    1  UNL1        0.0123
     26 C           3.1875   -0.7074   22.8580 C.ar    1  UNL1        0.0279
     27 C           3.9608   -1.1598   24.0610 C.ar    1  UNL1        0.1399
     28 F           3.9327   -0.3456   25.3205 F       1  UNL1       -0.2042
     29 C           4.7623   -2.4266   24.0047 C.ar    1  UNL1        0.0303
     30 C           4.7904   -3.2408   22.7453 C.ar    1  UNL1        0.0123
     31 C           4.0171   -2.7884   21.5422 C.ar    1  UNL1        0.0664
     32 C           4.0452   -3.6026   20.2828 C.1     1  UNL1        0.1002
     33 N           4.0733   -4.4169   19.0233 N.1     1  UNL1       -0.1908
@<TRIPOS>BOND
     1     1     2    1
     2     2     3   ar
     3     3     4    2
     4     3     5   ar
     5     5     6   ar
     6     6     7   ar
     7     7     8   ar
     8     8    14    1
     9    14    15    1
    10    15    16    1
    11    16    17    1
    12    17    18    1
    13    18    19    1
    14    18    20    1
    15    18    21    1
    16     8     9   ar
    17     9    24    1
    18    24    25    1
    19    25    26   ar
    20    26    27   ar
    21    27    28    1
    22    27    29   ar
    23    29    30   ar
    24    30    31   ar
    25    31    32    1
    26    32    33    3
    27     6    10   ar
    28    10    11    1
    29    10    12   ar
    30    12    13    2
    31    12     2   ar
    32     9     5   ar
    33    31    25   ar
    34    21    14    1
    35    20    22    1
    36    20    23    1
@<TRIPOS>MOLECULE
*****
 33 36 0 0 0
SMALL
GASTEIGER

@<TRIPOS>ATOM
      1 C          -0.6359    3.2014   18.5144 C.3     1  UNL1        0.1383
      2 N          -0.1100    2.5345   19.7509 N.ar    1  UNL1       -0.2455
      3 C          -0.3418    3.1578   21.0954 C.ar    1  UNL1        0.2816
      4 O          -1.0995    4.4478   21.2035 O.2     1  UNL1       -0.2652
      5 C           0.1841    2.4910   22.3319 C.ar    1  UNL1        0.1342
      6 C           0.9417    1.2009   22.2238 C.ar    1  UNL1        0.0871
      7 C           1.3373    0.7783   23.6076 C.ar    1  UNL1        0.0515
      8 C           0.8241    1.8072   24.5709 C.ar    1  UNL1        0.1142
      9 N           0.1114    2.8657   23.7825 N.ar    1  UNL1       -0.3068
     10 N           1.1736    0.5777   20.8793 N.ar    1  UNL1       -0.2776
     11 C           1.9312   -0.7124   20.7711 C.3     1  UNL1        0.1351
     12 C           0.6477    1.2445   19.6428 C.ar    1  UNL1        0.3339
     13 O           0.8795    0.6212   18.2982 O.2     1  UNL1       -0.2462
     14 N           0.9939    1.7821   26.0611 N.pl3   1  UNL1       -0.2932
     15 C           2.2409    2.3369   26.6833 C.3     1  UNL1        0.0922
     16 C           2.4105    2.3117   28.1735 C.3     1  UNL1        0.0228
     17 C           1.3333    1.7318   29.0414 C.3     1  UNL1        0.0177
     18 C           0.0863    1.1770   28.4191 C.3     1  UNL1        0.0575
     19 C          -1.2646    0.5362   28.3000 C.3     1  UNL1        0.0173
     20 N          -0.2132    0.9293   29.8679 N.3     1  UNL1       -0.3219
     21 C          -0.0833    1.2022   26.9289 C.3     1  UNL1        0.1062
     22 H           0.5646    1.2623   30.4376 H       1  UNL1        0.1188
     23 H          -0.3438   -0.0705   30.0220 H       1  UNL1        0.1188
     24 C          -0.5567    4.0848   24.3458 C.3     1  UNL1        0.1348
     25 C          -1.9797    4.0112   24.8145 C.ar    1  UNL1        0.0123
     26 C          -3.0720    3.6692   23.8449 C.ar    1  UNL1        0.0279
     27 C          -4.4949    3.5955   24.3136 C.ar    1  UNL1        0.1399
     28 F          -5.5872    3.2535   23.3441 F       1  UNL1       -0.2042
     29 C          -4.8257    3.8639   25.7520 C.ar    1  UNL1        0.0303
     30 C          -3.7335    4.2059   26.7215 C.ar    1  UNL1        0.0123
     31 C          -2.3105    4.2796   26.2528 C.ar    1  UNL1        0.0664
     32 C          -1.2183    4.6216   27.2223 C.1     1  UNL1        0.1002
     33 N          -0.1260    4.9636   28.1919 N.1     1  UNL1       -0.1908
@<TRIPOS>BOND
     1     1     2    1
     2     2     3   ar
     3     3     4    2
     4     3     5   ar
     5     5     6   ar
     6     6     7   ar
     7     7     8   ar
     8     8    14    1
     9    14    15    1
    10    15    16    1
    11    16    17    1
    12    17    18    1
    13    18    19    1
    14    18    20    1
    15    18    21    1
    16     8     9   ar
    17     9    24    1
    18    24    25    1
    19    25    26   ar
    20    26    27   ar
    21    27    28    1
    22    27    29   ar
    23    29    30   ar
    24    30    31   ar
    25    31    32    1
    26    32    33    3
    27     6    10   ar
    28    10    11    1
    29    10    12   ar
    30    12    13    2
    31    12     2   ar
    32     9     5   ar
    33    31    25   ar
    34    21    14    1
    35    20    22    1
    36    20    23    1
@<TRIPOS>MOLECULE
*****
 33 36 0 0 0
SMALL
GASTEIGER

@<TRIPOS>ATOM
      1 C           2.0405    0.9540   27.6096 C.3     1  UNL1        0.1383
      2 N           2.8684    0.0953   26.7000 N.ar    1  UNL1       -0.2455
      3 C           2.5929    0.0813   25.2256 C.ar    1  UNL1        0.2816
      4 O           1.4895    0.9260   24.6608 O.2     1  UNL1       -0.2652
      5 C           3.4207   -0.7773   24.3160 C.ar    1  UNL1        0.1342
      6 C           4.5241   -1.6220   24.8808 C.ar    1  UNL1        0.0871
      7 C           5.1684   -2.3622   23.7464 C.ar    1  UNL1        0.0515
      8 C           4.4631   -1.9750   22.4804 C.ar    1  UNL1        0.1142
      9 N           3.3830   -0.9955   22.8325 N.ar    1  UNL1       -0.3068
     10 N           4.7997   -1.6081   26.3552 N.ar    1  UNL1       -0.2776
     11 C           5.9031   -2.4528   26.9201 C.3     1  UNL1        0.1351
     12 C           3.9718   -0.7493   27.2648 C.ar    1  UNL1        0.3339
     13 O           4.2473   -0.7354   28.7393 O.2     1  UNL1       -0.2462
     14 N           4.7820   -2.4788   21.1040 N.pl3   1  UNL1       -0.2932
     15 C           4.1140   -3.7177   20.5854 C.3     1  UNL1        0.0922
     16 C           4.4329   -4.2214   19.2089 C.3     1  UNL1        0.0228
     17 C           5.4198   -3.4864   18.3511 C.3     1  UNL1        0.0177
     18 C           6.0878   -2.2475   18.8698 C.3     1  UNL1        0.0575
     19 C           6.9733   -1.0377   18.9160 C.3     1  UNL1        0.0173
     20 N           6.7142   -2.3311   17.5094 N.3     1  UNL1       -0.3219
     21 C           5.7688   -1.7438   20.2462 C.3     1  UNL1        0.1062
     22 H           6.3505   -3.1471   17.0172 H       1  UNL1        0.1188
     23 H           7.7262   -2.4152   17.6057 H       1  UNL1        0.1188
     24 C           2.4322   -0.3478   21.8699 C.3     1  UNL1        0.1348
     25 C           2.9485    0.2568   20.5980 C.ar    1  UNL1        0.0123
     26 C           2.7772   -0.4714   19.2978 C.ar    1  UNL1        0.0279
     27 C           3.2935    0.1333   18.0259 C.ar    1  UNL1        0.1399
     28 F           3.1223   -0.5949   16.7257 F       1  UNL1       -0.2042
     29 C           3.9812    1.4661   18.0541 C.ar    1  UNL1        0.0303
     30 C           4.1524    2.1943   19.3542 C.ar    1  UNL1        0.0123
     31 C           3.6361    1.5897   20.6262 C.ar    1  UNL1        0.0664
     32 C           3.8074    2.3178   21.9263 C.1     1  UNL1        0.1002
     33 N           3.9787    3.0460   23.2265 N.1     1  UNL1       -0.1908
@<TRIPOS>BOND
     1     1     2    1
     2     2     3   ar
     3     3     4    2
     4     3     5   ar
     5     5     6   ar
     6     6     7   ar
     7     7     8   ar
     8     8    14    1
     9    14    15    1
    10    15    16    1
    11    16    17    1
    12    17    18    1
    13    18    19    1
    14    18    20    1
    15    18    21    1
    16     8     9   ar
    17     9    24    1
    18    24    25    1
    19    25    26   ar
    20    26    27   ar
    21    27    28    1
    22    27    29   ar
    23    29    30   ar
    24    30    31   ar
    25    31    32    1
    26    32    33    3
    27     6    10   ar
    28    10    11    1
    29    10    12   ar
    30    12    13    2
    31    12     2   ar
    32     9     5   ar
    33    31    25   ar
    34    21    14    1
    35    20    22    1
    36    20    23    1
@<TRIPOS>MOLECULE
*****
 33 36 0 0 0
SMALL
GASTEIGER

@<TRIPOS>ATOM
      1 C           6.9827   -3.1387   27.9516 C.3     1  UNL1        0.1383
      2 N           6.0092   -2.3952   27.0858 N.ar    1  UNL1       -0.2455
      3 C           6.1572   -2.4261   25.5935 C.ar    1  UNL1        0.2816
      4 O           7.2787   -3.2005   24.9669 O.2     1  UNL1       -0.2652
      5 C           5.1838   -1.6826   24.7277 C.ar    1  UNL1        0.1342
      6 C           4.0623   -0.9082   25.3543 C.ar    1  UNL1        0.0871
      7 C           3.2624   -0.2776   24.2531 C.ar    1  UNL1        0.0515
      8 C           3.8896   -0.6623   22.9460 C.ar    1  UNL1        0.1142
      9 N           5.0770   -1.5306   23.2393 N.ar    1  UNL1       -0.3068
     10 N           3.9142   -0.8773   26.8466 N.ar    1  UNL1       -0.2776
     11 C           2.7928   -0.1029   27.4733 C.3     1  UNL1        0.1351
     12 C           4.8878   -1.6209   27.7124 C.ar    1  UNL1        0.3339
     13 O           4.7398   -1.5900   29.2048 O.2     1  UNL1       -0.2462
     14 N           3.4130   -0.2508   21.5845 N.pl3   1  UNL1       -0.2932
     15 C           2.2480   -0.9540   20.9535 C.3     1  UNL1        0.0922
     16 C           1.7715   -0.5425   19.5920 C.3     1  UNL1        0.0228
     17 C           2.4599    0.5721   18.8615 C.3     1  UNL1        0.0177
     18 C           3.6250    1.2753   19.4925 C.3     1  UNL1        0.0575
     19 C           4.7616    2.2374   19.6724 C.3     1  UNL1        0.0173
     20 N           3.5432    2.0209   18.1935 N.3     1  UNL1       -0.3219
     21 C           4.1015    0.8638   20.8540 C.3     1  UNL1        0.1062
     22 H           2.7754    1.6478   17.6351 H       1  UNL1        0.1188
     23 H           4.4194    1.9115   17.6830 H       1  UNL1        0.1188
     24 C           5.9963   -2.1399   22.2226 C.3     1  UNL1        0.1348
     25 C           5.4296   -2.8403   21.0233 C.ar    1  UNL1        0.0123
     26 C           4.5053   -4.0078   21.2039 C.ar    1  UNL1        0.0279
     27 C           3.9385   -4.7082   20.0047 C.ar    1  UNL1        0.1399
     28 F           3.0143   -5.8758   20.1852 F       1  UNL1       -0.2042
     29 C           4.2960   -4.2410   18.6247 C.ar    1  UNL1        0.0303
     30 C           5.2201   -3.0735   18.4442 C.ar    1  UNL1        0.0123
     31 C           5.7870   -2.3730   19.6434 C.ar    1  UNL1        0.0664
     32 C           6.7112   -1.2055   19.4629 C.1     1  UNL1        0.1002
     33 N           7.6354   -0.0380   19.2823 N.1     1  UNL1       -0.1908
@<TRIPOS>BOND
     1     1     2    1
     2     2     3   ar
     3     3     4    2
     4     3     5   ar
     5     5     6   ar
     6     6     7   ar
     7     7     8   ar
     8     8    14    1
     9    14    15    1
    10    15    16    1
    11    16    17    1
    12    17    18    1
    13    18    19    1
    14    18    20    1
    15    18    21    1
    16     8     9   ar
    17     9    24    1
    18    24    25    1
    19    25    26   ar
    20    26    27   ar
    21    27    28    1
    22    27    29   ar
    23    29    30   ar
    24    30    31   ar
    25    31    32    1
    26    32    33    3
    27     6    10   ar
    28    10    11    1
    29    10    12   ar
    30    12    13    2
    31    12     2   ar
    32     9     5   ar
    33    31    25   ar
    34    21    14    1
    35    20    22    1
    36    20    23    1
@<TRIPOS>MOLECULE
*****
 33 36 0 0 0
SMALL
GASTEIGER

@<TRIPOS>ATOM
      1 C           5.9588   -2.5248   29.0327 C.3     1  UNL1        0.1383
      2 N           6.2007   -3.0428   27.6458 N.ar    1  UNL1       -0.2455
      3 C           6.0027   -2.1413   26.4634 C.ar    1  UNL1        0.2816
      4 O           5.5628   -0.7219   26.6678 O.2     1  UNL1       -0.2652
      5 C           6.2446   -2.6593   25.0766 C.ar    1  UNL1        0.1342
      6 C           6.6845   -4.0787   24.8722 C.ar    1  UNL1        0.0871
      7 C           6.8445   -4.3068   23.3983 C.ar    1  UNL1        0.0515
      8 C           6.5035   -3.0283   22.6918 C.ar    1  UNL1        0.1142
      9 N           6.1327   -2.0101   23.7290 N.ar    1  UNL1       -0.3068
     10 N           6.8825   -4.9802   26.0546 N.ar    1  UNL1       -0.2776
     11 C           7.3224   -6.3996   25.8503 C.3     1  UNL1        0.1351
     12 C           6.6406   -4.4621   27.4415 C.ar    1  UNL1        0.3339
     13 O           6.8386   -5.3636   28.6240 O.2     1  UNL1       -0.2462
     14 N           6.5288   -2.8068   21.2084 N.pl3   1  UNL1       -0.2932
     15 C           7.7795   -2.3109   20.5454 C.3     1  UNL1        0.0922
     16 C           7.8048   -2.0895   19.0620 C.3     1  UNL1        0.0228
     17 C           6.5793   -2.3640   18.2417 C.3     1  UNL1        0.0177
     18 C           5.3286   -2.8599   18.9047 C.3     1  UNL1        0.0575
     19 C           3.9163   -3.3364   19.0729 C.3     1  UNL1        0.0173
     20 N           4.8634   -2.8040   17.4798 N.3     1  UNL1       -0.3219
     21 C           5.3034   -3.0813   20.3881 C.3     1  UNL1        0.1062
     22 H           5.6247   -2.4748   16.8863 H       1  UNL1        0.1188
     23 H           4.0728   -2.1638   17.4051 H       1  UNL1        0.1188
     24 C           5.7222   -0.5917   23.4650 C.3     1  UNL1        0.1348
     25 C           4.8931   -0.2631   22.2589 C.ar    1  UNL1        0.0123
     26 C           3.4845   -0.7687   22.1567 C.ar    1  UNL1        0.0279
     27 C           2.6554   -0.4401   20.9506 C.ar    1  UNL1        0.1399
     28 F           1.2469   -0.9457   20.8484 F       1  UNL1       -0.2042
     29 C           3.2348    0.3942   19.8468 C.ar    1  UNL1        0.0303
     30 C           4.6432    0.8998   19.9491 C.ar    1  UNL1        0.0123
     31 C           5.4724    0.5712   21.1551 C.ar    1  UNL1        0.0664
     32 C           6.8809    1.0768   21.2573 C.1     1  UNL1        0.1002
     33 N           8.2894    1.5824   21.3596 N.1     1  UNL1       -0.1908
@<TRIPOS>BOND
     1     1     2    1
     2     2     3   ar
     3     3     4    2
     4     3     5   ar
     5     5     6   ar
     6     6     7   ar
     7     7     8   ar
     8     8    14    1
     9    14    15    1
    10    15    16    1
    11    16    17    1
    12    17    18    1
    13    18    19    1
    14    18    20    1
    15    18    21    1
    16     8     9   ar
    17     9    24    1
    18    24    25    1
    19    25    26   ar
    20    26    27   ar
    21    27    28    1
    22    27    29   ar
    23    29    30   ar
    24    30    31   ar
    25    31    32    1
    26    32    33    3
    27     6    10   ar
    28    10    11    1
    29    10    12   ar
    30    12    13    2
    31    12     2   ar
    32     9     5   ar
    33    31    25   ar
    34    21    14    1
    35    20    22    1
    36    20    23    1
@<TRIPOS>MOLECULE
*****
 33 36 0 0 0
SMALL
GASTEIGER

@<TRIPOS>ATOM
      1 C           7.5946   -5.1676   25.4644 C.3     1  UNL1        0.1383
      2 N           6.6498   -4.0566   25.1135 N.ar    1  UNL1       -0.2455
      3 C           6.2439   -3.8402   23.6858 C.ar    1  UNL1        0.2816
      4 O           6.7829   -4.7348   22.6090 O.2     1  UNL1       -0.2652
      5 C           5.2991   -2.7293   23.3348 C.ar    1  UNL1        0.1342
      6 C           4.7601   -1.8348   24.4115 C.ar    1  UNL1        0.0871
      7 C           3.8519   -0.8296   23.7676 C.ar    1  UNL1        0.0515
      8 C           3.8296   -1.1028   22.2929 C.ar    1  UNL1        0.1142
      9 N           4.7240   -2.2769   22.0254 N.ar    1  UNL1       -0.3068
     10 N           5.1660   -2.0512   25.8393 N.ar    1  UNL1       -0.2776
     11 C           4.6271   -1.1567   26.9161 C.3     1  UNL1        0.1351
     12 C           6.1109   -3.1622   26.1902 C.ar    1  UNL1        0.3339
     13 O           6.5167   -3.3786   27.6180 O.2     1  UNL1       -0.2462
     14 N           3.0498   -0.3365   21.2659 N.pl3   1  UNL1       -0.2932
     15 C           1.6681   -0.7813   20.8877 C.3     1  UNL1        0.0922
     16 C           0.8883   -0.0149   19.8607 C.3     1  UNL1        0.0228
     17 C           1.4902    1.1963   19.2120 C.3     1  UNL1        0.0177
     18 C           2.8719    1.6411   19.5902 C.3     1  UNL1        0.0575
     19 C           4.1352    2.4495   19.6147 C.3     1  UNL1        0.0173
     20 N           2.5309    2.6882   18.5718 N.3     1  UNL1       -0.3219
     21 C           3.6517    0.8747   20.6172 C.3     1  UNL1        0.1062
     22 H           1.5926    2.5176   18.2098 H       1  UNL1        0.1188
     23 H           3.2031    2.6491   17.8057 H       1  UNL1        0.1188
     24 C           4.9955   -2.8908   20.6839 C.3     1  UNL1        0.1348
     25 C           5.2371   -2.0124   19.4923 C.ar    1  UNL1        0.0123
     26 C           4.2069   -1.9227   18.4056 C.ar    1  UNL1        0.0279
     27 C           4.4485   -1.0443   17.2139 C.ar    1  UNL1        0.1399
     28 F           3.4183   -0.9545   16.1273 F       1  UNL1       -0.2042
     29 C           5.7202   -0.2557   17.1088 C.ar    1  UNL1        0.0303
     30 C           6.7502   -0.3455   18.1954 C.ar    1  UNL1        0.0123
     31 C           6.5088   -1.2238   19.3872 C.ar    1  UNL1        0.0664
     32 C           7.5388   -1.3136   20.4738 C.1     1  UNL1        0.1002
     33 N           8.5690   -1.4034   21.5604 N.1     1  UNL1       -0.1908
@<TRIPOS>BOND
     1     1     2    1
     2     2     3   ar
     3     3     4    2
     4     3     5   ar
     5     5     6   ar
     6     6     7   ar
     7     7     8   ar
     8     8    14    1
     9    14    15    1
    10    15    16    1
    11    16    17    1
    12    17    18    1
    13    18    19    1
    14    18    20    1
    15    18    21    1
    16     8     9   ar
    17     9    24    1
    18    24    25    1
    19    25    26   ar
    20    26    27   ar
    21    27    28    1
    22    27    29   ar
    23    29    30   ar
    24    30    31   ar
    25    31    32    1
    26    32    33    3
    27     6    10   ar
    28    10    11    1
    29    10    12   ar
    30    12    13    2
    31    12     2   ar
    32     9     5   ar
    33    31    25   ar
    34    21    14    1
    35    20    22    1
    36    20    23    1
@<TRIPOS>MOLECULE
*****
 33 36 0 0 0
SMALL
GASTEIGER

@<TRIPOS>ATOM
      1 C           7.6817   -4.8923   24.7692 C.3     1  UNL1        0.1383
      2 N           6.6289   -3.8240   24.7457 N.ar    1  UNL1       -0.2455
      3 C           5.8767   -3.5400   23.4794 C.ar    1  UNL1        0.2816
      4 O           6.1774   -4.3243   22.2365 O.2     1  UNL1       -0.2652
      5 C           4.8240   -2.4718   23.4558 C.ar    1  UNL1        0.1342
      6 C           4.5233   -1.6876   24.6987 C.ar    1  UNL1        0.0871
      7 C           3.4393   -0.7027   24.3745 C.ar    1  UNL1        0.0515
      8 C           3.0700   -0.8783   22.9313 C.ar    1  UNL1        0.1142
      9 N           3.9258   -1.9717   22.3635 N.ar    1  UNL1       -0.3068
     10 N           5.2754   -1.9716   25.9650 N.ar    1  UNL1       -0.2776
     11 C           4.9748   -1.1873   27.2079 C.3     1  UNL1        0.1351
     12 C           6.3283   -3.0398   25.9885 C.ar    1  UNL1        0.3339
     13 O           7.0805   -3.3238   27.2549 O.2     1  UNL1       -0.2462
     14 N           2.0280   -0.0976   22.1866 N.pl3   1  UNL1       -0.2932
     15 C           1.6049   -0.5305   20.8142 C.3     1  UNL1        0.0922
     16 C           0.5628    0.2503   20.0695 C.3     1  UNL1        0.0228
     17 C          -0.0562    1.4638   20.6972 C.3     1  UNL1        0.0177
     18 C           0.3668    1.8967   22.0697 C.3     1  UNL1        0.0575
     19 C           0.4364    2.6972   23.3363 C.3     1  UNL1        0.0173
     20 N          -0.6511    2.9554   21.7649 N.3     1  UNL1       -0.3219
     21 C           1.4089    1.1159   22.8143 C.3     1  UNL1        0.1062
     22 H          -1.0422    2.7939   20.8368 H       1  UNL1        0.1188
     23 H          -0.2059    3.8727   21.7914 H       1  UNL1        0.1188
     24 C           3.8896   -2.4762   20.9514 C.3     1  UNL1        0.1348
     25 C           4.8614   -1.9446   19.9400 C.ar    1  UNL1        0.0123
     26 C           5.2318   -0.4910   19.9476 C.ar    1  UNL1        0.0279
     27 C           6.2035    0.0406   18.9361 C.ar    1  UNL1        0.1399
     28 F           6.5739    1.4942   18.9438 F       1  UNL1       -0.2042
     29 C           6.8049   -0.8813   17.9170 C.ar    1  UNL1        0.0303
     30 C           6.4345   -2.3347   17.9094 C.ar    1  UNL1        0.0123
     31 C           5.4627   -2.8665   18.9208 C.ar    1  UNL1        0.0664
     32 C           5.0923   -4.3199   18.9132 C.1     1  UNL1        0.1002
     33 N           4.7219   -5.7735   18.9056 N.1     1  UNL1       -0.1908
@<TRIPOS>BOND
     1     1     2    1
     2     2     3   ar
     3     3     4    2
     4     3     5   ar
     5     5     6   ar
     6     6     7   ar
     7     7     8   ar
     8     8    14    1
     9    14    15    1
    10    15    16    1
    11    16    17    1
    12    17    18    1
    13    18    19    1
    14    18    20    1
    15    18    21    1
    16     8     9   ar
    17     9    24    1
    18    24    25    1
    19    25    26   ar
    20    26    27   ar
    21    27    28    1
    22    27    29   ar
    23    29    30   ar
    24    30    31   ar
    25    31    32    1
    26    32    33    3
    27     6    10   ar
    28    10    11    1
    29    10    12   ar
    30    12    13    2
    31    12     2   ar
    32     9     5   ar
    33    31    25   ar
    34    21    14    1
    35    20    22    1
    36    20    23    1
@<TRIPOS>MOLECULE
*****
 33 36 0 0 0
SMALL
GASTEIGER

@<TRIPOS>ATOM
      1 C           2.7069    0.2434   28.1277 C.3     1  UNL1        0.1383
      2 N           2.6737    0.1360   26.6318 N.ar    1  UNL1       -0.2455
      3 C           3.5853   -0.8255   25.9287 C.ar    1  UNL1        0.2816
      4 O           4.5300   -1.6795   26.7212 O.2     1  UNL1       -0.2652
      5 C           3.5522   -0.9330   24.4329 C.ar    1  UNL1        0.1342
      6 C           2.6075   -0.0789   23.6403 C.ar    1  UNL1        0.0871
      7 C           2.7979   -0.4019   22.1879 C.ar    1  UNL1        0.0515
      8 C           3.8603   -1.4556   22.0829 C.ar    1  UNL1        0.1142
      9 N           4.3265   -1.7838   23.4703 N.ar    1  UNL1       -0.3068
     10 N           1.6959    0.8826   24.3435 N.ar    1  UNL1       -0.2776
     11 C           0.7511    1.7367   23.5510 C.3     1  UNL1        0.1351
     12 C           1.7291    0.9900   25.8393 C.ar    1  UNL1        0.3339
     13 O           0.8174    1.9516   26.5426 O.2     1  UNL1       -0.2462
     14 N           4.3675   -2.0728   20.8133 N.pl3   1  UNL1       -0.2932
     15 C           3.7731   -3.3562   20.3137 C.3     1  UNL1        0.0922
     16 C           4.2804   -3.9734   19.0440 C.3     1  UNL1        0.0228
     17 C           5.3819   -3.3072   18.2741 C.3     1  UNL1        0.0177
     18 C           5.9762   -2.0238   18.7738 C.3     1  UNL1        0.0575
     19 C           6.8524   -0.8081   18.8406 C.3     1  UNL1        0.0173
     20 N           6.7877   -2.2187   17.5274 N.3     1  UNL1       -0.3219
     21 C           5.4690   -1.4066   20.0434 C.3     1  UNL1        0.1062
     22 H           6.4930   -3.0763   17.0605 H       1  UNL1        0.1188
     23 H           7.7756   -2.2870   17.7721 H       1  UNL1        0.1188
     24 C           5.3816   -2.7868   23.8317 C.3     1  UNL1        0.1348
     25 C           6.6486   -2.8635   23.0325 C.ar    1  UNL1        0.0123
     26 C           6.9503   -4.0882   22.2206 C.ar    1  UNL1        0.0279
     27 C           8.2172   -4.1649   21.4213 C.ar    1  UNL1        0.1399
     28 F           8.5189   -5.3896   20.6094 F       1  UNL1       -0.2042
     29 C           9.1826   -3.0168   21.4339 C.ar    1  UNL1        0.0303
     30 C           8.8810   -1.7922   22.2457 C.ar    1  UNL1        0.0123
     31 C           7.6140   -1.7154   23.0450 C.ar    1  UNL1        0.0664
     32 C           7.3124   -0.4908   23.8569 C.1     1  UNL1        0.1002
     33 N           7.0107    0.7339   24.6688 N.1     1  UNL1       -0.1908
@<TRIPOS>BOND
     1     1     2    1
     2     2     3   ar
     3     3     4    2
     4     3     5   ar
     5     5     6   ar
     6     6     7   ar
     7     7     8   ar
     8     8    14    1
     9    14    15    1
    10    15    16    1
    11    16    17    1
    12    17    18    1
    13    18    19    1
    14    18    20    1
    15    18    21    1
    16     8     9   ar
    17     9    24    1
    18    24    25    1
    19    25    26   ar
    20    26    27   ar
    21    27    28    1
    22    27    29   ar
    23    29    30   ar
    24    30    31   ar
    25    31    32    1
    26    32    33    3
    27     6    10   ar
    28    10    11    1
    29    10    12   ar
    30    12    13    2
    31    12     2   ar
    32     9     5   ar
    33    31    25   ar
    34    21    14    1
    35    20    22    1
    36    20    23    1
@<TRIPOS>MOLECULE
*****
 33 36 0 0 0
SMALL
GASTEIGER

@<TRIPOS>ATOM
      1 C           0.4042    2.2115   26.2094 C.3     1  UNL1        0.1383
      2 N           1.3815    1.2841   25.5497 N.ar    1  UNL1       -0.2455
      3 C           1.3375    1.0814   24.0641 C.ar    1  UNL1        0.2816
      4 O           0.3164    1.8061   23.2382 O.2     1  UNL1       -0.2652
      5 C           2.3147    0.1541   23.4045 C.ar    1  UNL1        0.1342
      6 C           3.3358   -0.5705   24.2304 C.ar    1  UNL1        0.0871
      7 C           4.1639   -1.4150   23.3077 C.ar    1  UNL1        0.0515
      8 C           3.6545   -1.2122   21.9115 C.ar    1  UNL1        0.1142
      9 N           2.5116   -0.2424   21.9713 N.ar    1  UNL1       -0.3068
     10 N           3.3798   -0.3679   25.7160 N.ar    1  UNL1       -0.2776
     11 C           4.4009   -1.0926   26.5420 C.3     1  UNL1        0.1351
     12 C           2.4025    0.5595   26.3756 C.ar    1  UNL1        0.3339
     13 O           2.4464    0.7621   27.8613 O.2     1  UNL1       -0.2462
     14 N           4.1933   -1.8645   20.6730 N.pl3   1  UNL1       -0.2932
     15 C           3.5264   -3.0888   20.1194 C.3     1  UNL1        0.0922
     16 C           4.0653   -3.7412   18.8808 C.3     1  UNL1        0.0228
     17 C           5.2710   -3.1693   18.1958 C.3     1  UNL1        0.0177
     18 C           5.9378   -1.9450   18.7493 C.3     1  UNL1        0.0575
     19 C           6.9089   -0.8105   18.8897 C.3     1  UNL1        0.0173
     20 N           6.8139   -2.2033   17.5595 N.3     1  UNL1       -0.3219
     21 C           5.3989   -1.2927   19.9879 C.3     1  UNL1        0.1062
     22 H           6.4794   -3.0297   17.0639 H       1  UNL1        0.1188
     23 H           7.7729   -2.3585   17.8706 H       1  UNL1        0.1188
     24 C           1.7070    0.2452   20.8030 C.3     1  UNL1        0.1348
     25 C           2.1923    1.4100   19.9921 C.ar    1  UNL1        0.0123
     26 C           3.6198    1.4624   19.5343 C.ar    1  UNL1        0.0279
     27 C           4.1050    2.6272   18.7233 C.ar    1  UNL1        0.1399
     28 F           5.5325    2.6796   18.2655 F       1  UNL1       -0.2042
     29 C           3.1628    3.7397   18.3700 C.ar    1  UNL1        0.0303
     30 C           1.7354    3.6872   18.8278 C.ar    1  UNL1        0.0123
     31 C           1.2500    2.5224   19.6388 C.ar    1  UNL1        0.0664
     32 C          -0.1774    2.4700   20.0966 C.1     1  UNL1        0.1002
     33 N          -1.6049    2.4176   20.5543 N.1     1  UNL1       -0.1908
@<TRIPOS>BOND
     1     1     2    1
     2     2     3   ar
     3     3     4    2
     4     3     5   ar
     5     5     6   ar
     6     6     7   ar
     7     7     8   ar
     8     8    14    1
     9    14    15    1
    10    15    16    1
    11    16    17    1
    12    17    18    1
    13    18    19    1
    14    18    20    1
    15    18    21    1
    16     8     9   ar
    17     9    24    1
    18    24    25    1
    19    25    26   ar
    20    26    27   ar
    21    27    28    1
    22    27    29   ar
    23    29    30   ar
    24    30    31   ar
    25    31    32    1
    26    32    33    3
    27     6    10   ar
    28    10    11    1
    29    10    12   ar
    30    12    13    2
    31    12     2   ar
    32     9     5   ar
    33    31    25   ar
    34    21    14    1
    35    20    22    1
    36    20    23    1
