@<TRIPOS>MOLECULE
*****
 23 27 0 0 0
SMALL
GASTEIGER

@<TRIPOS>ATOM
      1 N          -7.4550  -19.1892   21.5579 N.am    1  UNL1       -0.2214
      2 C          -6.0576  -19.1728   22.1029 C.3     1  UNL1        0.1428
      3 C          -5.1073  -19.1726   20.9423 C.3     1  UNL1        0.1706
      4 C          -4.2836  -19.1741   19.6888 C.3     1  UNL1        0.1145
      5 N          -2.7861  -19.1600   19.7754 N.3     1  UNL1       -0.2697
      6 C          -2.1124  -19.1445   21.1155 C.3     1  UNL1        0.0723
      7 C          -2.9362  -19.1429   22.3690 C.3     1  UNL1        0.0209
      8 C          -4.4336  -19.1570   22.2824 C.3     1  UNL1        0.0427
      9 C          -4.4085  -19.1660   20.9827 C.3     1  UNL1        0.0209
     10 C          -3.9692  -19.1668   20.3142 C.3     1  UNL1        0.0723
     11 O          -5.9174  -19.1888   19.6800 O.3     1  UNL1       -0.4384
     12 C          -7.3683  -19.1991   20.0604 C.2     1  UNL1        0.4086
     13 O          -8.5288  -19.2163   19.1102 O.2     1  UNL1       -0.2258
     14 C         -12.5511  -16.2347   21.8614 C.3     1  UNL1        0.0344
     15 C         -12.3002  -17.3590   22.8221 C.ar    1  UNL1        0.0187
     16 C         -13.2400  -17.8311   23.8916 C.ar    1  UNL1        0.1753
     17 O         -12.5860  -18.9725   24.6124 O.2     1  UNL1       -0.4508
     18 C         -11.2421  -19.2059   23.9883 C.ar    1  UNL1        0.1452
     19 C         -10.1564  -20.1975   24.2847 C.ar    1  UNL1        0.0388
     20 C          -8.8940  -20.1920   23.4746 C.ar    1  UNL1        0.0181
     21 C          -8.7174  -19.1948   22.3680 C.ar    1  UNL1        0.0573
     22 C          -9.8031  -18.2031   22.0717 C.ar    1  UNL1        0.0178
     23 C         -11.0654  -18.2087   22.8819 C.ar    1  UNL1        0.0349
@<TRIPOS>BOND
     1    14    15    1
     2    15    16   ar
     3    16    17   ar
     4    17    18   ar
     5    18    19   ar
     6    19    20   ar
     7    20    21   ar
     8    21     1    1
     9     1     2    1
    10     3     2    1
    11     3     4    1
    12     4     5    1
    13     5     6    1
    14     6     7    1
    15     7     8    1
    16     8     9    1
    17     9    10    1
    18     3    11    1
    19    11    12    1
    20    12    13    2
    21    21    22   ar
    22    22    23   ar
    23    23    15   ar
    24    23    18   ar
    25    12     1   am
    26     8     3    1
    27    10     5    1
@<TRIPOS>MOLECULE
*****
 23 27 0 0 0
SMALL
GASTEIGER

@<TRIPOS>ATOM
      1 N          -8.1519  -17.1152   22.6640 N.am    1  UNL1       -0.2214
      2 C          -9.2326  -17.9027   23.3437 C.3     1  UNL1        0.1428
      3 C         -10.5476  -17.2538   23.0280 C.3     1  UNL1        0.1706
      4 C         -11.7812  -16.4999   22.6285 C.3     1  UNL1        0.1145
      5 N         -13.1277  -16.9590   23.1042 N.3     1  UNL1       -0.2697
      6 C         -13.2405  -18.1721   23.9792 C.3     1  UNL1        0.0723
      7 C         -12.0068  -18.9260   24.3786 C.3     1  UNL1        0.0209
      8 C         -10.6604  -18.4669   23.9030 C.3     1  UNL1        0.0427
      9 C         -11.1759  -17.4681   23.2499 C.3     1  UNL1        0.0209
     10 C         -11.8339  -17.0660   23.0369 C.3     1  UNL1        0.0723
     11 O         -10.2796  -16.0652   22.1531 O.3     1  UNL1       -0.4384
     12 C          -8.7991  -15.9795   21.9282 C.2     1  UNL1        0.4086
     13 O          -8.0902  -14.9405   21.1109 O.2     1  UNL1       -0.2258
     14 C          -4.2672  -20.7461   20.1112 C.3     1  UNL1        0.0344
     15 C          -3.7849  -19.7665   21.1397 C.ar    1  UNL1        0.0187
     16 C          -2.3688  -19.6041   21.6068 C.ar    1  UNL1        0.1753
     17 O          -2.3428  -18.5146   22.6374 O.2     1  UNL1       -0.4508
     18 C          -3.7429  -18.0035   22.8072 C.ar    1  UNL1        0.1452
     19 C          -4.3213  -16.9337   23.6852 C.ar    1  UNL1        0.0388
     20 C          -5.7909  -16.6375   23.6375 C.ar    1  UNL1        0.0181
     21 C          -6.6822  -17.4113   22.7118 C.ar    1  UNL1        0.0573
     22 C          -6.1038  -18.4811   21.8338 C.ar    1  UNL1        0.0178
     23 C          -4.6341  -18.7773   21.8816 C.ar    1  UNL1        0.0349
@<TRIPOS>BOND
     1    14    15    1
     2    15    16   ar
     3    16    17   ar
     4    17    18   ar
     5    18    19   ar
     6    19    20   ar
     7    20    21   ar
     8    21     1    1
     9     1     2    1
    10     3     2    1
    11     3     4    1
    12     4     5    1
    13     5     6    1
    14     6     7    1
    15     7     8    1
    16     8     9    1
    17     9    10    1
    18     3    11    1
    19    11    12    1
    20    12    13    2
    21    21    22   ar
    22    22    23   ar
    23    23    15   ar
    24    23    18   ar
    25    12     1   am
    26     8     3    1
    27    10     5    1
@<TRIPOS>MOLECULE
*****
 23 27 0 0 0
SMALL
GASTEIGER

@<TRIPOS>ATOM
      1 N          -6.8329  -19.6146   20.8619 N.am    1  UNL1       -0.2214
      2 C          -5.7355  -18.8722   21.5651 C.3     1  UNL1        0.1428
      3 C          -4.4352  -19.5412   21.2309 C.3     1  UNL1        0.1706
      4 C          -3.2185  -20.3108   20.8099 C.3     1  UNL1        0.1145
      5 N          -1.8625  -19.8966   21.2995 N.3     1  UNL1       -0.2697
      6 C          -1.7231  -18.7129   22.2101 C.3     1  UNL1        0.0723
      7 C          -2.9398  -17.9432   22.6310 C.3     1  UNL1        0.0209
      8 C          -4.2959  -18.3574   22.1414 C.3     1  UNL1        0.0427
      9 C          -3.8024  -19.3479   21.4594 C.3     1  UNL1        0.0209
     10 C          -3.1535  -19.7584   21.2348 C.3     1  UNL1        0.0723
     11 O          -4.7290  -20.6971   20.3211 O.3     1  UNL1       -0.4384
     12 C          -6.2109  -20.7425   20.0931 C.2     1  UNL1        0.4086
     13 O          -6.9422  -21.7405   19.2451 O.2     1  UNL1       -0.2258
     14 C         -10.9938  -18.5438   24.9032 C.3     1  UNL1        0.0344
     15 C         -11.3623  -18.5134   23.4495 C.ar    1  UNL1        0.0187
     16 C         -12.7253  -18.2296   22.8912 C.ar    1  UNL1        0.1753
     17 O         -12.6379  -18.3023   21.3956 O.2     1  UNL1       -0.4508
     18 C         -11.2208  -18.6310   21.0294 C.ar    1  UNL1        0.1452
     19 C         -10.5465  -18.8284   19.7041 C.ar    1  UNL1        0.0388
     20 C          -9.0839  -19.1563   19.6482 C.ar    1  UNL1        0.0181
     21 C          -8.2956  -19.2868   20.9177 C.ar    1  UNL1        0.0573
     22 C          -8.9698  -19.0894   22.2429 C.ar    1  UNL1        0.0178
     23 C         -10.4325  -18.7615   22.2988 C.ar    1  UNL1        0.0349
@<TRIPOS>BOND
     1    14    15    1
     2    15    16   ar
     3    16    17   ar
     4    17    18   ar
     5    18    19   ar
     6    19    20   ar
     7    20    21   ar
     8    21     1    1
     9     1     2    1
    10     3     2    1
    11     3     4    1
    12     4     5    1
    13     5     6    1
    14     6     7    1
    15     7     8    1
    16     8     9    1
    17     9    10    1
    18     3    11    1
    19    11    12    1
    20    12    13    2
    21    21    22   ar
    22    22    23   ar
    23    23    15   ar
    24    23    18   ar
    25    12     1   am
    26     8     3    1
    27    10     5    1
@<TRIPOS>MOLECULE
*****
 23 27 0 0 0
SMALL
GASTEIGER

@<TRIPOS>ATOM
      1 N          -7.0200  -17.5115   22.9884 N.am    1  UNL1       -0.2214
      2 C          -6.1113  -18.5120   22.3378 C.3     1  UNL1        0.1428
      3 C          -4.6959  -18.0741   22.5725 C.3     1  UNL1        0.1706
      4 C          -3.3402  -17.5138   22.8853 C.3     1  UNL1        0.1145
      5 N          -2.1073  -18.2226   22.4082 N.3     1  UNL1       -0.2697
      6 C          -2.2302  -19.4917   21.6182 C.3     1  UNL1        0.0723
      7 C          -3.5859  -20.0521   21.3054 C.3     1  UNL1        0.0209
      8 C          -4.8188  -19.3433   21.7825 C.3     1  UNL1        0.0427
      9 C          -4.1206  -18.4049   22.3498 C.3     1  UNL1        0.0209
     10 C          -3.3975  -18.1060   22.5166 C.3     1  UNL1        0.0723
     11 O          -4.7300  -16.8029   23.3680 O.3     1  UNL1       -0.4384
     12 C          -6.1663  -16.4552   23.6251 C.2     1  UNL1        0.4086
     13 O          -6.6619  -15.2609   24.3853 O.2     1  UNL1       -0.2258
     14 C         -11.5416  -15.9137   19.5542 C.3     1  UNL1        0.0344
     15 C         -11.8223  -16.5808   20.8681 C.ar    1  UNL1        0.0187
     16 C         -13.1789  -16.8974   21.4240 C.ar    1  UNL1        0.1753
     17 O         -12.9906  -17.5607   22.7562 O.2     1  UNL1       -0.4508
     18 C         -11.5175  -17.6539   23.0235 C.ar    1  UNL1        0.1452
     19 C         -10.7404  -18.2121   24.1788 C.ar    1  UNL1        0.0388
     20 C          -9.2413  -18.1646   24.1671 C.ar    1  UNL1        0.0181
     21 C          -8.5192  -17.5590   23.0001 C.ar    1  UNL1        0.0573
     22 C          -9.2963  -17.0009   21.8449 C.ar    1  UNL1        0.0178
     23 C         -10.7955  -17.0484   21.8566 C.ar    1  UNL1        0.0349
@<TRIPOS>BOND
     1    14    15    1
     2    15    16   ar
     3    16    17   ar
     4    17    18   ar
     5    18    19   ar
     6    19    20   ar
     7    20    21   ar
     8    21     1    1
     9     1     2    1
    10     3     2    1
    11     3     4    1
    12     4     5    1
    13     5     6    1
    14     6     7    1
    15     7     8    1
    16     8     9    1
    17     9    10    1
    18     3    11    1
    19    11    12    1
    20    12    13    2
    21    21    22   ar
    22    22    23   ar
    23    23    15   ar
    24    23    18   ar
    25    12     1   am
    26     8     3    1
    27    10     5    1
@<TRIPOS>MOLECULE
*****
 23 27 0 0 0
SMALL
GASTEIGER

@<TRIPOS>ATOM
      1 N          -6.6852  -19.5074   21.8658 N.am    1  UNL1       -0.2214
      2 C          -5.4864  -18.8312   22.4621 C.3     1  UNL1        0.1428
      3 C          -4.2704  -19.3083   21.7247 C.3     1  UNL1        0.1706
      4 C          -3.1516  -19.8734   20.9009 C.3     1  UNL1        0.1145
      5 N          -1.7367  -19.4532   21.1685 N.3     1  UNL1       -0.2697
      6 C          -1.4407  -18.4678   22.2600 C.3     1  UNL1        0.0723
      7 C          -2.5596  -17.9027   23.0839 C.3     1  UNL1        0.0209
      8 C          -3.9744  -18.3230   22.8162 C.3     1  UNL1        0.0427
      9 C          -3.6101  -19.1122   21.8496 C.3     1  UNL1        0.0209
     10 C          -3.0134  -19.4136   21.4102 C.3     1  UNL1        0.0723
     11 O          -4.7177  -20.2795   20.6728 O.3     1  UNL1       -0.4384
     12 C          -6.2101  -20.4026   20.7599 C.2     1  UNL1        0.4086
     13 O          -7.0755  -21.2688   19.8934 O.2     1  UNL1       -0.2258
     14 C         -11.2382  -15.9294   20.7436 C.3     1  UNL1        0.0344
     15 C         -11.4070  -17.0349   21.7433 C.ar    1  UNL1        0.0187
     16 C         -12.6548  -17.3405   22.5175 C.ar    1  UNL1        0.1753
     17 O         -12.3766  -18.5233   23.3969 O.2     1  UNL1       -0.4508
     18 C         -10.9567  -18.9488   23.1663 C.ar    1  UNL1        0.1452
     19 C         -10.1321  -20.0549   23.7548 C.ar    1  UNL1        0.0388
     20 C          -8.7083  -20.2412   23.3214 C.ar    1  UNL1        0.0181
     21 C          -8.1090  -19.3212   22.2993 C.ar    1  UNL1        0.0573
     22 C          -8.9336  -18.2151   21.7108 C.ar    1  UNL1        0.0178
     23 C         -10.3575  -18.0289   22.1443 C.ar    1  UNL1        0.0349
@<TRIPOS>BOND
     1    14    15    1
     2    15    16   ar
     3    16    17   ar
     4    17    18   ar
     5    18    19   ar
     6    19    20   ar
     7    20    21   ar
     8    21     1    1
     9     1     2    1
    10     3     2    1
    11     3     4    1
    12     4     5    1
    13     5     6    1
    14     6     7    1
    15     7     8    1
    16     8     9    1
    17     9    10    1
    18     3    11    1
    19    11    12    1
    20    12    13    2
    21    21    22   ar
    22    22    23   ar
    23    23    15   ar
    24    23    18   ar
    25    12     1   am
    26     8     3    1
    27    10     5    1
@<TRIPOS>MOLECULE
*****
 23 27 0 0 0
SMALL
GASTEIGER

@<TRIPOS>ATOM
      1 N          -7.9568  -19.3433   21.2938 N.am    1  UNL1       -0.2214
      2 C          -8.7115  -19.1872   22.5807 C.3     1  UNL1        0.1428
      3 C         -10.1522  -18.9374   22.2460 C.3     1  UNL1        0.1706
      4 C         -11.5509  -18.6977   21.7602 C.3     1  UNL1        0.1145
      5 N         -12.6609  -18.4838   22.7461 N.3     1  UNL1       -0.2697
      6 C         -12.3722  -18.5096   24.2178 C.3     1  UNL1        0.0723
      7 C         -10.9735  -18.7494   24.7036 C.3     1  UNL1        0.0209
      8 C          -9.8635  -18.9633   23.7177 C.3     1  UNL1        0.0427
      9 C         -10.6702  -18.8376   22.7061 C.3     1  UNL1        0.0209
     10 C         -11.4162  -18.7098   22.4470 C.3     1  UNL1        0.0723
     11 O         -10.2879  -18.9391   20.7521 O.3     1  UNL1       -0.4384
     12 C          -8.9311  -19.1899   20.1637 C.2     1  UNL1        0.4086
     13 O          -8.6058  -19.2728   18.7017 O.2     1  UNL1       -0.2258
     14 C          -2.8519  -17.1140   23.2333 C.3     1  UNL1        0.0344
     15 C          -2.8296  -18.3061   22.3231 C.ar    1  UNL1        0.0187
     16 C          -1.6039  -19.0195   21.8345 C.ar    1  UNL1        0.1753
     17 O          -2.0459  -20.1484   20.9512 O.2     1  UNL1       -0.4508
     18 C          -3.5448  -20.1328   20.8940 C.ar    1  UNL1        0.1452
     19 C          -4.5311  -21.0082   20.1793 C.ar    1  UNL1        0.0388
     20 C          -6.0018  -20.7451   20.3126 C.ar    1  UNL1        0.0181
     21 C          -6.4861  -19.6065   21.1605 C.ar    1  UNL1        0.0573
     22 C          -5.4998  -18.7310   21.8752 C.ar    1  UNL1        0.0178
     23 C          -4.0291  -18.9942   21.7419 C.ar    1  UNL1        0.0349
@<TRIPOS>BOND
     1    14    15    1
     2    15    16   ar
     3    16    17   ar
     4    17    18   ar
     5    18    19   ar
     6    19    20   ar
     7    20    21   ar
     8    21     1    1
     9     1     2    1
    10     3     2    1
    11     3     4    1
    12     4     5    1
    13     5     6    1
    14     6     7    1
    15     7     8    1
    16     8     9    1
    17     9    10    1
    18     3    11    1
    19    11    12    1
    20    12    13    2
    21    21    22   ar
    22    22    23   ar
    23    23    15   ar
    24    23    18   ar
    25    12     1   am
    26     8     3    1
    27    10     5    1
@<TRIPOS>MOLECULE
*****
 23 27 0 0 0
SMALL
GASTEIGER

@<TRIPOS>ATOM
      1 N          -7.9178  -18.9099   20.7473 N.am    1  UNL1       -0.2214
      2 C          -8.7553  -17.9900   21.5854 C.3     1  UNL1        0.1428
      3 C         -10.1474  -17.9926   21.0268 C.3     1  UNL1        0.1706
      4 C         -11.4871  -18.0963   20.3602 C.3     1  UNL1        0.1145
      5 N         -12.6518  -17.3147   20.8917 N.3     1  UNL1       -0.2697
      6 C         -12.4769  -16.4294   22.0898 C.3     1  UNL1        0.0723
      7 C         -11.1372  -16.3256   22.7564 C.3     1  UNL1        0.0209
      8 C          -9.9725  -17.1073   22.2250 C.3     1  UNL1        0.0427
      9 C         -10.6910  -17.6278   21.2749 C.3     1  UNL1        0.0209
     10 C         -11.4055  -17.6831   20.9193 C.3     1  UNL1        0.0723
     11 O         -10.1703  -18.9140   19.8434 O.3     1  UNL1       -0.4384
     12 C          -8.7923  -19.4809   19.6706 C.2     1  UNL1        0.4086
     13 O          -8.3641  -20.4489   18.6078 O.2     1  UNL1       -0.2258
     14 C          -2.7174  -17.4681   18.3663 C.3     1  UNL1        0.0344
     15 C          -2.7503  -18.4070   19.5357 C.ar    1  UNL1        0.0187
     16 C          -1.5595  -19.0427   20.1897 C.ar    1  UNL1        0.1753
     17 O          -2.0530  -19.9035   21.3146 O.2     1  UNL1       -0.4508
     18 C          -3.5490  -19.7998   21.3558 C.ar    1  UNL1        0.1452
     19 C          -4.5743  -20.4281   22.2524 C.ar    1  UNL1        0.0388
     20 C          -6.0306  -20.1315   22.0496 C.ar    1  UNL1        0.0181
     21 C          -6.4615  -19.2065   20.9502 C.ar    1  UNL1        0.0573
     22 C          -5.4362  -18.5782   20.0536 C.ar    1  UNL1        0.0178
     23 C          -3.9799  -18.8749   20.2565 C.ar    1  UNL1        0.0349
@<TRIPOS>BOND
     1    14    15    1
     2    15    16   ar
     3    16    17   ar
     4    17    18   ar
     5    18    19   ar
     6    19    20   ar
     7    20    21   ar
     8    21     1    1
     9     1     2    1
    10     3     2    1
    11     3     4    1
    12     4     5    1
    13     5     6    1
    14     6     7    1
    15     7     8    1
    16     8     9    1
    17     9    10    1
    18     3    11    1
    19    11    12    1
    20    12    13    2
    21    21    22   ar
    22    22    23   ar
    23    23    15   ar
    24    23    18   ar
    25    12     1   am
    26     8     3    1
    27    10     5    1
@<TRIPOS>MOLECULE
*****
 23 27 0 0 0
SMALL
GASTEIGER

@<TRIPOS>ATOM
      1 N          -8.4514  -17.8855   21.9272 N.am    1  UNL1       -0.2214
      2 C          -9.6934  -18.5270   22.4710 C.3     1  UNL1        0.1428
      3 C         -10.7255  -17.4546   22.6576 C.3     1  UNL1        0.1706
      4 C         -11.6504  -16.2812   22.7897 C.3     1  UNL1        0.1145
      5 N         -13.0423  -16.4785   23.3129 N.3     1  UNL1       -0.2697
      6 C         -13.5093  -17.8492   23.7040 C.3     1  UNL1        0.0723
      7 C         -12.5844  -19.0227   23.5718 C.3     1  UNL1        0.0209
      8 C         -11.1925  -18.8254   23.0486 C.3     1  UNL1        0.0427
      9 C         -11.3750  -17.5467   22.9017 C.3     1  UNL1        0.0209
     10 C         -11.8683  -16.9209   22.9722 C.3     1  UNL1        0.0723
     11 O         -10.1212  -16.1503   22.2291 O.3     1  UNL1       -0.4384
     12 C          -8.7157  -16.4166   21.7777 C.2     1  UNL1        0.4086
     13 O          -7.7451  -15.3935   21.2666 O.2     1  UNL1       -0.2258
     14 C          -2.7253  -17.5857   23.3106 C.3     1  UNL1        0.0344
     15 C          -3.1890  -18.6333   22.3424 C.ar    1  UNL1        0.0187
     16 C          -2.3219  -19.6510   21.6625 C.ar    1  UNL1        0.1753
     17 O          -3.1983  -20.4938   20.7840 O.2     1  UNL1       -0.4508
     18 C          -4.6070  -19.9969   20.9211 C.ar    1  UNL1        0.1452
     19 C          -5.8942  -20.4430   20.2933 C.ar    1  UNL1        0.0388
     20 C          -7.1757  -19.7392   20.6286 C.ar    1  UNL1        0.0181
     21 C          -7.1699  -18.5893   21.5918 C.ar    1  UNL1        0.0573
     22 C          -5.8827  -18.1433   22.2196 C.ar    1  UNL1        0.0178
     23 C          -4.6013  -18.8471   21.8842 C.ar    1  UNL1        0.0349
@<TRIPOS>BOND
     1    14    15    1
     2    15    16   ar
     3    16    17   ar
     4    17    18   ar
     5    18    19   ar
     6    19    20   ar
     7    20    21   ar
     8    21     1    1
     9     1     2    1
    10     3     2    1
    11     3     4    1
    12     4     5    1
    13     5     6    1
    14     6     7    1
    15     7     8    1
    16     8     9    1
    17     9    10    1
    18     3    11    1
    19    11    12    1
    20    12    13    2
    21    21    22   ar
    22    22    23   ar
    23    23    15   ar
    24    23    18   ar
    25    12     1   am
    26     8     3    1
    27    10     5    1
@<TRIPOS>MOLECULE
*****
 23 27 0 0 0
SMALL
GASTEIGER

@<TRIPOS>ATOM
      1 N          -6.9167  -17.0553   22.7825 N.am    1  UNL1       -0.2214
      2 C          -6.0699  -18.1243   22.1579 C.3     1  UNL1        0.1428
      3 C          -4.6519  -17.9078   22.5965 C.3     1  UNL1        0.1706
      4 C          -3.2866  -17.5677   23.1163 C.3     1  UNL1        0.1145
      5 N          -2.1056  -18.4067   22.7275 N.3     1  UNL1       -0.2697
      6 C          -2.2899  -19.5859   21.8189 C.3     1  UNL1        0.0723
      7 C          -3.6552  -19.9261   21.2992 C.3     1  UNL1        0.0209
      8 C          -4.8362  -19.0870   21.6880 C.3     1  UNL1        0.0427
      9 C          -4.1008  -18.2994   22.4151 C.3     1  UNL1        0.0209
     10 C          -3.3726  -18.1180   22.6923 C.3     1  UNL1        0.0723
     11 O          -4.6223  -16.7050   23.4922 O.3     1  UNL1       -0.4384
     12 C          -6.0220  -16.1780   23.6072 C.2     1  UNL1        0.4086
     13 O          -6.4516  -14.9836   24.4064 O.2     1  UNL1       -0.2258
     14 C         -11.9131  -19.2844   24.9867 C.3     1  UNL1        0.0344
     15 C         -11.9906  -18.2251   23.9276 C.ar    1  UNL1        0.0187
     16 C         -13.2480  -17.6498   23.3464 C.ar    1  UNL1        0.1753
     17 O         -12.8588  -16.6243   22.3233 O.2     1  UNL1       -0.4508
     18 C         -11.3607  -16.5659   22.2721 C.ar    1  UNL1        0.1452
     19 C         -10.4160  -15.7396   21.4507 C.ar    1  UNL1        0.0388
     20 C          -8.9346  -15.9027   21.6208 C.ar    1  UNL1        0.0181
     21 C          -8.3981  -16.8921   22.6124 C.ar    1  UNL1        0.0573
     22 C          -9.3428  -17.7184   23.4337 C.ar    1  UNL1        0.0178
     23 C         -10.8242  -17.5552   23.2635 C.ar    1  UNL1        0.0349
@<TRIPOS>BOND
     1    14    15    1
     2    15    16   ar
     3    16    17   ar
     4    17    18   ar
     5    18    19   ar
     6    19    20   ar
     7    20    21   ar
     8    21     1    1
     9     1     2    1
    10     3     2    1
    11     3     4    1
    12     4     5    1
    13     5     6    1
    14     6     7    1
    15     7     8    1
    16     8     9    1
    17     9    10    1
    18     3    11    1
    19    11    12    1
    20    12    13    2
    21    21    22   ar
    22    22    23   ar
    23    23    15   ar
    24    23    18   ar
    25    12     1   am
    26     8     3    1
    27    10     5    1
