@<TRIPOS>MOLECULE
*****
 21 23 0 0 0
SMALL
GASTEIGER

@<TRIPOS>ATOM
      1 C          -8.4019  -17.6686   21.9714 C.ar    1  UNL1        0.0266
      2 C          -9.2596  -16.6993   22.7295 C.ar    1  UNL1        0.0994
      3 N          -8.6560  -15.8463   23.8055 N.ar    1  UNL1       -0.2423
      4 C          -7.1947  -15.9625   24.1235 C.ar    1  UNL1        0.0985
      5 C          -6.3260  -15.2582   25.1232 C.ar    1  UNL1        0.0392
      6 C          -4.9313  -15.7923   24.9830 C.ar    1  UNL1        0.0779
      7 N          -4.9382  -16.8266   23.8966 N.ar    1  UNL1       -0.3165
      8 C          -6.3370  -16.9318   23.3654 C.ar    1  UNL1        0.0782
      9 C          -6.9406  -17.7848   22.2894 C.ar    1  UNL1        0.0208
     10 C          -8.9362  -21.0570   17.9571 C.3     1  UNL1        0.0316
     11 C          -9.2511  -20.0792   19.0502 C.ar    1  UNL1       -0.0149
     12 C         -10.6176  -19.5900   19.4288 C.ar    1  UNL1        0.0312
     13 S         -10.4658  -18.6275   20.5692 S.2     1  UNL1       -0.0867
     14 C          -9.0055  -18.5218   20.8954 C.ar    1  UNL1        0.0307
     15 C          -8.2548  -19.4190   19.9566 C.ar    1  UNL1        0.0028
     16 C          -3.7540  -17.6170   23.4243 C.3     1  UNL1        0.1920
     17 C          -2.9537  -17.1392   22.2490 C.2     1  UNL1        0.2488
     18 O          -2.8208  -15.6695   21.9799 O.2     1  UNL1       -0.2728
     19 N          -2.2863  -18.1309   21.3430 N.am    1  UNL1       -0.2744
     20 C          -1.4860  -17.6531   20.1677 C.3     1  UNL1        0.1150
     21 C          -2.4192  -19.6006   21.6121 C.3     1  UNL1        0.1150
@<TRIPOS>BOND
     1    10    11    1
     2    11    12   ar
     3    12    13   ar
     4    13    14   ar
     5    14     1    1
     6     1     2   ar
     7     2     3   ar
     8     3     4   ar
     9     4     5   ar
    10     5     6   ar
    11     6     7   ar
    12     7    16    1
    13    16    17    1
    14    17    18    2
    15    17    19   am
    16    19    20    1
    17    19    21    1
    18     7     8   ar
    19     8     9   ar
    20    14    15   ar
    21    15    11   ar
    22     9     1   ar
    23     8     4   ar
@<TRIPOS>MOLECULE
*****
 21 23 0 0 0
SMALL
GASTEIGER

@<TRIPOS>ATOM
      1 C          -6.5276  -19.1246   20.7081 C.ar    1  UNL1        0.0266
      2 C          -7.1029  -19.9843   19.6219 C.ar    1  UNL1        0.0994
      3 N          -8.5855  -20.0158   19.3965 N.ar    1  UNL1       -0.2423
      4 C          -9.4928  -19.1875   20.2572 C.ar    1  UNL1        0.0985
      5 C         -10.9830  -19.0157   20.2703 C.ar    1  UNL1        0.0392
      6 C         -11.3285  -18.0498   21.3646 C.ar    1  UNL1        0.0779
      7 N         -10.0520  -17.6247   22.0278 N.ar    1  UNL1       -0.3165
      8 C          -8.9175  -18.3278   21.3434 C.ar    1  UNL1        0.0782
      9 C          -7.4349  -18.2963   21.5688 C.ar    1  UNL1        0.0208
     10 C          -1.3310  -18.6811   19.8840 C.3     1  UNL1        0.0316
     11 C          -2.6564  -18.8892   20.5549 C.ar    1  UNL1       -0.0149
     12 C          -2.8706  -19.1999   22.0067 C.ar    1  UNL1        0.0312
     13 S          -4.3468  -19.3258   22.2407 S.2     1  UNL1       -0.0867
     14 C          -5.0450  -19.0930   20.9337 C.ar    1  UNL1        0.0307
     15 C          -4.0002  -18.8232   19.8918 C.ar    1  UNL1        0.0028
     16 C          -9.9313  -16.6649   23.1741 C.3     1  UNL1        0.1920
     17 C          -9.6402  -17.1770   24.5536 C.2     1  UNL1        0.2488
     18 O         -10.2685  -18.4539   25.0277 O.2     1  UNL1       -0.2728
     19 N          -8.7208  -16.4122   25.4591 N.am    1  UNL1       -0.2744
     20 C          -8.4297  -16.9244   26.8386 C.3     1  UNL1        0.1150
     21 C          -8.0925  -15.1353   24.9851 C.3     1  UNL1        0.1150
@<TRIPOS>BOND
     1    10    11    1
     2    11    12   ar
     3    12    13   ar
     4    13    14   ar
     5    14     1    1
     6     1     2   ar
     7     2     3   ar
     8     3     4   ar
     9     4     5   ar
    10     5     6   ar
    11     6     7   ar
    12     7    16    1
    13    16    17    1
    14    17    18    2
    15    17    19   am
    16    19    20    1
    17    19    21    1
    18     7     8   ar
    19     8     9   ar
    20    14    15   ar
    21    15    11   ar
    22     9     1   ar
    23     8     4   ar
@<TRIPOS>MOLECULE
*****
 21 23 0 0 0
SMALL
GASTEIGER

@<TRIPOS>ATOM
      1 C          -8.8555  -17.0838   22.8732 C.ar    1  UNL1        0.0266
      2 C         -10.3038  -16.8385   22.5696 C.ar    1  UNL1        0.0994
      3 N         -10.9553  -17.5335   21.4110 N.ar    1  UNL1       -0.2423
      4 C         -10.1586  -18.4738   20.5559 C.ar    1  UNL1        0.0985
      5 C         -10.5265  -19.2959   19.3564 C.ar    1  UNL1        0.0392
      6 C          -9.3055  -20.0493   18.9187 C.ar    1  UNL1        0.0779
      7 N          -8.1830  -19.6928   19.8477 N.ar    1  UNL1       -0.3165
      8 C          -8.7103  -18.7191   20.8595 C.ar    1  UNL1        0.0782
      9 C          -8.0587  -18.0241   22.0182 C.ar    1  UNL1        0.0208
     10 C          -7.9559  -15.1235   27.6928 C.3     1  UNL1        0.0316
     11 C          -7.7904  -15.4878   26.2472 C.ar    1  UNL1       -0.0149
     12 C          -6.6119  -15.1510   25.3824 C.ar    1  UNL1        0.0312
     13 S          -6.8675  -15.7079   24.0133 S.2     1  UNL1       -0.0867
     14 C          -8.2039  -16.3888   24.0319 C.ar    1  UNL1        0.0307
     15 C          -8.7742  -16.2528   25.4125 C.ar    1  UNL1        0.0028
     16 C          -6.7797  -20.2178   19.7772 C.3     1  UNL1        0.1920
     17 C          -5.9086  -20.1961   20.9981 C.2     1  UNL1        0.2488
     18 O          -6.3768  -20.8483   22.2652 O.2     1  UNL1       -0.2728
     19 N          -4.5693  -19.5223   20.9521 N.am    1  UNL1       -0.2744
     20 C          -3.6982  -19.5006   22.1730 C.3     1  UNL1        0.1150
     21 C          -4.1010  -18.8701   19.6851 C.3     1  UNL1        0.1150
@<TRIPOS>BOND
     1    10    11    1
     2    11    12   ar
     3    12    13   ar
     4    13    14   ar
     5    14     1    1
     6     1     2   ar
     7     2     3   ar
     8     3     4   ar
     9     4     5   ar
    10     5     6   ar
    11     6     7   ar
    12     7    16    1
    13    16    17    1
    14    17    18    2
    15    17    19   am
    16    19    20    1
    17    19    21    1
    18     7     8   ar
    19     8     9   ar
    20    14    15   ar
    21    15    11   ar
    22     9     1   ar
    23     8     4   ar
@<TRIPOS>MOLECULE
*****
 21 23 0 0 0
SMALL
GASTEIGER

@<TRIPOS>ATOM
      1 C          -4.7361  -17.1560   23.0309 C.ar    1  UNL1        0.0266
      2 C          -4.3391  -16.0569   23.9713 C.ar    1  UNL1        0.0994
      3 N          -5.3874  -15.3288   24.7592 N.ar    1  UNL1       -0.2423
      4 C          -6.8328  -15.6998   24.6067 C.ar    1  UNL1        0.0985
      5 C          -8.0794  -15.1640   25.2463 C.ar    1  UNL1        0.0392
      6 C          -9.2468  -15.9320   24.7012 C.ar    1  UNL1        0.0779
      7 N          -8.7218  -16.9424   23.7247 N.ar    1  UNL1       -0.3165
      8 C          -7.2298  -16.7989   23.6664 C.ar    1  UNL1        0.0782
      9 C          -6.1815  -17.5269   22.8785 C.ar    1  UNL1        0.0208
     10 C          -0.4606  -18.1816   20.1070 C.3     1  UNL1        0.0316
     11 C          -1.7225  -18.3556   20.8990 C.ar    1  UNL1       -0.0149
     12 C          -2.4266  -19.6538   21.1619 C.ar    1  UNL1        0.0312
     13 S          -3.6412  -19.3624   21.9925 S.2     1  UNL1       -0.0867
     14 C          -3.6877  -17.8841   22.2430 C.ar    1  UNL1        0.0307
     15 C          -2.5020  -17.2619   21.5671 C.ar    1  UNL1        0.0028
     16 C          -9.5443  -17.9240   22.9437 C.3     1  UNL1        0.1920
     17 C          -9.8965  -17.6374   21.5141 C.2     1  UNL1        0.2488
     18 O          -9.0335  -18.1684   20.4081 O.2     1  UNL1       -0.2728
     19 N         -11.1118  -16.8199   21.1904 N.am    1  UNL1       -0.2744
     20 C         -11.4640  -16.5334   19.7608 C.3     1  UNL1        0.1150
     21 C         -11.9749  -16.2889   22.2963 C.3     1  UNL1        0.1150
@<TRIPOS>BOND
     1    10    11    1
     2    11    12   ar
     3    12    13   ar
     4    13    14   ar
     5    14     1    1
     6     1     2   ar
     7     2     3   ar
     8     3     4   ar
     9     4     5   ar
    10     5     6   ar
    11     6     7   ar
    12     7    16    1
    13    16    17    1
    14    17    18    2
    15    17    19   am
    16    19    20    1
    17    19    21    1
    18     7     8   ar
    19     8     9   ar
    20    14    15   ar
    21    15    11   ar
    22     9     1   ar
    23     8     4   ar
@<TRIPOS>MOLECULE
*****
 21 23 0 0 0
SMALL
GASTEIGER

@<TRIPOS>ATOM
      1 C          -9.1592  -16.7093   23.4006 C.ar    1  UNL1        0.0266
      2 C          -8.9297  -15.4660   24.2077 C.ar    1  UNL1        0.0994
      3 N          -7.5331  -15.0484   24.5613 N.ar    1  UNL1       -0.2423
      4 C          -6.3659  -15.8741   24.1076 C.ar    1  UNL1        0.0985
      5 C          -4.8871  -15.7139   24.3021 C.ar    1  UNL1        0.0392
      6 C          -4.2027  -16.8583   23.6151 C.ar    1  UNL1        0.0779
      7 N          -5.2584  -17.7257   22.9961 N.ar    1  UNL1       -0.3165
      8 C          -6.5953  -17.1174   23.3005 C.ar    1  UNL1        0.0782
      9 C          -7.9919  -17.5350   22.9470 C.ar    1  UNL1        0.0208
     10 C         -14.1875  -18.2700   23.8017 C.3     1  UNL1        0.0316
     11 C         -12.8671  -17.8443   23.2314 C.ar    1  UNL1       -0.0149
     12 C         -12.5430  -17.6948   21.7744 C.ar    1  UNL1        0.0312
     13 S         -11.1145  -17.2514   21.6605 S.2     1  UNL1       -0.0867
     14 C         -10.5558  -17.1269   23.0470 C.ar    1  UNL1        0.0307
     15 C         -11.6390  -17.4933   24.0179 C.ar    1  UNL1        0.0028
     16 C          -5.0192  -18.9809   22.2106 C.3     1  UNL1        0.1920
     17 C          -4.5007  -18.8991   20.8054 C.2     1  UNL1        0.2488
     18 O          -5.4598  -18.7882   19.6574 O.2     1  UNL1       -0.2728
     19 N          -3.0232  -18.9281   20.5482 N.am    1  UNL1       -0.2744
     20 C          -2.5048  -18.8462   19.1430 C.3     1  UNL1        0.1150
     21 C          -2.0641  -19.0390   21.6961 C.3     1  UNL1        0.1150
@<TRIPOS>BOND
     1    10    11    1
     2    11    12   ar
     3    12    13   ar
     4    13    14   ar
     5    14     1    1
     6     1     2   ar
     7     2     3   ar
     8     3     4   ar
     9     4     5   ar
    10     5     6   ar
    11     6     7   ar
    12     7    16    1
    13    16    17    1
    14    17    18    2
    15    17    19   am
    16    19    20    1
    17    19    21    1
    18     7     8   ar
    19     8     9   ar
    20    14    15   ar
    21    15    11   ar
    22     9     1   ar
    23     8     4   ar
@<TRIPOS>MOLECULE
*****
 21 23 0 0 0
SMALL
GASTEIGER

@<TRIPOS>ATOM
      1 C          -8.2804  -17.3656   22.9358 C.ar    1  UNL1        0.0266
      2 C          -9.6848  -17.3685   22.4090 C.ar    1  UNL1        0.0994
      3 N         -10.0224  -18.1561   21.1779 N.ar    1  UNL1       -0.2423
      4 C          -8.9556  -18.9408   20.4736 C.ar    1  UNL1        0.0985
      5 C          -8.9892  -19.8051   19.2481 C.ar    1  UNL1        0.0392
      6 C          -7.6056  -20.3364   19.0175 C.ar    1  UNL1        0.0779
      7 N          -6.7168  -19.8005   20.1005 N.ar    1  UNL1       -0.3165
      8 C          -7.5512  -18.9380   21.0004 C.ar    1  UNL1        0.0782
      9 C          -7.2136  -18.1504   22.2315 C.ar    1  UNL1        0.0208
     10 C          -5.5897  -14.6595   26.5853 C.3     1  UNL1        0.0316
     11 C          -6.7060  -15.3341   25.8444 C.ar    1  UNL1       -0.0149
     12 C          -8.1404  -15.3978   26.2786 C.ar    1  UNL1        0.0312
     13 S          -8.9047  -16.1665   25.2418 S.2     1  UNL1       -0.0867
     14 C          -7.9427  -16.5780   24.1670 C.ar    1  UNL1        0.0307
     15 C          -6.5838  -16.0635   24.5394 C.ar    1  UNL1        0.0028
     16 C          -5.2510  -20.0783   20.2563 C.3     1  UNL1        0.1920
     17 C          -4.2485  -19.0006   19.9671 C.2     1  UNL1        0.2488
     18 O          -4.5196  -17.9939   18.8887 O.2     1  UNL1       -0.2728
     19 N          -2.9749  -18.9297   20.7562 N.am    1  UNL1       -0.2744
     20 C          -1.9724  -17.8520   20.4671 C.3     1  UNL1        0.1150
     21 C          -2.7037  -19.9364   21.8346 C.3     1  UNL1        0.1150
@<TRIPOS>BOND
     1    10    11    1
     2    11    12   ar
     3    12    13   ar
     4    13    14   ar
     5    14     1    1
     6     1     2   ar
     7     2     3   ar
     8     3     4   ar
     9     4     5   ar
    10     5     6   ar
    11     6     7   ar
    12     7    16    1
    13    16    17    1
    14    17    18    2
    15    17    19   am
    16    19    20    1
    17    19    21    1
    18     7     8   ar
    19     8     9   ar
    20    14    15   ar
    21    15    11   ar
    22     9     1   ar
    23     8     4   ar
@<TRIPOS>MOLECULE
*****
 21 23 0 0 0
SMALL
GASTEIGER

@<TRIPOS>ATOM
      1 C          -5.0607  -17.2582   23.4506 C.ar    1  UNL1        0.0266
      2 C          -4.3537  -16.5732   24.5823 C.ar    1  UNL1        0.0994
      3 N          -5.1403  -15.8054   25.6030 N.ar    1  UNL1       -0.2423
      4 C          -6.6339  -15.7228   25.4919 C.ar    1  UNL1        0.0985
      5 C          -7.6675  -15.0440   26.3412 C.ar    1  UNL1        0.0392
      6 C          -9.0132  -15.3097   25.7343 C.ar    1  UNL1        0.0779
      7 N          -8.8114  -16.1525   24.5100 N.ar    1  UNL1       -0.3165
      8 C          -7.3409  -16.4078   24.3602 C.ar    1  UNL1        0.0782
      9 C          -6.5543  -17.1755   23.3396 C.ar    1  UNL1        0.0208
     10 C          -3.7516  -20.7132   19.6782 C.3     1  UNL1        0.0316
     11 C          -3.6724  -19.6140   20.6959 C.ar    1  UNL1       -0.0149
     12 C          -2.4549  -18.8008   21.0224 C.ar    1  UNL1        0.0312
     13 S          -2.8269  -17.8194   22.0940 S.2     1  UNL1       -0.0867
     14 C          -4.2741  -18.0260   22.4299 C.ar    1  UNL1        0.0307
     15 C          -4.7967  -19.1352   21.5658 C.ar    1  UNL1        0.0028
     16 C          -9.8906  -16.6523   23.5960 C.3     1  UNL1        0.1920
     17 C          -9.5462  -17.1139   22.2110 C.2     1  UNL1        0.2488
     18 O          -9.2724  -16.1088   21.1318 O.2     1  UNL1       -0.2728
     19 N          -9.4755  -18.5807   21.9051 N.am    1  UNL1       -0.2744
     20 C          -9.1311  -19.0424   20.5201 C.3     1  UNL1        0.1150
     21 C          -9.7492  -19.5859   22.9843 C.3     1  UNL1        0.1150
@<TRIPOS>BOND
     1    10    11    1
     2    11    12   ar
     3    12    13   ar
     4    13    14   ar
     5    14     1    1
     6     1     2   ar
     7     2     3   ar
     8     3     4   ar
     9     4     5   ar
    10     5     6   ar
    11     6     7   ar
    12     7    16    1
    13    16    17    1
    14    17    18    2
    15    17    19   am
    16    19    20    1
    17    19    21    1
    18     7     8   ar
    19     8     9   ar
    20    14    15   ar
    21    15    11   ar
    22     9     1   ar
    23     8     4   ar
@<TRIPOS>MOLECULE
*****
 21 23 0 0 0
SMALL
GASTEIGER

@<TRIPOS>ATOM
      1 C           2.3686   -0.7370   20.4423 C.ar    1  UNL1        0.0266
      2 C           1.0576   -0.3015   19.8579 C.ar    1  UNL1        0.0994
      3 N           0.1702    0.6358   20.6221 N.ar    1  UNL1       -0.2423
      4 C           0.5938    1.1376   21.9707 C.ar    1  UNL1        0.0985
      5 C          -0.0660    2.0624   22.9502 C.ar    1  UNL1        0.0392
      6 C           0.8372    2.1985   24.1400 C.ar    1  UNL1        0.0779
      7 N           2.0552    1.3578   23.8958 N.ar    1  UNL1       -0.3165
      8 C           1.9048    0.7021   22.5551 C.ar    1  UNL1        0.0782
      9 C           2.7922   -0.2352   21.7909 C.ar    1  UNL1        0.0208
     10 C           4.7144   -5.1377   18.7067 C.3     1  UNL1        0.0316
     11 C           4.3343   -3.6970   18.8804 C.ar    1  UNL1       -0.0149
     12 C           4.9091   -2.5361   18.1240 C.ar    1  UNL1        0.0312
     13 S           4.2427   -1.2860   18.6171 S.2     1  UNL1       -0.0867
     14 C           3.2561   -1.6743   19.6782 C.ar    1  UNL1        0.0307
     15 C           3.3127   -3.1644   19.8408 C.ar    1  UNL1        0.0028
     16 C           3.2194    1.2003   24.8286 C.3     1  UNL1        0.1920
     17 C           3.2334    0.0823   25.8285 C.2     1  UNL1        0.2488
     18 O           3.6564   -1.2942   25.4086 O.2     1  UNL1       -0.2728
     19 N           2.8244    0.3408   27.2483 N.am    1  UNL1       -0.2744
     20 C           2.8384   -0.7773   28.2482 C.3     1  UNL1        0.1150
     21 C           2.4013    1.7172   27.6683 C.3     1  UNL1        0.1150
@<TRIPOS>BOND
     1    10    11    1
     2    11    12   ar
     3    12    13   ar
     4    13    14   ar
     5    14     1    1
     6     1     2   ar
     7     2     3   ar
     8     3     4   ar
     9     4     5   ar
    10     5     6   ar
    11     6     7   ar
    12     7    16    1
    13    16    17    1
    14    17    18    2
    15    17    19   am
    16    19    20    1
    17    19    21    1
    18     7     8   ar
    19     8     9   ar
    20    14    15   ar
    21    15    11   ar
    22     9     1   ar
    23     8     4   ar
@<TRIPOS>MOLECULE
*****
 21 23 0 0 0
SMALL
GASTEIGER

@<TRIPOS>ATOM
      1 C           2.5124   -0.1582   19.0000 C.ar    1  UNL1        0.0266
      2 C           3.1449   -0.1343   17.6402 C.ar    1  UNL1        0.0994
      3 N           4.2209   -1.1212   17.2962 N.ar    1  UNL1       -0.2423
      4 C           4.6643   -2.1319   18.3120 C.ar    1  UNL1        0.0985
      5 C           5.6941   -3.2214   18.2606 C.ar    1  UNL1        0.0392
      6 C           5.6980   -3.9185   19.5887 C.ar    1  UNL1        0.0779
      7 N           4.6706   -3.2599   20.4609 N.ar    1  UNL1       -0.3165
      8 C           4.0317   -2.1557   19.6719 C.ar    1  UNL1        0.0782
      9 C           2.9558   -1.1689   20.0159 C.ar    1  UNL1        0.0208
     10 C          -0.7215    4.0121   18.8194 C.3     1  UNL1        0.0316
     11 C          -0.0501    2.7455   19.2611 C.ar    1  UNL1       -0.0149
     12 C          -0.3889    1.9490   20.4862 C.ar    1  UNL1        0.0312
     13 S           0.5298    0.7643   20.5375 S.2     1  UNL1       -0.0867
     14 C           1.4363    0.8287   19.3441 C.ar    1  UNL1        0.0307
     15 C           1.0780    2.0531   18.5553 C.ar    1  UNL1        0.0028
     16 C           4.3400   -3.6389   21.8741 C.3     1  UNL1        0.1920
     17 C           5.4172   -3.6549   22.9179 C.2     1  UNL1        0.2488
     18 O           6.5251   -4.6628   22.8368 O.2     1  UNL1       -0.2728
     19 N           5.3864   -2.6631   24.0427 N.am    1  UNL1       -0.2744
     20 C           6.4635   -2.6791   25.0865 C.3     1  UNL1        0.1150
     21 C           4.2784   -1.6552   24.1239 C.3     1  UNL1        0.1150
@<TRIPOS>BOND
     1    10    11    1
     2    11    12   ar
     3    12    13   ar
     4    13    14   ar
     5    14     1    1
     6     1     2   ar
     7     2     3   ar
     8     3     4   ar
     9     4     5   ar
    10     5     6   ar
    11     6     7   ar
    12     7    16    1
    13    16    17    1
    14    17    18    2
    15    17    19   am
    16    19    20    1
    17    19    21    1
    18     7     8   ar
    19     8     9   ar
    20    14    15   ar
    21    15    11   ar
    22     9     1   ar
    23     8     4   ar
