@<TRIPOS>MOLECULE
*****
 35 40 0 0 0
SMALL
GASTEIGER

@<TRIPOS>ATOM
      1 C          -0.3100    2.6341   21.5776 C.3     1  UNL1        0.0770
      2 N           0.6904    1.5703   21.2351 N.3     1  UNL1       -0.2695
      3 C           2.1467    1.7906   21.5196 C.3     1  UNL1        0.0938
      4 C           3.1471    0.7267   21.1771 C.3     1  UNL1        0.1081
      5 N           2.6913   -0.5574   20.5500 N.pl3   1  UNL1       -0.3046
      6 C           1.2352   -0.7778   20.2655 C.3     1  UNL1        0.1081
      7 C           0.2347    0.2861   20.6080 C.3     1  UNL1        0.0938
      8 C           3.6917   -1.6213   20.2075 C.ar    1  UNL1        0.0493
      9 C           3.9532   -1.9708   18.7723 C.ar    1  UNL1        0.0146
     10 C           4.9536   -3.0347   18.4298 C.ar    1  UNL1        0.0028
     11 C           5.6926   -3.7490   19.5223 C.ar    1  UNL1        0.0192
     12 C           5.4311   -3.3995   20.9574 C.ar    1  UNL1        0.0821
     13 N           6.1701   -4.1139   22.0499 N.ar    1  UNL1       -0.2496
     14 C           5.9087   -3.7644   23.4851 C.ar    1  UNL1        0.0593
     15 C           6.6476   -4.4787   24.5776 C.3     1  UNL1        0.0521
     16 C           4.9083   -2.7005   23.8276 C.ar    1  UNL1        0.0148
     17 C           4.1693   -1.9862   22.7351 C.ar    1  UNL1        0.0039
     18 C           4.4307   -2.3356   21.3000 C.ar    1  UNL1        0.0310
     19 C          -0.0558    3.5594   22.7306 C.3     1  UNL1        0.0468
     20 C           1.6181    0.0459   28.4376 C.ar    1  UNL1        0.1331
     21 N           0.5162    0.1768   29.4469 N.ar    1  UNL1       -0.2209
     22 C          -0.5618    1.0309   28.8483 C.ar    1  UNL1        0.1828
     23 N          -0.1262    1.4280   27.4689 N.ar    1  UNL1       -0.2851
     24 C           1.2210    0.8192   27.2151 C.ar    1  UNL1        0.1070
     25 C           1.9123    1.0477   25.9036 C.3     1  UNL1        0.2509
     26 O           1.2563    1.8850   24.8459 O.3     1  UNL1       -0.4678
     27 C          -0.0910    2.4937   25.0998 C.ar    1  UNL1        0.1511
     28 C          -0.7470    3.3309   24.0421 C.ar    1  UNL1        0.0146
     29 C          -2.0942    3.9397   24.2959 C.ar    1  UNL1       -0.0011
     30 C          -2.7854    3.7112   25.6074 C.ar    1  UNL1        0.0014
     31 C          -2.1294    2.8739   26.6651 C.ar    1  UNL1        0.0206
     32 C          -0.7822    2.2652   26.4113 C.ar    1  UNL1        0.0989
     33 C           3.7256   -0.5155   29.8492 C.3     1  UNL1        0.0790
     34 C           2.8931   -0.7231   28.6188 C.2     1  UNL1        0.1922
     35 O           3.3355   -1.6997   27.5698 O.2     1  UNL1       -0.2897
@<TRIPOS>BOND
     1    33    34    1
     2    34    35    2
     3    34    20    1
     4    20    21   ar
     5    21    22   ar
     6    22    23   ar
     7    23    24   ar
     8    24    25    1
     9    25    26    1
    10    26    27    1
    11    27    28   ar
    12    28    19    1
    13    19     1    1
    14     1     2    1
    15     2     3    1
    16     3     4    1
    17     4     5    1
    18     5     8    1
    19     8     9   ar
    20     9    10   ar
    21    10    11   ar
    22    11    12   ar
    23    12    13   ar
    24    13    14   ar
    25    14    15    1
    26    14    16   ar
    27    16    17   ar
    28    17    18   ar
    29     5     6    1
    30     6     7    1
    31    28    29   ar
    32    29    30   ar
    33    30    31   ar
    34    31    32   ar
    35    24    20   ar
    36    32    27   ar
    37    32    23    1
    38     7     2    1
    39    18     8   ar
    40    18    12   ar
@<TRIPOS>MOLECULE
*****
 35 40 0 0 0
SMALL
GASTEIGER

@<TRIPOS>ATOM
      1 C           0.4668    1.7483   23.9953 C.3     1  UNL1        0.0770
      2 N           1.2718    0.9476   23.0151 N.3     1  UNL1       -0.2695
      3 C           0.7960    0.7957   21.6007 C.3     1  UNL1        0.0938
      4 C           1.6009   -0.0050   20.6205 C.3     1  UNL1        0.1081
      5 N           2.8818   -0.6538   21.0546 N.pl3   1  UNL1       -0.3046
      6 C           3.3576   -0.5020   22.4690 C.3     1  UNL1        0.1081
      7 C           2.5526    0.2988   23.4493 C.3     1  UNL1        0.0938
      8 C           3.6867   -1.4545   20.0744 C.ar    1  UNL1        0.0493
      9 C           3.5934   -2.9517   20.0730 C.ar    1  UNL1        0.0146
     10 C           4.3984   -3.7524   19.0928 C.ar    1  UNL1        0.0028
     11 C           5.2967   -3.0560   18.1140 C.ar    1  UNL1        0.0192
     12 C           5.3901   -1.5590   18.1154 C.ar    1  UNL1        0.0821
     13 N           6.2884   -0.8626   17.1366 N.ar    1  UNL1       -0.2496
     14 C           6.3818    0.6345   17.1380 C.ar    1  UNL1        0.0593
     15 C           7.2801    1.3309   16.1592 C.3     1  UNL1        0.0521
     16 C           5.5768    1.4352   18.1182 C.ar    1  UNL1        0.0148
     17 C           4.6784    0.7389   19.0970 C.ar    1  UNL1        0.0039
     18 C           4.5851   -0.7582   19.0956 C.ar    1  UNL1        0.0310
     19 C          -0.3949    2.8774   23.5130 C.3     1  UNL1        0.0468
     20 C          -6.7669    4.6127   21.4877 C.ar    1  UNL1        0.1331
     21 N          -7.6255    4.8582   22.6929 N.ar    1  UNL1       -0.2209
     22 C          -6.7839    4.6366   23.9146 C.ar    1  UNL1        0.1828
     23 N          -5.4051    4.2541   23.4644 N.ar    1  UNL1       -0.2851
     24 C          -5.3947    4.2393   21.9646 C.ar    1  UNL1        0.1070
     25 C          -4.1368    3.8878   21.2267 C.3     1  UNL1        0.2509
     26 O          -2.8895    3.5510   21.9888 O.3     1  UNL1       -0.4678
     27 C          -2.9000    3.5658   23.4888 C.ar    1  UNL1        0.1511
     28 C          -1.6527    3.2290   24.2509 C.ar    1  UNL1        0.0146
     29 C          -1.6632    3.2438   25.7507 C.ar    1  UNL1       -0.0011
     30 C          -2.9210    3.5953   26.4885 C.ar    1  UNL1        0.0014
     31 C          -4.1683    3.9321   25.7264 C.ar    1  UNL1        0.0206
     32 C          -4.1578    3.9173   24.2265 C.ar    1  UNL1        0.0989
     33 C          -6.7011    3.7375   19.0424 C.3     1  UNL1        0.0790
     34 C          -7.2038    4.7214   20.0569 C.2     1  UNL1        0.1922
     35 O          -8.1434    5.8140   19.6405 O.2     1  UNL1       -0.2897
@<TRIPOS>BOND
     1    33    34    1
     2    34    35    2
     3    34    20    1
     4    20    21   ar
     5    21    22   ar
     6    22    23   ar
     7    23    24   ar
     8    24    25    1
     9    25    26    1
    10    26    27    1
    11    27    28   ar
    12    28    19    1
    13    19     1    1
    14     1     2    1
    15     2     3    1
    16     3     4    1
    17     4     5    1
    18     5     8    1
    19     8     9   ar
    20     9    10   ar
    21    10    11   ar
    22    11    12   ar
    23    12    13   ar
    24    13    14   ar
    25    14    15    1
    26    14    16   ar
    27    16    17   ar
    28    17    18   ar
    29     5     6    1
    30     6     7    1
    31    28    29   ar
    32    29    30   ar
    33    30    31   ar
    34    31    32   ar
    35    24    20   ar
    36    32    27   ar
    37    32    23    1
    38     7     2    1
    39    18     8   ar
    40    18    12   ar
@<TRIPOS>MOLECULE
*****
 35 40 0 0 0
SMALL
GASTEIGER

@<TRIPOS>ATOM
      1 C           7.4035   -2.6463   32.1015 C.3     1  UNL1        0.0770
      2 N           7.6046   -3.4501   30.8511 N.3     1  UNL1       -0.2695
      3 C           8.8255   -3.2317   30.0074 C.3     1  UNL1        0.0938
      4 C           9.0266   -4.0355   28.7570 C.3     1  UNL1        0.1081
      5 N           8.0069   -5.0577   28.3503 N.pl3   1  UNL1       -0.3046
      6 C           6.7861   -5.2760   29.1940 C.3     1  UNL1        0.1081
      7 C           6.5849   -4.4722   30.4444 C.3     1  UNL1        0.0938
      8 C           8.2080   -5.8614   27.1000 C.ar    1  UNL1        0.0493
      9 C           8.8794   -7.2011   27.1693 C.ar    1  UNL1        0.0146
     10 C           9.0805   -8.0048   25.9190 C.ar    1  UNL1        0.0028
     11 C           8.6103   -7.4691   24.5992 C.ar    1  UNL1        0.0192
     12 C           7.9390   -6.1295   24.5298 C.ar    1  UNL1        0.0821
     13 N           7.4688   -5.5937   23.2100 N.ar    1  UNL1       -0.2496
     14 C           6.7974   -4.2541   23.1406 C.ar    1  UNL1        0.0593
     15 C           6.3271   -3.7184   21.8208 C.3     1  UNL1        0.0521
     16 C           6.5962   -3.4504   24.3909 C.ar    1  UNL1        0.0148
     17 C           7.0665   -3.9861   25.7107 C.ar    1  UNL1        0.0039
     18 C           7.7378   -5.3257   25.7802 C.ar    1  UNL1        0.0310
     19 C           6.0753   -2.6632   32.7984 C.3     1  UNL1        0.0468
     20 C           3.2847    2.0637   36.9919 C.ar    1  UNL1        0.1331
     21 N           2.3610    2.9465   36.2062 N.ar    1  UNL1       -0.2209
     22 C           2.3760    2.4809   34.7804 C.ar    1  UNL1        0.1828
     23 N           3.3090    1.3103   34.6848 N.ar    1  UNL1       -0.2851
     24 C           3.8706    1.0525   36.0516 C.ar    1  UNL1        0.1070
     25 C           4.8430   -0.0699   36.2634 C.3     1  UNL1        0.2509
     26 O           5.2538   -0.9343   35.1084 O.3     1  UNL1       -0.4678
     27 C           4.6921   -0.6764   33.7416 C.ar    1  UNL1        0.1511
     28 C           5.1029   -1.5408   32.5866 C.ar    1  UNL1        0.0146
     29 C           4.5413   -1.2830   31.2198 C.ar    1  UNL1       -0.0011
     30 C           3.5689   -0.1607   31.0081 C.ar    1  UNL1        0.0014
     31 C           3.1582    0.7038   32.1631 C.ar    1  UNL1        0.0206
     32 C           3.7198    0.4459   33.5298 C.ar    1  UNL1        0.0989
     33 C           4.0684    3.4674   39.0328 C.3     1  UNL1        0.0790
     34 C           3.5721    2.1729   38.4600 C.2     1  UNL1        0.1922
     35 O           3.3632    0.9877   39.3554 O.2     1  UNL1       -0.2897
@<TRIPOS>BOND
     1    33    34    1
     2    34    35    2
     3    34    20    1
     4    20    21   ar
     5    21    22   ar
     6    22    23   ar
     7    23    24   ar
     8    24    25    1
     9    25    26    1
    10    26    27    1
    11    27    28   ar
    12    28    19    1
    13    19     1    1
    14     1     2    1
    15     2     3    1
    16     3     4    1
    17     4     5    1
    18     5     8    1
    19     8     9   ar
    20     9    10   ar
    21    10    11   ar
    22    11    12   ar
    23    12    13   ar
    24    13    14   ar
    25    14    15    1
    26    14    16   ar
    27    16    17   ar
    28    17    18   ar
    29     5     6    1
    30     6     7    1
    31    28    29   ar
    32    29    30   ar
    33    30    31   ar
    34    31    32   ar
    35    24    20   ar
    36    32    27   ar
    37    32    23    1
    38     7     2    1
    39    18     8   ar
    40    18    12   ar
@<TRIPOS>MOLECULE
*****
 35 40 0 0 0
SMALL
GASTEIGER

@<TRIPOS>ATOM
      1 C           0.1593    2.8818   20.4136 C.3     1  UNL1        0.0770
      2 N           1.0640    1.6904   20.3041 N.3     1  UNL1       -0.2695
      3 C           2.5421    1.8837   20.1372 C.3     1  UNL1        0.0938
      4 C           3.4467    0.6923   20.0277 C.3     1  UNL1        0.1081
      5 N           2.8733   -0.6926   20.0852 N.pl3   1  UNL1       -0.3046
      6 C           1.3953   -0.8860   20.2521 C.3     1  UNL1        0.1081
      7 C           0.4906    0.3055   20.3616 C.3     1  UNL1        0.0938
      8 C           3.7780   -1.8840   19.9757 C.ar    1  UNL1        0.0493
      9 C           4.0239   -2.5188   18.6390 C.ar    1  UNL1        0.0146
     10 C           4.9285   -3.7102   18.5295 C.ar    1  UNL1        0.0028
     11 C           5.5873   -4.2670   19.7567 C.ar    1  UNL1        0.0192
     12 C           5.3414   -3.6324   21.0933 C.ar    1  UNL1        0.0821
     13 N           6.0002   -4.1892   22.3205 N.ar    1  UNL1       -0.2496
     14 C           5.7542   -3.5545   23.6573 C.ar    1  UNL1        0.0593
     15 C           6.4130   -4.1113   24.8845 C.3     1  UNL1        0.0521
     16 C           4.8496   -2.3630   23.7667 C.ar    1  UNL1        0.0148
     17 C           4.1908   -1.8062   22.5395 C.ar    1  UNL1        0.0039
     18 C           4.4367   -2.4409   21.2029 C.ar    1  UNL1        0.0310
     19 C          -1.3092    2.6892   20.6507 C.3     1  UNL1        0.0468
     20 C          -7.4160    5.3155   22.5283 C.ar    1  UNL1        0.1331
     21 N          -7.9633    6.1563   21.4131 N.ar    1  UNL1       -0.2209
     22 C          -6.9788    6.1237   20.2819 C.ar    1  UNL1        0.1828
     23 N          -5.8230    5.2628   20.6980 N.ar    1  UNL1       -0.2851
     24 C          -6.0933    4.7633   22.0863 C.ar    1  UNL1        0.1070
     25 C          -5.1000    3.8701   22.7687 C.3     1  UNL1        0.2509
     26 O          -3.8364    3.4765   22.0627 O.3     1  UNL1       -0.4678
     27 C          -3.5661    3.9760   20.6743 C.ar    1  UNL1        0.1511
     28 C          -2.3026    3.5824   19.9683 C.ar    1  UNL1        0.0146
     29 C          -2.0323    4.0819   18.5800 C.ar    1  UNL1       -0.0011
     30 C          -3.0256    4.9750   17.8977 C.ar    1  UNL1        0.0014
     31 C          -4.2892    5.3686   18.6037 C.ar    1  UNL1        0.0206
     32 C          -4.5595    4.8691   19.9920 C.ar    1  UNL1        0.0989
     33 C          -7.6049    5.8050   25.0728 C.3     1  UNL1        0.0790
     34 C          -8.0757    5.0700   23.8529 C.2     1  UNL1        0.1922
     35 O          -9.2061    4.0896   23.9576 O.2     1  UNL1       -0.2897
@<TRIPOS>BOND
     1    33    34    1
     2    34    35    2
     3    34    20    1
     4    20    21   ar
     5    21    22   ar
     6    22    23   ar
     7    23    24   ar
     8    24    25    1
     9    25    26    1
    10    26    27    1
    11    27    28   ar
    12    28    19    1
    13    19     1    1
    14     1     2    1
    15     2     3    1
    16     3     4    1
    17     4     5    1
    18     5     8    1
    19     8     9   ar
    20     9    10   ar
    21    10    11   ar
    22    11    12   ar
    23    12    13   ar
    24    13    14   ar
    25    14    15    1
    26    14    16   ar
    27    16    17   ar
    28    17    18   ar
    29     5     6    1
    30     6     7    1
    31    28    29   ar
    32    29    30   ar
    33    30    31   ar
    34    31    32   ar
    35    24    20   ar
    36    32    27   ar
    37    32    23    1
    38     7     2    1
    39    18     8   ar
    40    18    12   ar
@<TRIPOS>MOLECULE
*****
 35 40 0 0 0
SMALL
GASTEIGER

@<TRIPOS>ATOM
      1 C           0.0361    1.9100   24.3790 C.3     1  UNL1        0.0770
      2 N           0.9361    1.5725   23.2274 N.3     1  UNL1       -0.2695
      3 C           0.3685    1.4431   21.8449 C.3     1  UNL1        0.0938
      4 C           1.2685    1.1057   20.6933 C.3     1  UNL1        0.1081
      5 N           2.7359    0.8977   20.9241 N.pl3   1  UNL1       -0.3046
      6 C           3.3035    1.0271   22.3065 C.3     1  UNL1        0.1081
      7 C           2.4035    1.3645   23.4582 C.3     1  UNL1        0.0938
      8 C           3.6358    0.5602   19.7725 C.ar    1  UNL1        0.0493
      9 C           4.2255    1.6563   18.9352 C.ar    1  UNL1        0.0146
     10 C           5.1254    1.3189   17.7836 C.ar    1  UNL1        0.0028
     11 C           5.4358   -0.1146   17.4692 C.ar    1  UNL1        0.0192
     12 C           4.8462   -1.2106   18.3064 C.ar    1  UNL1        0.0821
     13 N           5.1565   -2.6441   17.9921 N.ar    1  UNL1       -0.2496
     14 C           4.5669   -3.7402   18.8294 C.ar    1  UNL1        0.0593
     15 C           4.8772   -5.1737   18.5151 C.3     1  UNL1        0.0521
     16 C           3.6670   -3.4028   19.9810 C.ar    1  UNL1        0.0148
     17 C           3.3566   -1.9693   20.2954 C.ar    1  UNL1        0.0039
     18 C           3.9462   -0.8732   19.4581 C.ar    1  UNL1        0.0310
     19 C          -0.4761    3.3099   24.5453 C.3     1  UNL1        0.0468
     20 C          -6.2887    4.4595   20.9944 C.ar    1  UNL1        0.1331
     21 N          -7.4340    4.6236   21.9490 N.ar    1  UNL1       -0.2209
     22 C          -6.9001    4.4777   23.3431 C.ar    1  UNL1        0.1828
     23 N          -5.4247    4.2234   23.2502 N.ar    1  UNL1       -0.2851
     24 C          -5.0469    4.2122   21.7986 C.ar    1  UNL1        0.1070
     25 C          -3.6208    3.9782   21.3966 C.3     1  UNL1        0.2509
     26 O          -2.5726    3.7555   22.4462 O.3     1  UNL1       -0.4678
     27 C          -2.9505    3.7667   23.8978 C.ar    1  UNL1        0.1511
     28 C          -1.9022    3.5439   24.9474 C.ar    1  UNL1        0.0146
     29 C          -2.2801    3.5551   26.3989 C.ar    1  UNL1       -0.0011
     30 C          -3.7061    3.7891   26.8009 C.ar    1  UNL1        0.0014
     31 C          -4.7543    4.0118   25.7513 C.ar    1  UNL1        0.0206
     32 C          -4.3765    4.0006   24.2998 C.ar    1  UNL1        0.0989
     33 C          -6.7594    3.3147   18.7102 C.3     1  UNL1        0.0790
     34 C          -6.3707    4.5304   19.4984 C.2     1  UNL1        0.1922
     35 O          -6.0641    5.8167   18.7904 O.2     1  UNL1       -0.2897
@<TRIPOS>BOND
     1    33    34    1
     2    34    35    2
     3    34    20    1
     4    20    21   ar
     5    21    22   ar
     6    22    23   ar
     7    23    24   ar
     8    24    25    1
     9    25    26    1
    10    26    27    1
    11    27    28   ar
    12    28    19    1
    13    19     1    1
    14     1     2    1
    15     2     3    1
    16     3     4    1
    17     4     5    1
    18     5     8    1
    19     8     9   ar
    20     9    10   ar
    21    10    11   ar
    22    11    12   ar
    23    12    13   ar
    24    13    14   ar
    25    14    15    1
    26    14    16   ar
    27    16    17   ar
    28    17    18   ar
    29     5     6    1
    30     6     7    1
    31    28    29   ar
    32    29    30   ar
    33    30    31   ar
    34    31    32   ar
    35    24    20   ar
    36    32    27   ar
    37    32    23    1
    38     7     2    1
    39    18     8   ar
    40    18    12   ar
@<TRIPOS>MOLECULE
*****
 35 40 0 0 0
SMALL
GASTEIGER

@<TRIPOS>ATOM
      1 C          -0.0283    2.9664   18.2449 C.3     1  UNL1        0.0770
      2 N           0.7576    1.8242   18.8172 N.3     1  UNL1       -0.2695
      3 C           0.1258    0.9088   19.8237 C.3     1  UNL1        0.0938
      4 C           0.9118   -0.2334   20.3961 C.3     1  UNL1        0.1081
      5 N           2.3296   -0.4602   19.9620 N.pl3   1  UNL1       -0.3046
      6 C           2.9614    0.4551   18.9556 C.3     1  UNL1        0.1081
      7 C           2.1754    1.5974   18.3832 C.3     1  UNL1        0.0938
      8 C           3.1156   -1.6024   20.5344 C.ar    1  UNL1        0.0493
      9 C           3.4825   -2.7697   19.6667 C.ar    1  UNL1        0.0146
     10 C           4.2685   -3.9118   20.2391 C.ar    1  UNL1        0.0028
     11 C           4.6876   -3.8868   21.6791 C.ar    1  UNL1        0.0192
     12 C           4.3207   -2.7196   22.5468 C.ar    1  UNL1        0.0821
     13 N           4.7398   -2.6945   23.9868 N.ar    1  UNL1       -0.2496
     14 C           4.3728   -1.5272   24.8545 C.ar    1  UNL1        0.0593
     15 C           4.7919   -1.5021   26.2946 C.3     1  UNL1        0.0521
     16 C           3.5869   -0.3850   24.2822 C.ar    1  UNL1        0.0148
     17 C           3.1678   -0.4101   22.8421 C.ar    1  UNL1        0.0039
     18 C           3.5347   -1.5773   21.9744 C.ar    1  UNL1        0.0310
     19 C          -0.6495    3.9814   19.1580 C.3     1  UNL1        0.0468
     20 C          -4.4155    3.9423   24.9487 C.ar    1  UNL1        0.1331
     21 N          -5.8730    3.8965   24.5973 N.ar    1  UNL1       -0.2209
     22 C          -5.9889    3.8755   23.1020 C.ar    1  UNL1        0.1828
     23 N          -4.6030    3.9083   22.5291 N.ar    1  UNL1       -0.2851
     24 C          -3.6306    3.9496   23.6704 C.ar    1  UNL1        0.1070
     25 C          -2.1560    3.9885   23.3983 C.3     1  UNL1        0.2509
     26 O          -1.6538    3.9861   21.9849 O.3     1  UNL1       -0.4678
     27 C          -2.6263    3.9449   20.8435 C.ar    1  UNL1        0.1511
     28 C          -2.1242    3.9425   19.4301 C.ar    1  UNL1        0.0146
     29 C          -3.0966    3.9013   18.2888 C.ar    1  UNL1       -0.0011
     30 C          -4.5712    3.8624   18.5609 C.ar    1  UNL1        0.0014
     31 C          -5.0733    3.8647   19.9743 C.ar    1  UNL1        0.0206
     32 C          -4.1009    3.9060   21.1157 C.ar    1  UNL1        0.0989
     33 C          -2.4995    3.3661   26.6060 C.3     1  UNL1        0.0790
     34 C          -3.8433    3.9750   26.3348 C.2     1  UNL1        0.1922
     35 O          -4.6147    4.6165   27.4498 O.2     1  UNL1       -0.2897
@<TRIPOS>BOND
     1    33    34    1
     2    34    35    2
     3    34    20    1
     4    20    21   ar
     5    21    22   ar
     6    22    23   ar
     7    23    24   ar
     8    24    25    1
     9    25    26    1
    10    26    27    1
    11    27    28   ar
    12    28    19    1
    13    19     1    1
    14     1     2    1
    15     2     3    1
    16     3     4    1
    17     4     5    1
    18     5     8    1
    19     8     9   ar
    20     9    10   ar
    21    10    11   ar
    22    11    12   ar
    23    12    13   ar
    24    13    14   ar
    25    14    15    1
    26    14    16   ar
    27    16    17   ar
    28    17    18   ar
    29     5     6    1
    30     6     7    1
    31    28    29   ar
    32    29    30   ar
    33    30    31   ar
    34    31    32   ar
    35    24    20   ar
    36    32    27   ar
    37    32    23    1
    38     7     2    1
    39    18     8   ar
    40    18    12   ar
@<TRIPOS>MOLECULE
*****
 35 40 0 0 0
SMALL
GASTEIGER

@<TRIPOS>ATOM
      1 C          -0.3781    3.5867   21.8867 C.3     1  UNL1        0.0770
      2 N           0.7250    2.9445   21.0989 N.3     1  UNL1       -0.2695
      3 C           0.4883    2.5309   19.6766 C.3     1  UNL1        0.0938
      4 C           1.5915    1.8887   18.8888 C.3     1  UNL1        0.1081
      5 N           2.9313    1.6601   19.5232 N.pl3   1  UNL1       -0.3046
      6 C           3.1680    2.0736   20.9455 C.3     1  UNL1        0.1081
      7 C           2.0649    2.7158   21.7334 C.3     1  UNL1        0.0938
      8 C           4.0344    1.0179   18.7354 C.ar    1  UNL1        0.0493
      9 C           4.9841    1.8678   17.9444 C.ar    1  UNL1        0.0146
     10 C           6.0872    1.2256   17.1566 C.ar    1  UNL1        0.0028
     11 C           6.2407   -0.2665   17.1598 C.ar    1  UNL1        0.0192
     12 C           5.2911   -1.1164   17.9508 C.ar    1  UNL1        0.0821
     13 N           5.4445   -2.6086   17.9540 N.ar    1  UNL1       -0.2496
     14 C           4.4948   -3.4585   18.7450 C.ar    1  UNL1        0.0593
     15 C           4.6483   -4.9506   18.7482 C.3     1  UNL1        0.0521
     16 C           3.3917   -2.8163   19.5328 C.ar    1  UNL1        0.0148
     17 C           3.2382   -1.3242   19.5296 C.ar    1  UNL1        0.0039
     18 C           4.1879   -0.4743   18.7386 C.ar    1  UNL1        0.0310
     19 C          -0.0865    4.1968   23.2257 C.3     1  UNL1        0.0468
     20 C           1.4442   -0.0071   28.4888 C.ar    1  UNL1        0.1331
     21 N           0.2734   -0.0857   29.4232 N.ar    1  UNL1       -0.2209
     22 C          -0.8177    0.7844   28.8734 C.ar    1  UNL1        0.1828
     23 N          -0.3213    1.4009   27.5992 N.ar    1  UNL1       -0.2851
     24 C           1.0766    0.9117   27.3616 C.ar    1  UNL1        0.1070
     25 C           1.8343    1.3661   26.1493 C.3     1  UNL1        0.2509
     26 O           1.1941    2.3097   25.1747 O.3     1  UNL1       -0.4678
     27 C          -0.2039    2.7988   25.4125 C.ar    1  UNL1        0.1511
     28 C          -0.8442    3.7424   24.4379 C.ar    1  UNL1        0.0146
     29 C          -2.2421    4.2316   24.6756 C.ar    1  UNL1       -0.0011
     30 C          -2.9997    3.7772   25.8878 C.ar    1  UNL1        0.0014
     31 C          -2.3594    2.8336   26.8624 C.ar    1  UNL1        0.0206
     32 C          -0.9615    2.3444   26.6247 C.ar    1  UNL1        0.0989
     33 C           3.5667   -0.5200   29.8967 C.3     1  UNL1        0.0790
     34 C           2.7528   -0.7217   28.6529 C.2     1  UNL1        0.1922
     35 O           3.2475   -1.6380   27.5733 O.2     1  UNL1       -0.2897
@<TRIPOS>BOND
     1    33    34    1
     2    34    35    2
     3    34    20    1
     4    20    21   ar
     5    21    22   ar
     6    22    23   ar
     7    23    24   ar
     8    24    25    1
     9    25    26    1
    10    26    27    1
    11    27    28   ar
    12    28    19    1
    13    19     1    1
    14     1     2    1
    15     2     3    1
    16     3     4    1
    17     4     5    1
    18     5     8    1
    19     8     9   ar
    20     9    10   ar
    21    10    11   ar
    22    11    12   ar
    23    12    13   ar
    24    13    14   ar
    25    14    15    1
    26    14    16   ar
    27    16    17   ar
    28    17    18   ar
    29     5     6    1
    30     6     7    1
    31    28    29   ar
    32    29    30   ar
    33    30    31   ar
    34    31    32   ar
    35    24    20   ar
    36    32    27   ar
    37    32    23    1
    38     7     2    1
    39    18     8   ar
    40    18    12   ar
@<TRIPOS>MOLECULE
*****
 35 40 0 0 0
SMALL
GASTEIGER

@<TRIPOS>ATOM
      1 C          -0.6274    1.6178   25.5209 C.3     1  UNL1        0.0770
      2 N           0.0845    1.3645   26.8166 N.3     1  UNL1       -0.2695
      3 C           1.4628    1.9147   27.0352 C.3     1  UNL1        0.0938
      4 C           2.1746    1.6614   28.3310 C.3     1  UNL1        0.1081
      5 N           1.5083    0.8579   29.4082 N.pl3   1  UNL1       -0.3046
      6 C           0.1301    0.3077   29.1896 C.3     1  UNL1        0.1081
      7 C          -0.5818    0.5610   27.8938 C.3     1  UNL1        0.0938
      8 C           2.2202    0.6046   30.7039 C.ar    1  UNL1        0.0493
      9 C           3.0893   -0.6083   30.8576 C.ar    1  UNL1        0.0146
     10 C           3.8011   -0.8616   32.1534 C.ar    1  UNL1        0.0028
     11 C           3.6440    0.0980   33.2955 C.ar    1  UNL1        0.0192
     12 C           2.7750    1.3109   33.1419 C.ar    1  UNL1        0.0821
     13 N           2.6179    2.2705   34.2840 N.ar    1  UNL1       -0.2496
     14 C           1.7488    3.4834   34.1303 C.ar    1  UNL1        0.0593
     15 C           1.5917    4.4431   35.2724 C.3     1  UNL1        0.0521
     16 C           1.0370    3.7367   32.8346 C.ar    1  UNL1        0.0148
     17 C           1.1941    2.7771   31.6924 C.ar    1  UNL1        0.0039
     18 C           2.0631    1.5642   31.8461 C.ar    1  UNL1        0.0310
     19 C          -1.0018    3.0173   25.1319 C.3     1  UNL1        0.0468
     20 C          -6.2312    4.4256   20.8440 C.ar    1  UNL1        0.1331
     21 N          -7.4183    4.8860   21.6370 N.ar    1  UNL1       -0.2209
     22 C          -7.0391    4.8747   23.0882 C.ar    1  UNL1        0.1828
     23 N          -5.6175    4.4073   23.1921 N.ar    1  UNL1       -0.2851
     24 C          -5.1183    4.1298   21.8052 C.ar    1  UNL1        0.1070
     25 C          -3.7147    3.6434   21.5966 C.3     1  UNL1        0.2509
     26 O          -2.8104    3.4347   22.7751 O.3     1  UNL1       -0.4678
     27 C          -3.3097    3.7123   24.1621 C.ar    1  UNL1        0.1511
     28 C          -2.4054    3.5036   25.3405 C.ar    1  UNL1        0.0146
     29 C          -2.9047    3.7811   26.7274 C.ar    1  UNL1       -0.0011
     30 C          -4.3082    4.2674   26.9359 C.ar    1  UNL1        0.0014
     31 C          -5.2125    4.4762   25.7575 C.ar    1  UNL1        0.0206
     32 C          -4.7133    4.1986   24.3706 C.ar    1  UNL1        0.0989
     33 C          -5.5090    5.3503   18.5260 C.3     1  UNL1        0.0790
     34 C          -6.1681    4.2856   19.3519 C.2     1  UNL1        0.1922
     35 O          -6.7639    3.0810   18.6857 O.2     1  UNL1       -0.2897
@<TRIPOS>BOND
     1    33    34    1
     2    34    35    2
     3    34    20    1
     4    20    21   ar
     5    21    22   ar
     6    22    23   ar
     7    23    24   ar
     8    24    25    1
     9    25    26    1
    10    26    27    1
    11    27    28   ar
    12    28    19    1
    13    19     1    1
    14     1     2    1
    15     2     3    1
    16     3     4    1
    17     4     5    1
    18     5     8    1
    19     8     9   ar
    20     9    10   ar
    21    10    11   ar
    22    11    12   ar
    23    12    13   ar
    24    13    14   ar
    25    14    15    1
    26    14    16   ar
    27    16    17   ar
    28    17    18   ar
    29     5     6    1
    30     6     7    1
    31    28    29   ar
    32    29    30   ar
    33    30    31   ar
    34    31    32   ar
    35    24    20   ar
    36    32    27   ar
    37    32    23    1
    38     7     2    1
    39    18     8   ar
    40    18    12   ar
@<TRIPOS>MOLECULE
*****
 35 40 0 0 0
SMALL
GASTEIGER

@<TRIPOS>ATOM
      1 C           7.7379   -3.7374   32.0099 C.3     1  UNL1        0.0770
      2 N           7.9341   -4.3326   30.6472 N.3     1  UNL1       -0.2695
      3 C           6.9039   -5.2638   30.0800 C.3     1  UNL1        0.0938
      4 C           7.1001   -5.8590   28.7172 C.3     1  UNL1        0.1081
      5 N           8.3265   -5.5230   27.9215 N.pl3   1  UNL1       -0.3046
      6 C           9.3567   -4.5919   28.4887 C.3     1  UNL1        0.1081
      7 C           9.1605   -3.9967   29.8515 C.3     1  UNL1        0.0938
      8 C           8.5227   -6.1182   26.5588 C.ar    1  UNL1        0.0493
      9 C           9.3396   -7.3657   26.3957 C.ar    1  UNL1        0.0146
     10 C           9.5359   -7.9609   25.0329 C.ar    1  UNL1        0.0028
     11 C           8.9152   -7.3087   23.8332 C.ar    1  UNL1        0.0192
     12 C           8.0983   -6.0613   23.9962 C.ar    1  UNL1        0.0821
     13 N           7.4776   -5.4090   22.7965 N.ar    1  UNL1       -0.2496
     14 C           6.6607   -4.1616   22.9596 C.ar    1  UNL1        0.0593
     15 C           6.0400   -3.5094   21.7598 C.3     1  UNL1        0.0521
     16 C           6.4644   -3.5664   24.3223 C.ar    1  UNL1        0.0148
     17 C           7.0851   -4.2186   25.5221 C.ar    1  UNL1        0.0039
     18 C           7.9020   -5.4660   25.3590 C.ar    1  UNL1        0.0310
     19 C           7.5859   -2.2533   32.1654 C.3     1  UNL1        0.0468
     20 C           2.9638   -0.1811   27.4687 C.ar    1  UNL1        0.1331
     21 N           1.7490    0.3563   28.1654 N.ar    1  UNL1       -0.2209
     22 C           1.9774    0.2493   29.6440 C.ar    1  UNL1        0.1828
     23 N           3.3333   -0.3542   29.8612 N.ar    1  UNL1       -0.2851
     24 C           3.9429   -0.6203   28.5168 C.ar    1  UNL1        0.1070
     25 C           5.3109   -1.2281   28.4206 C.3     1  UNL1        0.2509
     26 O           6.0692   -1.5698   29.6688 O.3     1  UNL1       -0.4678
     27 C           5.4595   -1.3037   31.0133 C.ar    1  UNL1        0.1511
     28 C           6.2178   -1.6455   32.2616 C.ar    1  UNL1        0.0146
     29 C           5.6082   -1.3794   33.6060 C.ar    1  UNL1       -0.0011
     30 C           4.2402   -0.7717   33.7022 C.ar    1  UNL1        0.0014
     31 C           3.4819   -0.4299   32.4539 C.ar    1  UNL1        0.0206
     32 C           4.0916   -0.6960   31.1095 C.ar    1  UNL1        0.0989
     33 C           2.6921    0.8509   25.0999 C.3     1  UNL1        0.0790
     34 C           3.1643   -0.2647   25.9845 C.2     1  UNL1        0.1922
     35 O           3.8370   -1.4638   25.3849 O.2     1  UNL1       -0.2897
@<TRIPOS>BOND
     1    33    34    1
     2    34    35    2
     3    34    20    1
     4    20    21   ar
     5    21    22   ar
     6    22    23   ar
     7    23    24   ar
     8    24    25    1
     9    25    26    1
    10    26    27    1
    11    27    28   ar
    12    28    19    1
    13    19     1    1
    14     1     2    1
    15     2     3    1
    16     3     4    1
    17     4     5    1
    18     5     8    1
    19     8     9   ar
    20     9    10   ar
    21    10    11   ar
    22    11    12   ar
    23    12    13   ar
    24    13    14   ar
    25    14    15    1
    26    14    16   ar
    27    16    17   ar
    28    17    18   ar
    29     5     6    1
    30     6     7    1
    31    28    29   ar
    32    29    30   ar
    33    30    31   ar
    34    31    32   ar
    35    24    20   ar
    36    32    27   ar
    37    32    23    1
    38     7     2    1
    39    18     8   ar
    40    18    12   ar
