@<TRIPOS>MOLECULE
*****
 33 35 0 0 0
SMALL
GASTEIGER

@<TRIPOS>ATOM
      1 C           7.2464   -5.9295   27.0329 C.3     1  UNL1        0.1169
      2 C           8.5051   -4.0987   23.1196 C.ar    1  UNL1        0.1387
      3 C           7.0569   -4.3900   23.3800 C.ar    1  UNL1        0.0366
      4 C           6.6374   -5.0003   24.6844 C.ar    1  UNL1        0.0008
      5 C           7.6660   -5.3192   25.7285 C.ar    1  UNL1       -0.0001
      6 C           9.1142   -5.0280   25.4681 C.ar    1  UNL1        0.0008
      7 C           9.5337   -4.4177   24.1637 C.ar    1  UNL1        0.0366
      8 C           8.3799   -2.1533   21.4022 C.3     1  UNL1        0.2525
      9 O           8.9246   -3.4884   21.8152 O.3     1  UNL1       -0.4714
     10 C           7.0054   -5.0546   28.2272 C.ar    1  UNL1       -0.0001
     11 C           7.1054   -5.6282   29.6096 C.ar    1  UNL1        0.0008
     12 C           6.8644   -4.7532   30.8039 C.ar    1  UNL1        0.0366
     13 C           6.5234   -3.3047   30.6158 C.ar    1  UNL1        0.1387
     14 C           6.4234   -2.7310   29.2335 C.ar    1  UNL1        0.0366
     15 C           6.6644   -3.6060   28.0391 C.ar    1  UNL1        0.0008
     16 O           6.2824   -2.4297   31.8102 O.3     1  UNL1       -0.4714
     17 C           5.2235   -2.7966   32.8073 C.3     1  UNL1        0.2525
     18 N           7.0679   -7.4147   27.1431 N.am    1  UNL1       -0.2972
     19 C           8.2117   -8.2766   27.5890 C.2     1  UNL1        0.2430
     20 O           9.5341   -7.6533   27.9248 O.2     1  UNL1       -0.2732
     21 H           6.2000   -7.8239   26.9227 H       1  UNL1        0.1500
     22 C           8.0331   -9.7619   27.6992 C.3     1  UNL1        0.1759
     23 N           6.6544  -10.3528   27.7103 N.am    1  UNL1       -0.2931
     24 C           6.4540  -11.7816   28.1204 C.2     1  UNL1        0.2462
     25 O           7.6324  -12.6197   28.5195 O.2     1  UNL1       -0.2701
     26 H           5.8810   -9.8027   27.4484 H       1  UNL1        0.1502
     27 C           5.0753  -12.3724   28.1315 C.ar    1  UNL1        0.0535
     28 C           4.6279  -13.2537   27.0032 C.ar    1  UNL1        0.0068
     29 C           3.2492  -13.8445   27.0144 C.ar    1  UNL1        0.0298
     30 C           2.3179  -13.5540   28.1538 C.ar    1  UNL1        0.1401
     31 F           0.9392  -14.1449   28.1649 F       1  UNL1       -0.2042
     32 C           2.7653  -12.6727   29.2821 C.ar    1  UNL1        0.0298
     33 C           4.1440  -12.0819   29.2710 C.ar    1  UNL1        0.0068
@<TRIPOS>BOND
     1     8     9    1
     2     9     2    1
     3     2     3   ar
     4     3     4   ar
     5     4     5   ar
     6     5     1    1
     7     1    18    1
     8    18    19   am
     9    19    20    2
    10    19    22    1
    11    22    23    1
    12    23    24   am
    13    24    25    2
    14    24    27    1
    15    27    28   ar
    16    28    29   ar
    17    29    30   ar
    18    30    31    1
    19    30    32   ar
    20    32    33   ar
    21     1    10    1
    22    10    11   ar
    23    11    12   ar
    24    12    13   ar
    25    13    16    1
    26    16    17    1
    27    13    14   ar
    28    14    15   ar
    29     5     6   ar
    30     6     7   ar
    31     7     2   ar
    32    33    27   ar
    33    15    10   ar
    34    18    21    1
    35    23    26    1
@<TRIPOS>MOLECULE
*****
 33 35 0 0 0
SMALL
GASTEIGER

@<TRIPOS>ATOM
      1 C          -9.0432  -17.0571   22.9671 C.3     1  UNL1        0.1169
      2 C          -6.6184  -15.0738   26.1978 C.ar    1  UNL1        0.1387
      3 C          -8.0554  -15.4246   26.4469 C.ar    1  UNL1        0.0366
      4 C          -8.8636  -16.0857   25.3700 C.ar    1  UNL1        0.0008
      5 C          -8.2349  -16.3960   24.0440 C.ar    1  UNL1       -0.0001
      6 C          -6.7980  -16.0453   23.7949 C.ar    1  UNL1        0.0008
      7 C          -5.9897  -15.3842   24.8717 C.ar    1  UNL1        0.0366
      8 C          -6.4928  -13.5892   28.3261 C.3     1  UNL1        0.2525
      9 O          -5.8102  -14.4127   27.2747 O.3     1  UNL1       -0.4714
     10 C         -10.4887  -17.3791   23.2050 C.ar    1  UNL1       -0.0001
     11 C         -11.5572  -16.5976   22.4995 C.ar    1  UNL1        0.0008
     12 C         -13.0027  -16.9196   22.7375 C.ar    1  UNL1        0.0366
     13 C         -13.3799  -18.0231   23.6809 C.ar    1  UNL1        0.1387
     14 C         -12.3115  -18.8046   24.3864 C.ar    1  UNL1        0.0366
     15 C         -10.8658  -18.4826   24.1485 C.ar    1  UNL1        0.0008
     16 O         -14.8255  -18.3451   23.9188 O.3     1  UNL1       -0.4714
     17 C         -15.3161  -18.6072   25.3118 C.3     1  UNL1        0.2525
     18 N          -8.4059  -17.3962   21.6522 N.am    1  UNL1       -0.2972
     19 C          -8.1175  -18.8267   21.3053 C.2     1  UNL1        0.2430
     20 O          -8.4664  -19.9182   22.2732 O.2     1  UNL1       -0.2732
     21 H          -8.1768  -16.6798   21.0170 H       1  UNL1        0.1500
     22 C          -7.4802  -19.1657   19.9904 C.3     1  UNL1        0.1759
     23 N          -6.0657  -18.7505   19.7133 N.am    1  UNL1       -0.2931
     24 C          -4.9613  -19.1937   20.6265 C.2     1  UNL1        0.2462
     25 O          -5.2715  -20.0522   21.8168 O.2     1  UNL1       -0.2701
     26 H          -5.8621  -18.1870   18.9321 H       1  UNL1        0.1502
     27 C          -3.5469  -18.7784   20.3495 C.ar    1  UNL1        0.0535
     28 C          -2.5054  -18.9014   21.4219 C.ar    1  UNL1        0.0068
     29 C          -1.0909  -18.4861   21.1448 C.ar    1  UNL1        0.0298
     30 C          -0.7179  -17.9478   19.7954 C.ar    1  UNL1        0.1401
     31 F           0.6966  -17.5325   19.5183 F       1  UNL1       -0.2042
     32 C          -1.7594  -17.8248   18.7229 C.ar    1  UNL1        0.0298
     33 C          -3.1739  -18.2401   18.9999 C.ar    1  UNL1        0.0068
@<TRIPOS>BOND
     1     8     9    1
     2     9     2    1
     3     2     3   ar
     4     3     4   ar
     5     4     5   ar
     6     5     1    1
     7     1    18    1
     8    18    19   am
     9    19    20    2
    10    19    22    1
    11    22    23    1
    12    23    24   am
    13    24    25    2
    14    24    27    1
    15    27    28   ar
    16    28    29   ar
    17    29    30   ar
    18    30    31    1
    19    30    32   ar
    20    32    33   ar
    21     1    10    1
    22    10    11   ar
    23    11    12   ar
    24    12    13   ar
    25    13    16    1
    26    16    17    1
    27    13    14   ar
    28    14    15   ar
    29     5     6   ar
    30     6     7   ar
    31     7     2   ar
    32    33    27   ar
    33    15    10   ar
    34    18    21    1
    35    23    26    1
@<TRIPOS>MOLECULE
*****
 33 35 0 0 0
SMALL
GASTEIGER

@<TRIPOS>ATOM
      1 C          -0.9104    3.2010   25.8802 C.3     1  UNL1        0.1169
      2 C          -5.2194    4.1539   25.0002 C.ar    1  UNL1        0.1387
      3 C          -4.3210    3.6623   23.9042 C.ar    1  UNL1        0.0366
      4 C          -2.8847    3.3447   24.1975 C.ar    1  UNL1        0.0008
      5 C          -2.3467    3.5186   25.5869 C.ar    1  UNL1       -0.0001
      6 C          -3.2451    4.0102   26.6829 C.ar    1  UNL1        0.0008
      7 C          -4.6815    4.3278   26.3896 C.ar    1  UNL1        0.0366
      8 C          -7.1460    4.4874   23.2894 C.3     1  UNL1        0.2525
      9 O          -6.6558    4.4715   24.7069 O.3     1  UNL1       -0.4714
     10 C          -0.5106    2.7289   27.2466 C.ar    1  UNL1       -0.0001
     11 C          -0.9193    1.3649   27.7182 C.ar    1  UNL1        0.0008
     12 C          -0.5195    0.8927   29.0847 C.ar    1  UNL1        0.0366
     13 C           0.2890    1.7846   29.9796 C.ar    1  UNL1        0.1387
     14 C           0.6977    3.1486   29.5081 C.ar    1  UNL1        0.0366
     15 C           0.2979    3.6208   28.1416 C.ar    1  UNL1        0.0008
     16 O           0.6888    1.3124   31.3461 O.3     1  UNL1       -0.4714
     17 C           1.6821    2.0977   32.1501 C.3     1  UNL1        0.2525
     18 N           0.1262    3.3556   24.8071 N.am    1  UNL1       -0.2972
     19 C           0.7096    2.1413   24.1474 C.2     1  UNL1        0.2430
     20 O           0.2564    0.7725   24.5609 O.2     1  UNL1       -0.2732
     21 H           0.4236    4.2540   24.5357 H       1  UNL1        0.1500
     22 C           1.7462    2.2959   23.0742 C.3     1  UNL1        0.1759
     23 N           2.5594    1.1123   22.6410 N.am    1  UNL1       -0.2931
     24 C           1.9992    0.1420   21.6437 C.2     1  UNL1        0.2462
     25 O           0.6257    0.3552   21.0796 O.2     1  UNL1       -0.2701
     26 H           3.4608    0.9723   23.0112 H       1  UNL1        0.1502
     27 C           2.8124   -1.0417   21.2104 C.ar    1  UNL1        0.0535
     28 C           3.7111   -1.7339   22.1917 C.ar    1  UNL1        0.0068
     29 C           4.5243   -2.9175   21.7585 C.ar    1  UNL1        0.0298
     30 C           4.4388   -3.4089   20.3438 C.ar    1  UNL1        0.1401
     31 F           5.2520   -4.5925   19.9106 F       1  UNL1       -0.2042
     32 C           3.5401   -2.7167   19.3624 C.ar    1  UNL1        0.0298
     33 C           2.7268   -1.5331   19.7957 C.ar    1  UNL1        0.0068
@<TRIPOS>BOND
     1     8     9    1
     2     9     2    1
     3     2     3   ar
     4     3     4   ar
     5     4     5   ar
     6     5     1    1
     7     1    18    1
     8    18    19   am
     9    19    20    2
    10    19    22    1
    11    22    23    1
    12    23    24   am
    13    24    25    2
    14    24    27    1
    15    27    28   ar
    16    28    29   ar
    17    29    30   ar
    18    30    31    1
    19    30    32   ar
    20    32    33   ar
    21     1    10    1
    22    10    11   ar
    23    11    12   ar
    24    12    13   ar
    25    13    16    1
    26    16    17    1
    27    13    14   ar
    28    14    15   ar
    29     5     6   ar
    30     6     7   ar
    31     7     2   ar
    32    33    27   ar
    33    15    10   ar
    34    18    21    1
    35    23    26    1
@<TRIPOS>MOLECULE
*****
 33 35 0 0 0
SMALL
GASTEIGER

@<TRIPOS>ATOM
      1 C          -1.0566    2.6446   25.6313 C.3     1  UNL1        0.1169
      2 C           0.5680    1.4520   29.6548 C.ar    1  UNL1        0.1387
      3 C           1.0027    2.7408   29.0225 C.ar    1  UNL1        0.0366
      4 C           0.4612    3.1384   27.6813 C.ar    1  UNL1        0.0008
      5 C          -0.5151    2.2471   26.9725 C.ar    1  UNL1       -0.0001
      6 C          -0.9498    0.9582   27.6048 C.ar    1  UNL1        0.0008
      7 C          -0.4083    0.5607   28.9459 C.ar    1  UNL1        0.0366
      8 C           1.2860    2.0869   32.0696 C.3     1  UNL1        0.2525
      9 O           1.1095    1.0544   30.9959 O.3     1  UNL1       -0.4714
     10 C          -2.4403    3.2127   25.5196 C.ar    1  UNL1       -0.0001
     11 C          -3.1411    3.2253   24.1934 C.ar    1  UNL1        0.0008
     12 C          -4.5249    3.7934   24.0817 C.ar    1  UNL1        0.0366
     13 C          -5.2079    4.3489   25.2961 C.ar    1  UNL1        0.1387
     14 C          -4.5071    4.3364   26.6223 C.ar    1  UNL1        0.0366
     15 C          -3.1233    3.7682   26.7341 C.ar    1  UNL1        0.0008
     16 O          -6.5917    4.9170   25.1844 O.3     1  UNL1       -0.4714
     17 C          -7.3879    4.7110   23.9300 C.3     1  UNL1        0.2525
     18 N          -0.2144    2.4741   24.4019 N.am    1  UNL1       -0.2972
     19 C           0.5137    3.6506   23.8224 C.2     1  UNL1        0.2430
     20 O           0.3996    4.9976   24.4724 O.2     1  UNL1       -0.2732
     21 H          -0.1395    1.5900   23.9752 H       1  UNL1        0.1500
     22 C           1.3559    3.4800   22.5929 C.3     1  UNL1        0.1759
     23 N           2.1962    2.2490   22.4243 N.am    1  UNL1       -0.2931
     24 C           1.5821    0.9891   21.8899 C.2     1  UNL1        0.2462
     25 O           0.1277    0.9603   21.5241 O.2     1  UNL1       -0.2701
     26 H           3.1508    2.2679   22.6644 H       1  UNL1        0.1502
     27 C           2.4224   -0.2419   21.7214 C.ar    1  UNL1        0.0535
     28 C           3.1603   -0.8130   22.8958 C.ar    1  UNL1        0.0068
     29 C           4.0005   -2.0441   22.7273 C.ar    1  UNL1        0.0298
     30 C           4.1030   -2.7040   21.3842 C.ar    1  UNL1        0.1401
     31 F           4.9433   -3.9351   21.2156 F       1  UNL1       -0.2042
     32 C           3.3652   -2.1330   20.2096 C.ar    1  UNL1        0.0298
     33 C           2.5249   -0.9019   20.3782 C.ar    1  UNL1        0.0068
@<TRIPOS>BOND
     1     8     9    1
     2     9     2    1
     3     2     3   ar
     4     3     4   ar
     5     4     5   ar
     6     5     1    1
     7     1    18    1
     8    18    19   am
     9    19    20    2
    10    19    22    1
    11    22    23    1
    12    23    24   am
    13    24    25    2
    14    24    27    1
    15    27    28   ar
    16    28    29   ar
    17    29    30   ar
    18    30    31    1
    19    30    32   ar
    20    32    33   ar
    21     1    10    1
    22    10    11   ar
    23    11    12   ar
    24    12    13   ar
    25    13    16    1
    26    16    17    1
    27    13    14   ar
    28    14    15   ar
    29     5     6   ar
    30     6     7   ar
    31     7     2   ar
    32    33    27   ar
    33    15    10   ar
    34    18    21    1
    35    23    26    1
@<TRIPOS>MOLECULE
*****
 33 35 0 0 0
SMALL
GASTEIGER

@<TRIPOS>ATOM
      1 C          -0.7890    3.0980   25.9008 C.3     1  UNL1        0.1169
      2 C           0.4345    1.8545   30.0489 C.ar    1  UNL1        0.1387
      3 C           0.8063    3.2129   29.5329 C.ar    1  UNL1        0.0366
      4 C           0.3985    3.6274   28.1502 C.ar    1  UNL1        0.0008
      5 C          -0.3812    2.6835   27.2835 C.ar    1  UNL1       -0.0001
      6 C          -0.7530    1.3251   27.7996 C.ar    1  UNL1        0.0008
      7 C          -0.3452    0.9105   29.1823 C.ar    1  UNL1        0.0366
      8 C           2.2755    1.1065   31.7226 C.3     1  UNL1        0.2525
      9 O           0.8423    1.4400   31.4316 O.3     1  UNL1       -0.4714
     10 C          -2.2245    3.4185   25.6067 C.ar    1  UNL1       -0.0001
     11 C          -3.1188    3.9258   26.6990 C.ar    1  UNL1        0.0008
     12 C          -4.5543    4.2463   26.4048 C.ar    1  UNL1        0.0366
     13 C          -5.0956    4.0595   25.0184 C.ar    1  UNL1        0.1387
     14 C          -4.2014    3.5522   23.9262 C.ar    1  UNL1        0.0366
     15 C          -2.7659    3.2317   24.2203 C.ar    1  UNL1        0.0008
     16 O          -6.5312    4.3800   24.7243 O.3     1  UNL1       -0.4714
     17 C          -6.8726    5.4931   23.7787 C.3     1  UNL1        0.2525
     18 N           0.2386    3.1920   24.8123 N.am    1  UNL1       -0.2972
     19 C           0.7559    1.9446   24.1594 C.2     1  UNL1        0.2430
     20 O           0.2456    0.6031   24.5951 O.2     1  UNL1       -0.2732
     21 H           0.5736    4.0725   24.5263 H       1  UNL1        0.1500
     22 C           1.7837    2.0386   23.0708 C.3     1  UNL1        0.1759
     23 N           2.1238    0.8275   22.2538 N.am    1  UNL1       -0.2931
     24 C           3.1725   -0.1312   22.7346 C.2     1  UNL1        0.2462
     25 O           3.8810    0.1212   24.0325 O.2     1  UNL1       -0.2701
     26 H           1.6588    0.6618   21.4020 H       1  UNL1        0.1502
     27 C           3.5126   -1.3423   21.9177 C.ar    1  UNL1        0.0535
     28 C           3.1269   -1.4026   20.4694 C.ar    1  UNL1        0.0068
     29 C           3.4670   -2.6138   19.6525 C.ar    1  UNL1        0.0298
     30 C           4.1929   -3.7646   20.2838 C.ar    1  UNL1        0.1401
     31 F           4.5331   -4.9758   19.4668 F       1  UNL1       -0.2042
     32 C           4.5787   -3.7044   21.7321 C.ar    1  UNL1        0.0298
     33 C           4.2386   -2.4932   22.5491 C.ar    1  UNL1        0.0068
@<TRIPOS>BOND
     1     8     9    1
     2     9     2    1
     3     2     3   ar
     4     3     4   ar
     5     4     5   ar
     6     5     1    1
     7     1    18    1
     8    18    19   am
     9    19    20    2
    10    19    22    1
    11    22    23    1
    12    23    24   am
    13    24    25    2
    14    24    27    1
    15    27    28   ar
    16    28    29   ar
    17    29    30   ar
    18    30    31    1
    19    30    32   ar
    20    32    33   ar
    21     1    10    1
    22    10    11   ar
    23    11    12   ar
    24    12    13   ar
    25    13    16    1
    26    16    17    1
    27    13    14   ar
    28    14    15   ar
    29     5     6   ar
    30     6     7   ar
    31     7     2   ar
    32    33    27   ar
    33    15    10   ar
    34    18    21    1
    35    23    26    1
@<TRIPOS>MOLECULE
*****
 33 35 0 0 0
SMALL
GASTEIGER

@<TRIPOS>ATOM
      1 C          -1.3474    2.9229   26.3745 C.3     1  UNL1        0.1169
      2 C          -4.5100    6.0227   27.1745 C.ar    1  UNL1        0.1387
      3 C          -4.8973    4.6784   26.6334 C.ar    1  UNL1        0.0366
      4 C          -3.8431    3.6452   26.3667 C.ar    1  UNL1        0.0008
      5 C          -2.4016    3.9562   26.6412 C.ar    1  UNL1       -0.0001
      6 C          -2.0143    5.3005   27.1823 C.ar    1  UNL1        0.0008
      7 C          -3.0685    6.3337   27.4489 C.ar    1  UNL1        0.0366
      8 C          -6.9065    6.6399   27.9655 C.3     1  UNL1        0.2525
      9 O          -5.5641    7.0559   27.4412 O.3     1  UNL1       -0.4714
     10 C          -0.6015    2.3003   27.5172 C.ar    1  UNL1       -0.0001
     11 C           0.3616    3.1227   28.3211 C.ar    1  UNL1        0.0008
     12 C           1.1076    2.5001   29.4638 C.ar    1  UNL1        0.0366
     13 C           0.8906    1.0551   29.8026 C.ar    1  UNL1        0.1387
     14 C          -0.0724    0.2327   28.9988 C.ar    1  UNL1        0.0366
     15 C          -0.8185    0.8553   27.8560 C.ar    1  UNL1        0.0008
     16 O           1.6366    0.4325   30.9454 O.3     1  UNL1       -0.4714
     17 C           2.6638   -0.6283   30.6814 C.3     1  UNL1        0.2525
     18 N          -1.0393    2.5123   24.9651 N.am    1  UNL1       -0.2972
     19 C           0.0956    3.1582   24.2269 C.2     1  UNL1        0.2430
     20 O           0.9222    4.2146   24.8980 O.2     1  UNL1       -0.2732
     21 H          -1.5818    1.8189   24.5246 H       1  UNL1        0.1500
     22 C           0.4038    2.7475   22.8174 C.3     1  UNL1        0.1759
     23 N           1.4062    1.6631   22.5544 N.am    1  UNL1       -0.2931
     24 C           1.1104    0.5981   21.5404 C.2     1  UNL1        0.2462
     25 O          -0.1880    0.6175   20.7893 O.2     1  UNL1       -0.2701
     26 H           2.2583    1.6504   23.0473 H       1  UNL1        0.1502
     27 C           2.1129   -0.4862   21.2773 C.ar    1  UNL1        0.0535
     28 C           2.1893   -1.1242   19.9220 C.ar    1  UNL1        0.0068
     29 C           3.1918   -2.2086   19.6589 C.ar    1  UNL1        0.0298
     30 C           4.1178   -2.6550   20.7513 C.ar    1  UNL1        0.1401
     31 F           5.1203   -3.7394   20.4882 F       1  UNL1       -0.2042
     32 C           4.0414   -2.0170   22.1067 C.ar    1  UNL1        0.0298
     33 C           3.0389   -0.9326   22.3698 C.ar    1  UNL1        0.0068
@<TRIPOS>BOND
     1     8     9    1
     2     9     2    1
     3     2     3   ar
     4     3     4   ar
     5     4     5   ar
     6     5     1    1
     7     1    18    1
     8    18    19   am
     9    19    20    2
    10    19    22    1
    11    22    23    1
    12    23    24   am
    13    24    25    2
    14    24    27    1
    15    27    28   ar
    16    28    29   ar
    17    29    30   ar
    18    30    31    1
    19    30    32   ar
    20    32    33   ar
    21     1    10    1
    22    10    11   ar
    23    11    12   ar
    24    12    13   ar
    25    13    16    1
    26    16    17    1
    27    13    14   ar
    28    14    15   ar
    29     5     6   ar
    30     6     7   ar
    31     7     2   ar
    32    33    27   ar
    33    15    10   ar
    34    18    21    1
    35    23    26    1
@<TRIPOS>MOLECULE
*****
 33 35 0 0 0
SMALL
GASTEIGER

@<TRIPOS>ATOM
      1 C          -5.1824  -18.1089   22.5480 C.3     1  UNL1        0.1169
      2 C          -5.6806  -15.2552   25.9915 C.ar    1  UNL1        0.1387
      3 C          -6.6365  -15.2109   24.8364 C.ar    1  UNL1        0.0366
      4 C          -6.4704  -16.1622   23.6886 C.ar    1  UNL1        0.0008
      5 C          -5.3484  -17.1577   23.6958 C.ar    1  UNL1       -0.0001
      6 C          -4.3925  -17.2019   24.8509 C.ar    1  UNL1        0.0008
      7 C          -4.5586  -16.2507   25.9987 C.ar    1  UNL1        0.0366
      8 C          -7.0503  -14.4044   28.0286 C.3     1  UNL1        0.2525
      9 O          -5.8466  -14.3039   27.1393 O.3     1  UNL1       -0.4714
     10 C          -3.8451  -18.2583   21.8851 C.ar    1  UNL1       -0.0001
     11 C          -3.3048  -19.6253   21.5859 C.ar    1  UNL1        0.0008
     12 C          -1.9676  -19.7747   20.9230 C.ar    1  UNL1        0.0366
     13 C          -1.1706  -18.5571   20.5593 C.ar    1  UNL1        0.1387
     14 C          -1.7108  -17.1901   20.8585 C.ar    1  UNL1        0.0366
     15 C          -3.0481  -17.0407   21.5214 C.ar    1  UNL1        0.0008
     16 O           0.1667  -18.7065   19.8965 O.3     1  UNL1       -0.4714
     17 C           1.2115  -17.6439   20.0675 C.3     1  UNL1        0.2525
     18 N          -6.3535  -18.9108   22.0630 N.am    1  UNL1       -0.2972
     19 C          -6.6462  -18.9981   20.5944 C.2     1  UNL1        0.2430
     20 O          -5.7677  -18.2835   19.6108 O.2     1  UNL1       -0.2732
     21 H          -6.9302  -19.3798   22.7085 H       1  UNL1        0.1500
     22 C          -7.8175  -19.8001   20.1094 C.3     1  UNL1        0.1759
     23 N          -9.1308  -19.7205   20.8298 N.am    1  UNL1       -0.2931
     24 C          -9.5921  -18.4148   21.4062 C.2     1  UNL1        0.2462
     25 O          -8.7402  -17.1885   21.2621 O.2     1  UNL1       -0.2701
     26 H          -9.6899  -20.5252   20.9243 H       1  UNL1        0.1502
     27 C         -10.9054  -18.3352   22.1265 C.ar    1  UNL1        0.0535
     28 C         -10.9770  -18.6466   23.5921 C.ar    1  UNL1        0.0068
     29 C         -12.2903  -18.5670   24.3125 C.ar    1  UNL1        0.0298
     30 C         -13.5319  -18.1760   23.5673 C.ar    1  UNL1        0.1401
     31 F         -14.8452  -18.0964   24.2877 F       1  UNL1       -0.2042
     32 C         -13.4604  -17.8645   22.1017 C.ar    1  UNL1        0.0298
     33 C         -12.1471  -17.9441   21.3813 C.ar    1  UNL1        0.0068
@<TRIPOS>BOND
     1     8     9    1
     2     9     2    1
     3     2     3   ar
     4     3     4   ar
     5     4     5   ar
     6     5     1    1
     7     1    18    1
     8    18    19   am
     9    19    20    2
    10    19    22    1
    11    22    23    1
    12    23    24   am
    13    24    25    2
    14    24    27    1
    15    27    28   ar
    16    28    29   ar
    17    29    30   ar
    18    30    31    1
    19    30    32   ar
    20    32    33   ar
    21     1    10    1
    22    10    11   ar
    23    11    12   ar
    24    12    13   ar
    25    13    16    1
    26    16    17    1
    27    13    14   ar
    28    14    15   ar
    29     5     6   ar
    30     6     7   ar
    31     7     2   ar
    32    33    27   ar
    33    15    10   ar
    34    18    21    1
    35    23    26    1
@<TRIPOS>MOLECULE
*****
 33 35 0 0 0
SMALL
GASTEIGER

@<TRIPOS>ATOM
      1 C          -1.1882    3.8471   23.2466 C.3     1  UNL1        0.1169
      2 C          -0.8690    1.7297   27.2045 C.ar    1  UNL1        0.1387
      3 C          -1.7924    2.9021   27.0534 C.ar    1  UNL1        0.0366
      4 C          -1.8987    3.6079   25.7341 C.ar    1  UNL1        0.0008
      5 C          -1.0818    3.1413   24.5659 C.ar    1  UNL1       -0.0001
      6 C          -0.1585    1.9689   24.7169 C.ar    1  UNL1        0.0008
      7 C          -0.0521    1.2631   26.0362 C.ar    1  UNL1        0.0366
      8 C          -1.2255   -0.3970   28.6537 C.3     1  UNL1        0.2525
      9 O          -0.7626    1.0239   28.5238 O.3     1  UNL1       -0.4714
     10 C          -2.4847    4.4807   22.8374 C.ar    1  UNL1       -0.0001
     11 C          -3.6476    3.6204   22.4403 C.ar    1  UNL1        0.0008
     12 C          -4.9441    4.2540   22.0311 C.ar    1  UNL1        0.0366
     13 C          -5.0779    5.7480   22.0190 C.ar    1  UNL1        0.1387
     14 C          -3.9151    6.6083   22.4160 C.ar    1  UNL1        0.0366
     15 C          -2.6185    5.9747   22.8253 C.ar    1  UNL1        0.0008
     16 O          -6.3745    6.3816   21.6097 O.3     1  UNL1       -0.4714
     17 C          -7.3160    5.6452   20.7036 C.3     1  UNL1        0.2525
     18 N           0.0019    3.9192   22.3365 N.am    1  UNL1       -0.2972
     19 C           0.0941    3.0079   21.1487 C.2     1  UNL1        0.2430
     20 O          -1.0038    2.0243   20.8710 O.2     1  UNL1       -0.2732
     21 H           0.7226    4.5648   22.5188 H       1  UNL1        0.1500
     22 C           1.2844    3.0801   20.2386 C.3     1  UNL1        0.1759
     23 N           2.1803    1.8876   20.0795 N.am    1  UNL1       -0.2931
     24 C           1.8507    0.8316   19.0665 C.2     1  UNL1        0.2462
     25 O           0.6251    0.9681   18.2125 O.2     1  UNL1       -0.2701
     26 H           2.9847    1.7980   20.6400 H       1  UNL1        0.1502
     27 C           2.7466   -0.3609   18.9075 C.ar    1  UNL1        0.0535
     28 C           2.6651   -1.4959   19.8848 C.ar    1  UNL1        0.0068
     29 C           3.5610   -2.6883   19.7258 C.ar    1  UNL1        0.0298
     30 C           4.5385   -2.7458   18.5895 C.ar    1  UNL1        0.1401
     31 F           5.4345   -3.9383   18.4305 F       1  UNL1       -0.2042
     32 C           4.6201   -1.6108   17.6121 C.ar    1  UNL1        0.0298
     33 C           3.7242   -0.4183   17.7712 C.ar    1  UNL1        0.0068
@<TRIPOS>BOND
     1     8     9    1
     2     9     2    1
     3     2     3   ar
     4     3     4   ar
     5     4     5   ar
     6     5     1    1
     7     1    18    1
     8    18    19   am
     9    19    20    2
    10    19    22    1
    11    22    23    1
    12    23    24   am
    13    24    25    2
    14    24    27    1
    15    27    28   ar
    16    28    29   ar
    17    29    30   ar
    18    30    31    1
    19    30    32   ar
    20    32    33   ar
    21     1    10    1
    22    10    11   ar
    23    11    12   ar
    24    12    13   ar
    25    13    16    1
    26    16    17    1
    27    13    14   ar
    28    14    15   ar
    29     5     6   ar
    30     6     7   ar
    31     7     2   ar
    32    33    27   ar
    33    15    10   ar
    34    18    21    1
    35    23    26    1
@<TRIPOS>MOLECULE
*****
 33 35 0 0 0
SMALL
GASTEIGER

@<TRIPOS>ATOM
      1 C           1.5148    0.3387   21.5851 C.3     1  UNL1        0.1169
      2 C           4.5251   -1.1940   18.6120 C.ar    1  UNL1        0.1387
      3 C           4.5678    0.2395   19.0515 C.ar    1  UNL1        0.0366
      4 C           3.5644    0.7504   20.0425 C.ar    1  UNL1        0.0008
      5 C           2.5182   -0.1722   20.5940 C.ar    1  UNL1       -0.0001
      6 C           2.4755   -1.6057   20.1546 C.ar    1  UNL1        0.0008
      7 C           3.4789   -2.1166   19.1635 C.ar    1  UNL1        0.0366
      8 C           6.8788   -2.1611   18.0882 C.3     1  UNL1        0.2525
      9 O           5.5285   -1.7048   17.6210 O.3     1  UNL1       -0.4714
     10 C           1.8544    0.3746   23.0456 C.ar    1  UNL1       -0.0001
     11 C           1.0190    1.1870   23.9902 C.ar    1  UNL1        0.0008
     12 C           1.3587    1.2230   25.4507 C.ar    1  UNL1        0.0366
     13 C           2.5337    0.4466   25.9668 C.ar    1  UNL1        0.1387
     14 C           3.3692   -0.3658   25.0224 C.ar    1  UNL1        0.0366
     15 C           3.0295   -0.4018   23.5617 C.ar    1  UNL1        0.0008
     16 O           2.8734    0.4826   27.4275 O.3     1  UNL1       -0.4714
     17 C           1.9448   -0.1377   28.4289 C.3     1  UNL1        0.2525
     18 N           0.1717    0.8136   21.1155 N.am    1  UNL1       -0.2972
     19 C          -0.0153    2.2426   20.6997 C.2     1  UNL1        0.2430
     20 O           1.1409    3.1967   20.7534 O.2     1  UNL1       -0.2732
     21 H          -0.5872    0.1873   21.0803 H       1  UNL1        0.1500
     22 C          -1.3585    2.7175   20.2301 C.3     1  UNL1        0.1759
     23 N          -2.4116    3.0954   21.2291 N.am    1  UNL1       -0.2931
     24 C          -3.7915    3.4558   20.7643 C.2     1  UNL1        0.2462
     25 O          -4.1182    3.4382   19.3004 O.2     1  UNL1       -0.2701
     26 H          -2.1972    3.1070   22.1899 H       1  UNL1        0.1502
     27 C          -4.8446    3.8337   21.7633 C.ar    1  UNL1        0.0535
     28 C          -6.1167    4.4817   21.3032 C.ar    1  UNL1        0.0068
     29 C          -7.1699    4.8597   22.3022 C.ar    1  UNL1        0.0298
     30 C          -6.9509    4.5896   23.7613 C.ar    1  UNL1        0.1401
     31 F          -8.0041    4.9676   24.7603 F       1  UNL1       -0.2042
     32 C          -5.6788    3.9416   24.2215 C.ar    1  UNL1        0.0298
     33 C          -4.6256    3.5636   23.2225 C.ar    1  UNL1        0.0068
@<TRIPOS>BOND
     1     8     9    1
     2     9     2    1
     3     2     3   ar
     4     3     4   ar
     5     4     5   ar
     6     5     1    1
     7     1    18    1
     8    18    19   am
     9    19    20    2
    10    19    22    1
    11    22    23    1
    12    23    24   am
    13    24    25    2
    14    24    27    1
    15    27    28   ar
    16    28    29   ar
    17    29    30   ar
    18    30    31    1
    19    30    32   ar
    20    32    33   ar
    21     1    10    1
    22    10    11   ar
    23    11    12   ar
    24    12    13   ar
    25    13    16    1
    26    16    17    1
    27    13    14   ar
    28    14    15   ar
    29     5     6   ar
    30     6     7   ar
    31     7     2   ar
    32    33    27   ar
    33    15    10   ar
    34    18    21    1
    35    23    26    1
