@<TRIPOS>MOLECULE
*****
 30 33 0 0 0
SMALL
GASTEIGER

@<TRIPOS>ATOM
      1 N           4.8188   -1.4333   21.0776 N.pl3   1  UNL1       -0.2852
      2 C           4.9699   -1.2989   22.5639 C.3     1  UNL1        0.1220
      3 C           5.6479   -2.5356   23.0747 C.ar    1  UNL1        0.0337
      4 C           6.1603   -3.2168   24.3089 C.ar    1  UNL1        0.0990
      5 N           6.7449   -4.5366   23.9011 N.ar    1  UNL1       -0.2287
      6 N           6.5939   -4.6711   22.4148 N.ar    1  UNL1       -0.1681
      7 C           5.9159   -3.4344   21.9040 C.ar    1  UNL1        0.0960
      8 C           5.4035   -2.7532   20.6697 C.3     1  UNL1        0.1160
      9 C           2.0741    0.6630   19.1228 C.ar    1  UNL1        0.2289
     10 C           2.6999   -0.3452   20.0401 C.ar    1  UNL1        0.0920
     11 C           4.1930   -0.4251   20.1602 C.ar    1  UNL1        0.1382
     12 N           5.0602    0.5034   19.3628 N.ar    1  UNL1       -0.2158
     13 C           4.4344    1.5118   18.4454 C.ar    1  UNL1        0.1441
     14 C           5.3016    2.4403   17.6480 C.3     1  UNL1        0.0738
     15 N           2.9413    1.5916   18.3253 N.ar    1  UNL1       -0.1966
     16 C          -0.2274    1.3669   20.1014 C.3     1  UNL1        0.2542
     17 O           0.5810    0.7429   19.0027 O.3     1  UNL1       -0.4560
     18 C           7.3708   -5.5449   24.8185 C.ar    1  UNL1        0.0841
     19 C           8.1131   -6.7176   24.2495 C.ar    1  UNL1        0.0192
     20 C           8.7390   -7.7259   25.1669 C.ar    1  UNL1        0.0029
     21 C           8.6225   -7.5616   26.6533 C.ar    1  UNL1        0.0184
     22 C           7.8801   -6.3889   27.2224 C.ar    1  UNL1        0.1072
     23 C           7.2543   -5.3806   26.3049 C.ar    1  UNL1        0.0375
     24 S           7.7635   -6.2245   28.7087 S.O2    1  UNL1        0.0105
     25 C           7.6470   -6.0602   30.1951 C.3     1  UNL1        0.1816
     26 O           6.4458   -5.5309   28.5288 O.2     1  UNL1       -0.1686
     27 O           9.0813   -6.9182   28.8887 O.2     1  UNL1       -0.1686
     28 C           5.4649   -3.2964   19.2729 C.3     1  UNL1        0.0240
     29 C           4.6205   -4.4752   18.8888 C.3     1  UNL1        0.0021
     30 C           6.3708   -2.6609   18.2602 C.3     1  UNL1        0.0021
@<TRIPOS>BOND
     1    16    17    1
     2    17     9    1
     3     9    10   ar
     4    10    11   ar
     5    11     1    1
     6     1     2    1
     7     2     3    1
     8     3     4   ar
     9     4     5   ar
    10     5    18    1
    11    18    19   ar
    12    19    20   ar
    13    20    21   ar
    14    21    22   ar
    15    22    24    1
    16    24    25    1
    17    24    26    2
    18    24    27    2
    19    22    23   ar
    20     5     6   ar
    21     6     7   ar
    22     7     8    1
    23     8    28    1
    24    28    29    1
    25    28    30    1
    26    11    12   ar
    27    12    13   ar
    28    13    14    1
    29    13    15   ar
    30    15     9   ar
    31     8     1    1
    32     7     3   ar
    33    23    18   ar
@<TRIPOS>MOLECULE
*****
 30 33 0 0 0
SMALL
GASTEIGER

@<TRIPOS>ATOM
      1 N           4.0123   -1.4758   21.8394 N.pl3   1  UNL1       -0.2852
      2 C           4.5408   -1.8135   23.2020 C.3     1  UNL1        0.1220
      3 C           3.7629   -1.0211   24.2104 C.ar    1  UNL1        0.0337
      4 C           3.6089   -0.7401   25.6758 C.ar    1  UNL1        0.0990
      5 N           2.5044    0.2611   25.8421 N.ar    1  UNL1       -0.2287
      6 N           1.9758    0.5989   24.4796 N.ar    1  UNL1       -0.1681
      7 C           2.7537   -0.1936   23.4711 C.ar    1  UNL1        0.0960
      8 C           2.9077   -0.4745   22.0058 C.3     1  UNL1        0.1160
      9 C           5.6827   -1.7148   18.2474 C.ar    1  UNL1        0.2289
     10 C           5.1928   -1.1505   19.5479 C.ar    1  UNL1        0.0920
     11 C           4.5022   -2.0400   20.5389 C.ar    1  UNL1        0.1382
     12 N           4.3016   -3.4939   20.2291 N.ar    1  UNL1       -0.2158
     13 C           4.7916   -4.0583   18.9285 C.ar    1  UNL1        0.1441
     14 C           4.5910   -5.5122   18.6188 C.3     1  UNL1        0.0738
     15 N           5.4821   -3.1687   17.9377 N.ar    1  UNL1       -0.1966
     16 C           5.8533    0.5584   17.0010 C.3     1  UNL1        0.2542
     17 O           6.3733   -0.8252   17.2565 O.3     1  UNL1       -0.4560
     18 C           2.0144    0.8254   27.1427 C.ar    1  UNL1        0.0841
     19 C           0.9072    1.8373   27.1515 C.ar    1  UNL1        0.0192
     20 C           0.4172    2.4016   28.4521 C.ar    1  UNL1        0.0029
     21 C           1.0345    1.9540   29.7439 C.ar    1  UNL1        0.0184
     22 C           2.1417    0.9421   29.7351 C.ar    1  UNL1        0.1072
     23 C           2.6316    0.3778   28.4345 C.ar    1  UNL1        0.0375
     24 S           2.7590    0.4945   31.0268 S.O2    1  UNL1        0.0105
     25 C           3.3764    0.0470   32.3185 C.3     1  UNL1        0.1816
     26 O           2.1788   -0.8746   30.8297 O.2     1  UNL1       -0.1686
     27 O           3.3393    1.8637   31.2239 O.2     1  UNL1       -0.1686
     28 C           2.0992    0.1381   20.9008 C.3     1  UNL1        0.0240
     29 C           1.0332   -0.6657   20.2170 C.3     1  UNL1        0.0021
     30 C           2.3568    1.5545   20.4795 C.3     1  UNL1        0.0021
@<TRIPOS>BOND
     1    16    17    1
     2    17     9    1
     3     9    10   ar
     4    10    11   ar
     5    11     1    1
     6     1     2    1
     7     2     3    1
     8     3     4   ar
     9     4     5   ar
    10     5    18    1
    11    18    19   ar
    12    19    20   ar
    13    20    21   ar
    14    21    22   ar
    15    22    24    1
    16    24    25    1
    17    24    26    2
    18    24    27    2
    19    22    23   ar
    20     5     6   ar
    21     6     7   ar
    22     7     8    1
    23     8    28    1
    24    28    29    1
    25    28    30    1
    26    11    12   ar
    27    12    13   ar
    28    13    14    1
    29    13    15   ar
    30    15     9   ar
    31     8     1    1
    32     7     3   ar
    33    23    18   ar
@<TRIPOS>MOLECULE
*****
 30 33 0 0 0
SMALL
GASTEIGER

@<TRIPOS>ATOM
      1 N           3.2056   -0.4535   20.8672 N.pl3   1  UNL1       -0.2852
      2 C           3.1190   -0.7114   22.3423 C.3     1  UNL1        0.1220
      3 C           2.2094    0.3204   22.9407 C.ar    1  UNL1        0.0337
      4 C           1.5938    0.7987   24.2222 C.ar    1  UNL1        0.0990
      5 N           0.7378    1.9899   23.9089 N.ar    1  UNL1       -0.2287
      6 N           0.8243    2.2478   22.4338 N.ar    1  UNL1       -0.1681
      7 C           1.7338    1.2160   21.8354 C.ar    1  UNL1        0.0960
      8 C           2.3494    0.7377   20.5539 C.3     1  UNL1        0.1160
      9 C           5.7637   -1.3444   17.9669 C.ar    1  UNL1        0.2289
     10 C           4.9619   -0.5505   18.9551 C.ar    1  UNL1        0.0920
     11 C           4.0073   -1.2474   19.8789 C.ar    1  UNL1        0.1382
     12 N           3.8547   -2.7382   19.8143 N.ar    1  UNL1       -0.2158
     13 C           4.6565   -3.5322   18.8260 C.ar    1  UNL1        0.1441
     14 C           4.5038   -5.0230   18.7614 C.3     1  UNL1        0.0738
     15 N           5.6110   -2.8353   17.9023 N.ar    1  UNL1       -0.1966
     16 C           6.4836    0.7844   16.6631 C.3     1  UNL1        0.2542
     17 O           6.7182   -0.6475   17.0431 O.3     1  UNL1       -0.4560
     18 C          -0.0641    2.7839   24.8972 C.ar    1  UNL1        0.0841
     19 C           0.6145    3.4242   26.0717 C.ar    1  UNL1        0.0192
     20 C          -0.1874    4.2182   27.0600 C.ar    1  UNL1        0.0029
     21 C          -1.6678    4.3717   26.8738 C.ar    1  UNL1        0.0184
     22 C          -2.3464    3.7314   25.6993 C.ar    1  UNL1        0.1072
     23 C          -1.5445    2.9374   24.7110 C.ar    1  UNL1        0.0375
     24 S          -3.8269    3.8849   25.5130 S.O2    1  UNL1        0.0105
     25 C          -5.3073    4.0384   25.3269 C.3     1  UNL1        0.1816
     26 O          -3.6542    3.7503   24.0291 O.2     1  UNL1       -0.1686
     27 O          -3.9995    4.0195   26.9970 O.2     1  UNL1       -0.1686
     28 C           2.1449    1.3442   19.1973 C.3     1  UNL1        0.0240
     29 C           1.1883    0.7125   18.2298 C.3     1  UNL1        0.0021
     30 C           2.8969    2.5823   18.8081 C.3     1  UNL1        0.0021
@<TRIPOS>BOND
     1    16    17    1
     2    17     9    1
     3     9    10   ar
     4    10    11   ar
     5    11     1    1
     6     1     2    1
     7     2     3    1
     8     3     4   ar
     9     4     5   ar
    10     5    18    1
    11    18    19   ar
    12    19    20   ar
    13    20    21   ar
    14    21    22   ar
    15    22    24    1
    16    24    25    1
    17    24    26    2
    18    24    27    2
    19    22    23   ar
    20     5     6   ar
    21     6     7   ar
    22     7     8    1
    23     8    28    1
    24    28    29    1
    25    28    30    1
    26    11    12   ar
    27    12    13   ar
    28    13    14    1
    29    13    15   ar
    30    15     9   ar
    31     8     1    1
    32     7     3   ar
    33    23    18   ar
@<TRIPOS>MOLECULE
*****
 30 33 0 0 0
SMALL
GASTEIGER

@<TRIPOS>ATOM
      1 N           5.0437   -1.2109   21.0077 N.pl3   1  UNL1       -0.2852
      2 C           5.2659   -1.0247   22.4794 C.3     1  UNL1        0.1220
      3 C           5.8276   -2.3024   23.0288 C.ar    1  UNL1        0.0337
      4 C           6.3121   -2.9769   24.2780 C.ar    1  UNL1        0.0990
      5 N           6.7365   -4.3698   23.9178 N.ar    1  UNL1       -0.2287
      6 N           6.5144   -4.5561   22.4460 N.ar    1  UNL1       -0.1681
      7 C           5.9527   -3.2784   21.8966 C.ar    1  UNL1        0.0960
      8 C           5.4682   -2.6039   20.6475 C.3     1  UNL1        0.1160
      9 C           4.8524    1.8759   18.5208 C.ar    1  UNL1        0.2289
     10 C           5.4024    0.8496   19.4663 C.ar    1  UNL1        0.0920
     11 C           4.4937   -0.1846   20.0622 C.ar    1  UNL1        0.1382
     12 N           3.0351   -0.1923   19.7125 N.ar    1  UNL1       -0.2158
     13 C           2.4850    0.8340   18.7669 C.ar    1  UNL1        0.1441
     14 C           1.0264    0.8263   18.4172 C.3     1  UNL1        0.0738
     15 N           3.3936    1.8681   18.1711 N.ar    1  UNL1       -0.1966
     16 C           6.5571    2.5896   16.6947 C.3     1  UNL1        0.2542
     17 O           5.7610    2.9101   17.9250 O.3     1  UNL1       -0.4560
     18 C           7.2866   -5.3962   24.8633 C.ar    1  UNL1        0.0841
     19 C           8.0002   -6.6023   24.3286 C.ar    1  UNL1        0.0192
     20 C           8.5502   -7.6287   25.2742 C.ar    1  UNL1        0.0029
     21 C           8.3866   -7.4489   26.7544 C.ar    1  UNL1        0.0184
     22 C           7.6729   -6.2428   27.2890 C.ar    1  UNL1        0.1072
     23 C           7.1229   -5.2164   26.3434 C.ar    1  UNL1        0.0375
     24 S           7.5092   -6.0629   28.7692 S.O2    1  UNL1        0.0105
     25 C           7.3455   -5.8830   30.2493 C.3     1  UNL1        0.1816
     26 O           8.7879   -6.8119   29.0017 O.2     1  UNL1       -0.1686
     27 O           6.2305   -5.3139   28.5367 O.2     1  UNL1       -0.1686
     28 C           5.4172   -3.2149   19.2786 C.3     1  UNL1        0.0240
     29 C           6.2636   -2.6536   18.1746 C.3     1  UNL1        0.0021
     30 C           4.5198   -4.3873   19.0135 C.3     1  UNL1        0.0021
@<TRIPOS>BOND
     1    16    17    1
     2    17     9    1
     3     9    10   ar
     4    10    11   ar
     5    11     1    1
     6     1     2    1
     7     2     3    1
     8     3     4   ar
     9     4     5   ar
    10     5    18    1
    11    18    19   ar
    12    19    20   ar
    13    20    21   ar
    14    21    22   ar
    15    22    24    1
    16    24    25    1
    17    24    26    2
    18    24    27    2
    19    22    23   ar
    20     5     6   ar
    21     6     7   ar
    22     7     8    1
    23     8    28    1
    24    28    29    1
    25    28    30    1
    26    11    12   ar
    27    12    13   ar
    28    13    14    1
    29    13    15   ar
    30    15     9   ar
    31     8     1    1
    32     7     3   ar
    33    23    18   ar
@<TRIPOS>MOLECULE
*****
 30 33 0 0 0
SMALL
GASTEIGER

@<TRIPOS>ATOM
      1 N           2.2731    0.0221   19.7749 N.pl3   1  UNL1       -0.2852
      2 C           1.0785    0.5757   19.0562 C.3     1  UNL1        0.1220
      3 C           0.3146    1.4347   20.0199 C.ar    1  UNL1        0.0337
      4 C          -0.8958    2.3076   20.1712 C.ar    1  UNL1        0.0990
      5 N          -0.9214    2.8245   21.5791 N.ar    1  UNL1       -0.2287
      6 N           0.2732    2.2710   22.2979 N.ar    1  UNL1       -0.1681
      7 C           1.0371    1.4120   21.3342 C.ar    1  UNL1        0.0960
      8 C           2.2474    0.5390   21.1829 C.3     1  UNL1        0.1160
      9 C           5.4738   -1.2291   17.7902 C.ar    1  UNL1        0.2289
     10 C           4.4360   -0.3186   18.3764 C.ar    1  UNL1        0.0920
     11 C           3.3109   -0.8884   19.1887 C.ar    1  UNL1        0.1382
     12 N           3.2239   -2.3687   19.4148 N.ar    1  UNL1       -0.2158
     13 C           4.2618   -3.2793   18.8286 C.ar    1  UNL1        0.1441
     14 C           4.1748   -4.7596   19.0546 C.3     1  UNL1        0.0738
     15 N           5.3868   -2.7095   18.0163 N.ar    1  UNL1       -0.1966
     16 C           6.5745    0.7845   16.5721 C.3     1  UNL1        0.2542
     17 O           6.5988   -0.6593   16.9779 O.3     1  UNL1       -0.4560
     18 C          -1.9593    3.7350   22.1653 C.ar    1  UNL1        0.0841
     19 C          -2.5821    4.8055   21.3191 C.ar    1  UNL1        0.0192
     20 C          -3.6200    5.7160   21.9054 C.ar    1  UNL1        0.0029
     21 C          -4.0351    5.5561   23.3379 C.ar    1  UNL1        0.0184
     22 C          -3.4123    4.4856   24.1842 C.ar    1  UNL1        0.1072
     23 C          -2.3744    3.5751   23.5978 C.ar    1  UNL1        0.0375
     24 S          -3.8274    4.3255   25.6166 S.O2    1  UNL1        0.0105
     25 C          -4.2425    4.1655   27.0491 C.3     1  UNL1        0.1816
     26 O          -2.7185    5.2425   26.0405 O.2     1  UNL1       -0.1686
     27 O          -4.9363    3.4086   25.1928 O.2     1  UNL1       -0.1686
     28 C           3.2553    0.2361   22.2518 C.3     1  UNL1        0.0240
     29 C           3.2397   -1.0959   22.9414 C.3     1  UNL1        0.0021
     30 C           4.2786    1.2651   22.6310 C.3     1  UNL1        0.0021
@<TRIPOS>BOND
     1    16    17    1
     2    17     9    1
     3     9    10   ar
     4    10    11   ar
     5    11     1    1
     6     1     2    1
     7     2     3    1
     8     3     4   ar
     9     4     5   ar
    10     5    18    1
    11    18    19   ar
    12    19    20   ar
    13    20    21   ar
    14    21    22   ar
    15    22    24    1
    16    24    25    1
    17    24    26    2
    18    24    27    2
    19    22    23   ar
    20     5     6   ar
    21     6     7   ar
    22     7     8    1
    23     8    28    1
    24    28    29    1
    25    28    30    1
    26    11    12   ar
    27    12    13   ar
    28    13    14    1
    29    13    15   ar
    30    15     9   ar
    31     8     1    1
    32     7     3   ar
    33    23    18   ar
@<TRIPOS>MOLECULE
*****
 30 33 0 0 0
SMALL
GASTEIGER

@<TRIPOS>ATOM
      1 N           2.9640   -0.1609   26.5628 N.pl3   1  UNL1       -0.2852
      2 C           3.8691   -1.3081   26.2237 C.3     1  UNL1        0.1220
      3 C           3.9531   -1.4063   24.7293 C.ar    1  UNL1        0.0337
      4 C           4.5643   -2.1760   23.5962 C.ar    1  UNL1        0.0990
      5 N           4.0889   -1.5653   22.3113 N.ar    1  UNL1       -0.2287
      6 N           3.1838   -0.4182   22.6503 N.ar    1  UNL1       -0.1681
      7 C           3.0998   -0.3199   24.1447 C.ar    1  UNL1        0.0960
      8 C           2.4886    0.4498   25.2778 C.3     1  UNL1        0.1160
      9 C           0.7974    0.7508   29.7603 C.ar    1  UNL1        0.2289
     10 C           1.1629    0.2945   28.3790 C.ar    1  UNL1        0.0920
     11 C           2.5985    0.2954   27.9441 C.ar    1  UNL1        0.1382
     12 N           3.6686    0.7526   28.8906 N.ar    1  UNL1       -0.2158
     13 C           3.3031    1.2089   30.2720 C.ar    1  UNL1        0.1441
     14 C           4.3732    1.6661   31.2185 C.3     1  UNL1        0.0738
     15 N           1.8675    1.2080   30.7069 N.ar    1  UNL1       -0.1966
     16 C          -1.6868    0.1308   29.3193 C.3     1  UNL1        0.2542
     17 O          -0.6382    0.7499   30.1952 O.3     1  UNL1       -0.4560
     18 C           4.4544   -2.0216   20.9300 C.ar    1  UNL1        0.0841
     19 C           4.3282   -3.4699   20.5606 C.ar    1  UNL1        0.0192
     20 C           4.6937   -3.9262   19.1791 C.ar    1  UNL1        0.0029
     21 C           5.1854   -2.9341   18.1671 C.ar    1  UNL1        0.0184
     22 C           5.3115   -1.4858   18.5365 C.ar    1  UNL1        0.1072
     23 C           4.9460   -1.0296   19.9179 C.ar    1  UNL1        0.0375
     24 S           5.8031   -0.4937   17.5246 S.O2    1  UNL1        0.0105
     25 C           6.2947    0.4984   16.5127 C.3     1  UNL1        0.1816
     26 O           6.9596   -1.3936   17.2041 O.2     1  UNL1       -0.1686
     27 O           4.6466    0.4062   17.8451 O.2     1  UNL1       -0.1686
     28 C           1.5642    1.6240   25.1487 C.3     1  UNL1        0.0240
     29 C           2.1080    3.0195   25.2330 C.3     1  UNL1        0.0021
     30 C           0.0960    1.4028   24.9352 C.3     1  UNL1        0.0021
@<TRIPOS>BOND
     1    16    17    1
     2    17     9    1
     3     9    10   ar
     4    10    11   ar
     5    11     1    1
     6     1     2    1
     7     2     3    1
     8     3     4   ar
     9     4     5   ar
    10     5    18    1
    11    18    19   ar
    12    19    20   ar
    13    20    21   ar
    14    21    22   ar
    15    22    24    1
    16    24    25    1
    17    24    26    2
    18    24    27    2
    19    22    23   ar
    20     5     6   ar
    21     6     7   ar
    22     7     8    1
    23     8    28    1
    24    28    29    1
    25    28    30    1
    26    11    12   ar
    27    12    13   ar
    28    13    14    1
    29    13    15   ar
    30    15     9   ar
    31     8     1    1
    32     7     3   ar
    33    23    18   ar
@<TRIPOS>MOLECULE
*****
 30 33 0 0 0
SMALL
GASTEIGER

@<TRIPOS>ATOM
      1 N           2.3148   -0.7179   20.0613 N.pl3   1  UNL1       -0.2852
      2 C           1.0497   -0.2782   20.7367 C.3     1  UNL1        0.1220
      3 C           0.5551    0.9536   20.0379 C.ar    1  UNL1        0.0337
      4 C          -0.5324    1.9865   20.0235 C.ar    1  UNL1        0.0990
      5 N          -0.2450    2.9465   18.9074 N.ar    1  UNL1       -0.2287
      6 N           1.0202    2.5069   18.2320 N.ar    1  UNL1       -0.1681
      7 C           1.5147    1.2751   18.9307 C.ar    1  UNL1        0.0960
      8 C           2.6022    0.2422   18.9452 C.3     1  UNL1        0.1160
      9 C           4.5396   -3.2153   22.1974 C.ar    1  UNL1        0.2289
     10 C           3.7079   -2.0248   21.8225 C.ar    1  UNL1        0.0920
     11 C           3.1465   -1.9085   20.4363 C.ar    1  UNL1        0.1382
     12 N           3.4170   -2.9829   19.4251 N.ar    1  UNL1       -0.2158
     13 C           4.2487   -4.1736   19.8000 C.ar    1  UNL1        0.1441
     14 C           4.5191   -5.2480   18.7889 C.3     1  UNL1        0.0738
     15 N           4.8100   -4.2898   21.1862 N.ar    1  UNL1       -0.1966
     16 C           6.5605   -3.6160   23.7802 C.3     1  UNL1        0.2542
     17 O           5.1009   -3.3316   23.5836 O.3     1  UNL1       -0.4560
     18 C          -1.0767    4.1372   18.5324 C.ar    1  UNL1        0.0841
     19 C          -0.4133    5.4406   18.1994 C.ar    1  UNL1        0.0192
     20 C          -1.2451    6.6313   17.8245 C.ar    1  UNL1        0.0029
     21 C          -2.7402    6.5185   17.7824 C.ar    1  UNL1        0.0184
     22 C          -3.4037    5.2150   18.1154 C.ar    1  UNL1        0.1072
     23 C          -2.5719    4.0244   18.4904 C.ar    1  UNL1        0.0375
     24 S          -4.8988    5.1022   18.0734 S.O2    1  UNL1        0.0105
     25 C          -6.3939    4.9894   18.0314 C.3     1  UNL1        0.1816
     26 O          -4.7788    3.6636   17.6657 O.2     1  UNL1       -0.1686
     27 O          -5.0188    6.5408   18.4811 O.2     1  UNL1       -0.1686
     28 C           3.7718    0.1801   18.0080 C.3     1  UNL1        0.0240
     29 C           4.9719    1.0475   18.2478 C.3     1  UNL1        0.0021
     30 C           3.7413   -0.7493   16.8311 C.3     1  UNL1        0.0021
@<TRIPOS>BOND
     1    16    17    1
     2    17     9    1
     3     9    10   ar
     4    10    11   ar
     5    11     1    1
     6     1     2    1
     7     2     3    1
     8     3     4   ar
     9     4     5   ar
    10     5    18    1
    11    18    19   ar
    12    19    20   ar
    13    20    21   ar
    14    21    22   ar
    15    22    24    1
    16    24    25    1
    17    24    26    2
    18    24    27    2
    19    22    23   ar
    20     5     6   ar
    21     6     7   ar
    22     7     8    1
    23     8    28    1
    24    28    29    1
    25    28    30    1
    26    11    12   ar
    27    12    13   ar
    28    13    14    1
    29    13    15   ar
    30    15     9   ar
    31     8     1    1
    32     7     3   ar
    33    23    18   ar
@<TRIPOS>MOLECULE
*****
 30 33 0 0 0
SMALL
GASTEIGER

@<TRIPOS>ATOM
      1 N           4.9078   -2.2625   21.7275 N.pl3   1  UNL1       -0.2852
      2 C           4.4336   -1.0612   22.4905 C.3     1  UNL1        0.1220
      3 C           3.3924   -0.3677   21.6629 C.ar    1  UNL1        0.0337
      4 C           2.4558    0.8033   21.6231 C.ar    1  UNL1        0.0990
      5 N           1.7076    0.7544   20.3239 N.ar    1  UNL1       -0.2287
      6 N           2.1817   -0.4468   19.5609 N.ar    1  UNL1       -0.1681
      7 C           3.2230   -1.1403   20.3884 C.ar    1  UNL1        0.0960
      8 C           4.1595   -2.3114   20.4283 C.3     1  UNL1        0.1160
      9 C           6.9214   -4.7963   24.0241 C.ar    1  UNL1        0.2289
     10 C           5.8817   -3.8161   23.5681 C.ar    1  UNL1        0.0920
     11 C           5.9475   -3.2426   22.1835 C.ar    1  UNL1        0.1382
     12 N           7.0532   -3.6494   21.2551 N.ar    1  UNL1       -0.2158
     13 C           8.0930   -4.6297   21.7111 C.ar    1  UNL1        0.1441
     14 C           9.1987   -5.0365   20.7827 C.3     1  UNL1        0.0738
     15 N           8.0271   -5.2031   23.0956 N.ar    1  UNL1       -0.1966
     16 C           6.8910   -4.4591   26.6000 C.3     1  UNL1        0.2542
     17 O           6.8556   -5.3698   25.4086 O.3     1  UNL1       -0.4560
     18 C           0.6678    1.7346   19.8679 C.ar    1  UNL1        0.0841
     19 C           0.6809    2.2390   18.4553 C.ar    1  UNL1        0.0192
     20 C          -0.3590    3.2192   17.9993 C.ar    1  UNL1        0.0029
     21 C          -1.4118    3.6951   18.9558 C.ar    1  UNL1        0.0184
     22 C          -1.4249    3.1907   20.3684 C.ar    1  UNL1        0.1072
     23 C          -0.3851    2.2105   20.8244 C.ar    1  UNL1        0.0375
     24 S          -2.4778    3.6665   21.3250 S.O2    1  UNL1        0.0105
     25 C          -3.5305    4.1424   22.2816 C.3     1  UNL1        0.1816
     26 O          -3.4871    2.7832   20.6536 O.2     1  UNL1       -0.1686
     27 O          -1.4683    4.5500   21.9964 O.2     1  UNL1       -0.1686
     28 C           4.3197   -3.3491   19.3571 C.3     1  UNL1        0.0240
     29 C           5.2546   -3.1046   18.2098 C.3     1  UNL1        0.0021
     30 C           3.5451   -4.6313   19.4332 C.3     1  UNL1        0.0021
@<TRIPOS>BOND
     1    16    17    1
     2    17     9    1
     3     9    10   ar
     4    10    11   ar
     5    11     1    1
     6     1     2    1
     7     2     3    1
     8     3     4   ar
     9     4     5   ar
    10     5    18    1
    11    18    19   ar
    12    19    20   ar
    13    20    21   ar
    14    21    22   ar
    15    22    24    1
    16    24    25    1
    17    24    26    2
    18    24    27    2
    19    22    23   ar
    20     5     6   ar
    21     6     7   ar
    22     7     8    1
    23     8    28    1
    24    28    29    1
    25    28    30    1
    26    11    12   ar
    27    12    13   ar
    28    13    14    1
    29    13    15   ar
    30    15     9   ar
    31     8     1    1
    32     7     3   ar
    33    23    18   ar
@<TRIPOS>MOLECULE
*****
 30 33 0 0 0
SMALL
GASTEIGER

@<TRIPOS>ATOM
      1 N           1.8270    1.2553   28.0319 N.pl3   1  UNL1       -0.2852
      2 C           3.0140    1.0625   27.1352 C.3     1  UNL1        0.1220
      3 C           2.5157    0.9444   25.7254 C.ar    1  UNL1        0.0337
      4 C           2.9413    0.7523   24.2999 C.ar    1  UNL1        0.0990
      5 N           1.7094    0.7534   23.4442 N.ar    1  UNL1       -0.2287
      6 N           0.5223    0.9461   24.3407 N.ar    1  UNL1       -0.1681
      7 C           1.0207    1.0642   25.7506 C.ar    1  UNL1        0.0960
      8 C           0.5950    1.2563   27.1760 C.3     1  UNL1        0.1160
      9 C           2.6263    0.5757   31.8592 C.ar    1  UNL1        0.2289
     10 C           2.5881    0.4126   30.3687 C.ar    1  UNL1        0.0920
     11 C           1.8652    1.4183   29.5224 C.ar    1  UNL1        0.1382
     12 N           1.1806    2.5871   30.1668 N.ar    1  UNL1       -0.2158
     13 C           1.2188    2.7502   31.6575 C.ar    1  UNL1        0.1441
     14 C           0.5342    3.9189   32.3019 C.3     1  UNL1        0.0738
     15 N           1.9416    1.7445   32.5037 N.ar    1  UNL1       -0.1966
     16 C           4.1484   -1.5206   32.0560 C.3     1  UNL1        0.2542
     17 O           3.3491   -0.4301   32.7055 O.3     1  UNL1       -0.4560
     18 C           1.6711    0.5903   21.9536 C.ar    1  UNL1        0.0841
     19 C           0.6609    1.3460   21.1421 C.ar    1  UNL1        0.0192
     20 C           0.6228    1.1828   19.6514 C.ar    1  UNL1        0.0029
     21 C           1.5947    0.2641   18.9723 C.ar    1  UNL1        0.0184
     22 C           2.6049   -0.4915   19.7837 C.ar    1  UNL1        0.1072
     23 C           2.6431   -0.3284   21.2744 C.ar    1  UNL1        0.0375
     24 S           3.5769   -1.4102   19.1047 S.O2    1  UNL1        0.0105
     25 C           4.5489   -2.3289   18.4255 C.3     1  UNL1        0.1816
     26 O           3.7895   -2.1409   20.3973 O.2     1  UNL1       -0.1686
     27 O           3.3643   -0.6796   17.8120 O.2     1  UNL1       -0.1686
     28 C          -0.8150    1.4206   27.6607 C.3     1  UNL1        0.0240
     29 C          -1.6401    2.5809   27.1881 C.3     1  UNL1        0.0021
     30 C          -1.4000    0.4248   28.6178 C.3     1  UNL1        0.0021
@<TRIPOS>BOND
     1    16    17    1
     2    17     9    1
     3     9    10   ar
     4    10    11   ar
     5    11     1    1
     6     1     2    1
     7     2     3    1
     8     3     4   ar
     9     4     5   ar
    10     5    18    1
    11    18    19   ar
    12    19    20   ar
    13    20    21   ar
    14    21    22   ar
    15    22    24    1
    16    24    25    1
    17    24    26    2
    18    24    27    2
    19    22    23   ar
    20     5     6   ar
    21     6     7   ar
    22     7     8    1
    23     8    28    1
    24    28    29    1
    25    28    30    1
    26    11    12   ar
    27    12    13   ar
    28    13    14    1
    29    13    15   ar
    30    15     9   ar
    31     8     1    1
    32     7     3   ar
    33    23    18   ar
