@<TRIPOS>MOLECULE
*****
 37 40 0 0 0
SMALL
GASTEIGER

@<TRIPOS>ATOM
      1 C          -6.5332  -18.9167   19.9412 C.3     1  UNL1        0.0725
      2 C          -7.2179  -18.3924   21.1686 C.3     1  UNL1        0.0239
      3 C          -8.6865  -18.6256   21.3655 C.3     1  UNL1        0.0237
      4 C          -9.4704  -19.3830   20.3349 C.2     1  UNL1       -0.0441
      5 C         -10.9391  -19.6161   20.5318 C.2     1  UNL1       -0.0084
      6 C          -8.7857  -19.9072   19.1076 C.3     1  UNL1        0.0237
      7 C          -7.3171  -19.6741   18.9108 C.3     1  UNL1        0.0239
      8 C         -11.6238  -19.0918   21.7592 C.ar    1  UNL1        0.0024
      9 C         -13.0397  -18.6036   21.6774 C.ar    1  UNL1        0.0002
     10 C         -13.7244  -18.0793   22.9048 C.ar    1  UNL1        0.0031
     11 C         -12.9931  -18.0434   24.2140 C.ar    1  UNL1        0.0376
     12 C         -11.5771  -18.5316   24.2957 C.ar    1  UNL1        0.1472
     13 C         -10.8924  -19.0559   23.0684 C.ar    1  UNL1        0.0375
     14 O         -10.8458  -18.4956   25.6049 O.3     1  UNL1       -0.4361
     15 C          -9.6339  -17.6258   25.7634 C.ar    1  UNL1        0.2297
     16 C          -9.0707  -16.9010   24.5771 C.ar    1  UNL1        0.0581
     17 C          -7.8589  -16.0313   24.7356 C.ar    1  UNL1        0.0102
     18 C          -7.2104  -15.8864   26.0804 C.ar    1  UNL1        0.0907
     19 C          -7.7737  -16.6112   27.2667 C.ar    1  UNL1        0.1059
     20 N          -8.9855  -17.4809   27.1082 N.ar    1  UNL1       -0.2099
     21 C          -5.9986  -15.0166   26.2389 C.3     1  UNL1        0.4200
     22 F          -4.7869  -14.1468   26.3974 F       1  UNL1       -0.1658
     23 F          -5.6233  -15.2791   24.8106 F       1  UNL1       -0.1658
     24 F          -6.3740  -14.7540   27.6672 F       1  UNL1       -0.1658
     25 C          -4.2023  -18.3041   20.9115 C.2     1  UNL1        0.2473
     26 O          -4.8086  -18.1578   22.2756 O.2     1  UNL1       -0.2701
     27 N          -5.0645  -18.6836   19.7443 N.am    1  UNL1       -0.3024
     28 H          -4.6666  -18.7796   18.8489 H       1  UNL1        0.1497
     29 N           1.6723  -17.3716   20.1240 N.pl3   1  UNL1       -0.3426
     30 C           0.2036  -17.6047   20.3208 C.ar    1  UNL1        0.1254
     31 C          -0.6702  -16.4965   20.8291 C.ar    1  UNL1        0.0340
     32 C          -2.1388  -16.7297   21.0260 C.ar    1  UNL1        0.0089
     33 C          -2.7336  -18.0710   20.7146 C.ar    1  UNL1        0.0726
     34 C          -1.8598  -19.1791   20.2064 C.ar    1  UNL1        0.1048
     35 N          -0.3912  -18.9460   20.0095 N.ar    1  UNL1       -0.2295
     36 H           2.0627  -16.4912   20.3283 H       1  UNL1        0.1437
     37 H           2.2458  -18.0989   19.7904 H       1  UNL1        0.1437
@<TRIPOS>BOND
     1    29    30    1
     2    30    31   ar
     3    31    32   ar
     4    32    33   ar
     5    33    25    1
     6    25    26    2
     7    25    27   am
     8    27     1    1
     9     1     2    1
    10     2     3    1
    11     3     4    1
    12     4     5    2
    13     5     8    1
    14     8     9   ar
    15     9    10   ar
    16    10    11   ar
    17    11    12   ar
    18    12    14    1
    19    14    15    1
    20    15    16   ar
    21    16    17   ar
    22    17    18   ar
    23    18    21    1
    24    21    22    1
    25    21    23    1
    26    21    24    1
    27    18    19   ar
    28    19    20   ar
    29    12    13   ar
    30     4     6    1
    31     6     7    1
    32    33    34   ar
    33    34    35   ar
    34    35    30   ar
    35     7     1    1
    36    13     8   ar
    37    20    15   ar
    38    29    36    1
    39    29    37    1
    40    27    28    1
@<TRIPOS>MOLECULE
*****
 37 40 0 0 0
SMALL
GASTEIGER

@<TRIPOS>ATOM
      1 C           6.0685   -2.8442   21.9161 C.3     1  UNL1        0.0725
      2 C           5.8349   -3.3481   23.3095 C.3     1  UNL1        0.0239
      3 C           6.7563   -4.3738   23.9004 C.3     1  UNL1        0.0237
      4 C           7.9112   -4.8955   23.0979 C.2     1  UNL1       -0.0441
      5 C           8.8326   -5.9211   23.6887 C.2     1  UNL1       -0.0084
      6 C           8.1447   -4.3916   21.7045 C.3     1  UNL1        0.0237
      7 C           7.2234   -3.3660   21.1136 C.3     1  UNL1        0.0239
      8 C           8.5991   -6.4251   25.0822 C.ar    1  UNL1        0.0024
      9 C           7.9179   -7.7438   25.2985 C.ar    1  UNL1        0.0002
     10 C           7.6844   -8.2477   26.6919 C.ar    1  UNL1        0.0031
     11 C           8.1320   -7.4328   27.8690 C.ar    1  UNL1        0.0376
     12 C           8.8131   -6.1139   27.6526 C.ar    1  UNL1        0.1472
     13 C           9.0467   -5.6101   26.2593 C.ar    1  UNL1        0.0375
     14 O           9.2607   -5.2990   28.8297 O.3     1  UNL1       -0.4361
     15 C           8.2532   -4.5467   29.6477 C.ar    1  UNL1        0.2297
     16 C           7.9335   -4.9960   31.0426 C.ar    1  UNL1        0.0581
     17 C           6.9261   -4.2437   31.8605 C.ar    1  UNL1        0.0102
     18 C           6.2383   -3.0420   31.2835 C.ar    1  UNL1        0.0907
     19 C           6.5581   -2.5926   29.8886 C.ar    1  UNL1        0.1059
     20 N           7.5655   -3.3449   29.0707 N.ar    1  UNL1       -0.2099
     21 C           5.2309   -2.2897   32.1015 C.3     1  UNL1        0.4200
     22 F           4.2234   -1.5374   32.9195 F       1  UNL1       -0.1658
     23 F           5.2427   -1.1784   31.0941 F       1  UNL1       -0.1658
     24 F           5.2190   -3.4009   33.1089 F       1  UNL1       -0.1658
     25 C           4.0392   -2.2452   20.4084 C.2     1  UNL1        0.2473
     26 O           3.8527   -3.6974   20.0825 O.2     1  UNL1       -0.2701
     27 N           5.1471   -1.8186   21.3252 N.am    1  UNL1       -0.3024
     28 H           5.2696   -0.8655   21.5391 H       1  UNL1        0.1497
     29 N           0.3537    1.8574   18.0449 N.pl3   1  UNL1       -0.3426
     30 C           1.2751    0.8317   18.6358 C.ar    1  UNL1        0.1254
     31 C           0.8606    0.0663   19.8573 C.ar    1  UNL1        0.0340
     32 C           1.7820   -0.9593   20.4482 C.ar    1  UNL1        0.0089
     33 C           3.1178   -1.2195   19.8175 C.ar    1  UNL1        0.0726
     34 C           3.5323   -0.4541   18.5960 C.ar    1  UNL1        0.1048
     35 N           2.6109    0.5715   18.0051 N.ar    1  UNL1       -0.2295
     36 H          -0.5230    2.0281   18.4588 H       1  UNL1        0.1437
     37 H           0.6258    2.3597   17.2431 H       1  UNL1        0.1437
@<TRIPOS>BOND
     1    29    30    1
     2    30    31   ar
     3    31    32   ar
     4    32    33   ar
     5    33    25    1
     6    25    26    2
     7    25    27   am
     8    27     1    1
     9     1     2    1
    10     2     3    1
    11     3     4    1
    12     4     5    2
    13     5     8    1
    14     8     9   ar
    15     9    10   ar
    16    10    11   ar
    17    11    12   ar
    18    12    14    1
    19    14    15    1
    20    15    16   ar
    21    16    17   ar
    22    17    18   ar
    23    18    21    1
    24    21    22    1
    25    21    23    1
    26    21    24    1
    27    18    19   ar
    28    19    20   ar
    29    12    13   ar
    30     4     6    1
    31     6     7    1
    32    33    34   ar
    33    34    35   ar
    34    35    30   ar
    35     7     1    1
    36    13     8   ar
    37    20    15   ar
    38    29    36    1
    39    29    37    1
    40    27    28    1
@<TRIPOS>MOLECULE
*****
 37 40 0 0 0
SMALL
GASTEIGER

@<TRIPOS>ATOM
      1 C           0.2547    1.1953   20.1278 C.3     1  UNL1        0.0725
      2 C           0.7792   -0.0803   20.7176 C.3     1  UNL1        0.0239
      3 C           1.9679   -0.7577   20.1027 C.3     1  UNL1        0.0237
      4 C           2.6321   -0.1595   18.8981 C.2     1  UNL1       -0.0441
      5 C           3.8208   -0.8370   18.2832 C.2     1  UNL1       -0.0084
      6 C           2.1076    1.1160   18.3083 C.3     1  UNL1        0.0237
      7 C           0.9189    1.7934   18.9232 C.3     1  UNL1        0.0239
      8 C           4.3454   -2.1126   18.8731 C.ar    1  UNL1        0.0024
      9 C           3.5851   -3.3924   18.6887 C.ar    1  UNL1        0.0002
     10 C           4.1097   -4.6680   19.2785 C.ar    1  UNL1        0.0031
     11 C           5.3944   -4.6637   20.0527 C.ar    1  UNL1        0.0376
     12 C           6.1547   -3.3837   20.2370 C.ar    1  UNL1        0.1472
     13 C           5.6301   -2.1082   19.6473 C.ar    1  UNL1        0.0375
     14 O           7.4394   -3.3794   21.0112 O.3     1  UNL1       -0.4361
     15 C           7.6955   -4.4356   22.0452 C.ar    1  UNL1        0.2297
     16 C           7.1267   -4.2876   23.4253 C.ar    1  UNL1        0.0581
     17 C           7.3828   -5.3437   24.4592 C.ar    1  UNL1        0.0102
     18 C           8.2078   -6.5477   24.1131 C.ar    1  UNL1        0.0907
     19 C           8.7766   -6.6957   22.7330 C.ar    1  UNL1        0.1059
     20 N           8.5205   -5.6396   21.6991 N.ar    1  UNL1       -0.2099
     21 C           8.4639   -7.6039   25.1471 C.3     1  UNL1        0.4200
     22 F           8.7200   -8.6599   26.1810 F       1  UNL1       -0.1658
     23 F           7.4171   -6.9927   26.0306 F       1  UNL1       -0.1658
     24 F           9.5107   -8.2150   24.2635 F       1  UNL1       -0.1658
     25 C          -0.7370    2.9327   21.7855 C.2     1  UNL1        0.2473
     26 O           0.6487    3.3152   22.2135 O.2     1  UNL1       -0.2701
     27 N          -0.9341    1.8727   20.7426 N.am    1  UNL1       -0.3024
     28 H          -1.8436    1.6216   20.4617 H       1  UNL1        0.1497
     29 N          -5.4919    5.6423   24.2449 N.pl3   1  UNL1       -0.3426
     30 C          -4.3032    4.9649   23.6300 C.ar    1  UNL1        0.1254
     31 C          -3.2857    4.2952   24.5053 C.ar    1  UNL1        0.0340
     32 C          -2.0970    3.6178   23.8905 C.ar    1  UNL1        0.0089
     33 C          -1.9258    3.6101   22.4003 C.ar    1  UNL1        0.0726
     34 C          -2.9432    4.2798   21.5250 C.ar    1  UNL1        0.1048
     35 N          -4.1320    4.9572   22.1399 N.ar    1  UNL1       -0.2295
     36 H          -5.6043    5.6474   25.2229 H       1  UNL1        0.1437
     37 H          -6.1598    6.0819   23.6703 H       1  UNL1        0.1437
@<TRIPOS>BOND
     1    29    30    1
     2    30    31   ar
     3    31    32   ar
     4    32    33   ar
     5    33    25    1
     6    25    26    2
     7    25    27   am
     8    27     1    1
     9     1     2    1
    10     2     3    1
    11     3     4    1
    12     4     5    2
    13     5     8    1
    14     8     9   ar
    15     9    10   ar
    16    10    11   ar
    17    11    12   ar
    18    12    14    1
    19    14    15    1
    20    15    16   ar
    21    16    17   ar
    22    17    18   ar
    23    18    21    1
    24    21    22    1
    25    21    23    1
    26    21    24    1
    27    18    19   ar
    28    19    20   ar
    29    12    13   ar
    30     4     6    1
    31     6     7    1
    32    33    34   ar
    33    34    35   ar
    34    35    30   ar
    35     7     1    1
    36    13     8   ar
    37    20    15   ar
    38    29    36    1
    39    29    37    1
    40    27    28    1
@<TRIPOS>MOLECULE
*****
 37 40 0 0 0
SMALL
GASTEIGER

@<TRIPOS>ATOM
      1 C           6.4120   -3.7878   26.0786 C.3     1  UNL1        0.0725
      2 C           6.2196   -2.7937   24.9718 C.3     1  UNL1        0.0239
      3 C           6.7353   -3.0944   23.5957 C.3     1  UNL1        0.0237
      4 C           7.4433   -4.3891   23.3264 C.2     1  UNL1       -0.0441
      5 C           7.9590   -4.6898   21.9503 C.2     1  UNL1       -0.0084
      6 C           7.6356   -5.3831   24.4332 C.3     1  UNL1        0.0237
      7 C           7.1200   -5.0824   25.8093 C.3     1  UNL1        0.0239
      8 C           7.7667   -3.6957   20.8435 C.ar    1  UNL1        0.0024
      9 C           8.8491   -2.7067   20.5272 C.ar    1  UNL1        0.0002
     10 C           8.6568   -1.7126   19.4204 C.ar    1  UNL1        0.0031
     11 C           7.3820   -1.7077   18.6299 C.ar    1  UNL1        0.0376
     12 C           6.2995   -2.6968   18.9462 C.ar    1  UNL1        0.1472
     13 C           6.4919   -3.6908   20.0530 C.ar    1  UNL1        0.0375
     14 O           5.0247   -2.6919   18.1557 O.3     1  UNL1       -0.4361
     15 C           3.9009   -1.7802   18.5506 C.ar    1  UNL1        0.2297
     16 C           3.1098   -2.0599   19.7940 C.ar    1  UNL1        0.0581
     17 C           1.9860   -1.1483   20.1888 C.ar    1  UNL1        0.0102
     18 C           1.6533    0.0431   19.3403 C.ar    1  UNL1        0.0907
     19 C           2.4444    0.3228   18.0969 C.ar    1  UNL1        0.1059
     20 N           3.5682   -0.5889   17.7021 N.ar    1  UNL1       -0.2099
     21 C           0.5295    0.9548   19.7352 C.3     1  UNL1        0.4200
     22 F          -0.5943    1.8664   20.1300 F       1  UNL1       -0.1658
     23 F           0.1264   -0.0085   20.8120 F       1  UNL1       -0.1658
     24 F           0.9325    1.9180   18.6583 F       1  UNL1       -0.1658
     25 C           6.8250   -2.9496   28.5028 C.2     1  UNL1        0.2473
     26 O           8.2694   -2.7128   28.1748 O.2     1  UNL1       -0.2701
     27 N           5.8963   -3.4871   27.4547 N.am    1  UNL1       -0.3024
     28 H           4.9483   -3.6425   27.6700 H       1  UNL1        0.1497
     29 N           4.7623   -1.7469   34.0072 N.pl3   1  UNL1       -0.3426
     30 C           5.2780   -2.0476   32.6311 C.ar    1  UNL1        0.1254
     31 C           6.1042   -3.2764   32.3917 C.ar    1  UNL1        0.0340
     32 C           6.6199   -3.5770   31.0156 C.ar    1  UNL1        0.0089
     33 C           6.3093   -2.6489   29.8789 C.ar    1  UNL1        0.0726
     34 C           5.4831   -1.4201   30.1183 C.ar    1  UNL1        0.1048
     35 N           4.9674   -1.1194   31.4944 N.ar    1  UNL1       -0.2295
     36 H           4.9661   -2.3561   34.7533 H       1  UNL1        0.1437
     37 H           4.2200   -0.9404   34.1644 H       1  UNL1        0.1437
@<TRIPOS>BOND
     1    29    30    1
     2    30    31   ar
     3    31    32   ar
     4    32    33   ar
     5    33    25    1
     6    25    26    2
     7    25    27   am
     8    27     1    1
     9     1     2    1
    10     2     3    1
    11     3     4    1
    12     4     5    2
    13     5     8    1
    14     8     9   ar
    15     9    10   ar
    16    10    11   ar
    17    11    12   ar
    18    12    14    1
    19    14    15    1
    20    15    16   ar
    21    16    17   ar
    22    17    18   ar
    23    18    21    1
    24    21    22    1
    25    21    23    1
    26    21    24    1
    27    18    19   ar
    28    19    20   ar
    29    12    13   ar
    30     4     6    1
    31     6     7    1
    32    33    34   ar
    33    34    35   ar
    34    35    30   ar
    35     7     1    1
    36    13     8   ar
    37    20    15   ar
    38    29    36    1
    39    29    37    1
    40    27    28    1
@<TRIPOS>MOLECULE
*****
 37 40 0 0 0
SMALL
GASTEIGER

@<TRIPOS>ATOM
      1 C           7.1273   -3.6060   29.5070 C.3     1  UNL1        0.0725
      2 C           6.5914   -2.2050   29.5002 C.3     1  UNL1        0.0239
      3 C           6.0381   -1.6075   30.7599 C.3     1  UNL1        0.0237
      4 C           6.0207   -2.4111   32.0265 C.2     1  UNL1       -0.0441
      5 C           5.4674   -1.8137   33.2862 C.2     1  UNL1       -0.0084
      6 C           6.5567   -3.8121   32.0333 C.3     1  UNL1        0.0237
      7 C           7.1100   -4.4095   30.7735 C.3     1  UNL1        0.0239
      8 C           4.9315   -0.4126   33.2794 C.ar    1  UNL1        0.0024
      9 C           5.8134    0.7297   33.6883 C.ar    1  UNL1        0.0002
     10 C           5.2774    2.1307   33.6815 C.ar    1  UNL1        0.0031
     11 C           3.8596    2.3893   33.2657 C.ar    1  UNL1        0.0376
     12 C           2.9777    1.2469   32.8568 C.ar    1  UNL1        0.1472
     13 C           3.5137   -0.1540   32.8636 C.ar    1  UNL1        0.0375
     14 O           1.5599    1.5055   32.4410 O.3     1  UNL1       -0.4361
     15 C           1.1814    1.4487   30.9906 C.ar    1  UNL1        0.2297
     16 C           0.7835    2.7025   30.2697 C.ar    1  UNL1        0.0581
     17 C           0.4051    2.6457   28.8194 C.ar    1  UNL1        0.0102
     18 C           0.4245    1.3352   28.0899 C.ar    1  UNL1        0.0907
     19 C           0.8224    0.0814   28.8108 C.ar    1  UNL1        0.1059
     20 N           1.2009    0.1382   30.2611 N.ar    1  UNL1       -0.2099
     21 C           0.0460    1.2785   26.6395 C.3     1  UNL1        0.4200
     22 F          -0.3325    1.2218   25.1892 F       1  UNL1       -0.1658
     23 F           1.4088    0.7489   26.3046 F       1  UNL1       -0.1658
     24 F          -1.3168    1.8081   26.9745 F       1  UNL1       -0.1658
     25 C           6.8589   -5.1764   27.4548 C.2     1  UNL1        0.2473
     26 O           5.4839   -5.5518   27.9219 O.2     1  UNL1       -0.2701
     27 N           7.6806   -4.2035   28.2473 N.am    1  UNL1       -0.3024
     28 H           8.5832   -3.9571   27.9407 H       1  UNL1        0.1497
     29 N           9.0721   -7.5662   22.4159 N.pl3   1  UNL1       -0.3426
     30 C           8.5188   -6.9687   23.6756 C.ar    1  UNL1        0.1254
     31 C           8.7481   -7.6496   24.9923 C.ar    1  UNL1        0.0340
     32 C           8.1948   -7.0522   26.2520 C.ar    1  UNL1        0.0089
     33 C           7.4122   -5.7738   26.1950 C.ar    1  UNL1        0.0726
     34 C           7.1829   -5.0929   24.8783 C.ar    1  UNL1        0.1048
     35 N           7.7362   -5.6904   23.6186 N.ar    1  UNL1       -0.2295
     36 H           9.5858   -8.4052   22.4533 H       1  UNL1        0.1437
     37 H           8.9216   -7.1193   21.5516 H       1  UNL1        0.1437
@<TRIPOS>BOND
     1    29    30    1
     2    30    31   ar
     3    31    32   ar
     4    32    33   ar
     5    33    25    1
     6    25    26    2
     7    25    27   am
     8    27     1    1
     9     1     2    1
    10     2     3    1
    11     3     4    1
    12     4     5    2
    13     5     8    1
    14     8     9   ar
    15     9    10   ar
    16    10    11   ar
    17    11    12   ar
    18    12    14    1
    19    14    15    1
    20    15    16   ar
    21    16    17   ar
    22    17    18   ar
    23    18    21    1
    24    21    22    1
    25    21    23    1
    26    21    24    1
    27    18    19   ar
    28    19    20   ar
    29    12    13   ar
    30     4     6    1
    31     6     7    1
    32    33    34   ar
    33    34    35   ar
    34    35    30   ar
    35     7     1    1
    36    13     8   ar
    37    20    15   ar
    38    29    36    1
    39    29    37    1
    40    27    28    1
@<TRIPOS>MOLECULE
*****
 37 40 0 0 0
SMALL
GASTEIGER

@<TRIPOS>ATOM
      1 C           6.9558   -2.4049   31.5161 C.3     1  UNL1        0.0725
      2 C           6.3671   -3.1770   30.3726 C.3     1  UNL1        0.0239
      3 C           7.1107   -4.3441   29.7939 C.3     1  UNL1        0.0237
      4 C           8.4430   -4.7392   30.3586 C.2     1  UNL1       -0.0441
      5 C           9.1866   -5.9063   29.7799 C.2     1  UNL1       -0.0084
      6 C           9.0317   -3.9671   31.5020 C.3     1  UNL1        0.0237
      7 C           8.2881   -2.8000   32.0807 C.3     1  UNL1        0.0239
      8 C           8.5978   -6.6783   28.6365 C.ar    1  UNL1        0.0024
      9 C           8.0339   -5.9512   27.4519 C.ar    1  UNL1        0.0002
     10 C           7.4451   -6.7232   26.3085 C.ar    1  UNL1        0.0031
     11 C           7.4203   -8.2224   26.3497 C.ar    1  UNL1        0.0376
     12 C           7.9843   -8.9496   27.5343 C.ar    1  UNL1        0.1472
     13 C           8.5730   -8.1776   28.6777 C.ar    1  UNL1        0.0375
     14 O           7.9595  -10.4488   27.5755 O.3     1  UNL1       -0.4361
     15 C           6.6793  -11.1697   27.8782 C.ar    1  UNL1        0.2297
     16 C           6.6918  -12.3808   28.7632 C.ar    1  UNL1        0.0581
     17 C           5.4117  -13.1016   29.0659 C.ar    1  UNL1        0.0102
     18 C           4.1191  -12.6114   28.4836 C.ar    1  UNL1        0.0907
     19 C           4.1067  -11.4003   27.5987 C.ar    1  UNL1        0.1059
     20 N           5.3868  -10.6795   27.2960 N.ar    1  UNL1       -0.2099
     21 C           2.8389  -13.3323   28.7864 C.3     1  UNL1        0.4200
     22 F           1.5589  -14.0531   29.0891 F       1  UNL1       -0.1658
     23 F           2.5654  -12.3754   29.9086 F       1  UNL1       -0.1658
     24 F           3.1125  -14.2891   27.6641 F       1  UNL1       -0.1658
     25 C           5.0542   -1.4702   33.0193 C.2     1  UNL1        0.2473
     26 O           4.6397   -2.8697   33.3652 O.2     1  UNL1       -0.2701
     27 N           6.2123   -1.2378   32.0948 N.am    1  UNL1       -0.3024
     28 H           6.4843   -0.3193   31.8678 H       1  UNL1        0.1497
     29 N           2.0798    3.1983   35.3342 N.pl3   1  UNL1       -0.3426
     30 C           2.8234    2.0312   34.7555 C.ar    1  UNL1        0.1254
     31 C           3.8389    1.3029   35.5851 C.ar    1  UNL1        0.0340
     32 C           4.5825    0.1358   35.0064 C.ar    1  UNL1        0.0089
     33 C           4.3106   -0.3031   33.5981 C.ar    1  UNL1        0.0726
     34 C           3.2951    0.4252   32.7685 C.ar    1  UNL1        0.1048
     35 N           2.5515    1.5923   33.3472 N.ar    1  UNL1       -0.2295
     36 H           2.2583    3.4863   36.2586 H       1  UNL1        0.1437
     37 H           1.4133    3.6762   34.7897 H       1  UNL1        0.1437
@<TRIPOS>BOND
     1    29    30    1
     2    30    31   ar
     3    31    32   ar
     4    32    33   ar
     5    33    25    1
     6    25    26    2
     7    25    27   am
     8    27     1    1
     9     1     2    1
    10     2     3    1
    11     3     4    1
    12     4     5    2
    13     5     8    1
    14     8     9   ar
    15     9    10   ar
    16    10    11   ar
    17    11    12   ar
    18    12    14    1
    19    14    15    1
    20    15    16   ar
    21    16    17   ar
    22    17    18   ar
    23    18    21    1
    24    21    22    1
    25    21    23    1
    26    21    24    1
    27    18    19   ar
    28    19    20   ar
    29    12    13   ar
    30     4     6    1
    31     6     7    1
    32    33    34   ar
    33    34    35   ar
    34    35    30   ar
    35     7     1    1
    36    13     8   ar
    37    20    15   ar
    38    29    36    1
    39    29    37    1
    40    27    28    1
@<TRIPOS>MOLECULE
*****
 37 40 0 0 0
SMALL
GASTEIGER

@<TRIPOS>ATOM
      1 C           6.0196   -2.3083   27.1503 C.3     1  UNL1        0.0725
      2 C           6.1017   -1.5955   25.8330 C.3     1  UNL1        0.0239
      3 C           6.5797   -2.3262   24.6134 C.3     1  UNL1        0.0237
      4 C           6.9757   -3.7698   24.7110 C.2     1  UNL1       -0.0441
      5 C           7.4538   -4.5005   23.4914 C.2     1  UNL1       -0.0084
      6 C           6.8936   -4.4825   26.0283 C.3     1  UNL1        0.0237
      7 C           6.4155   -3.7518   27.2479 C.3     1  UNL1        0.0239
      8 C           7.5359   -3.7876   22.1741 C.ar    1  UNL1        0.0024
      9 C           8.7628   -2.9994   21.8231 C.ar    1  UNL1        0.0002
     10 C           8.8449   -2.2866   20.5058 C.ar    1  UNL1        0.0031
     11 C           7.7000   -2.3620   19.5396 C.ar    1  UNL1        0.0376
     12 C           6.4730   -3.1503   19.8907 C.ar    1  UNL1        0.1472
     13 C           6.3910   -3.8631   21.2079 C.ar    1  UNL1        0.0375
     14 O           5.3281   -3.2257   18.9245 O.3     1  UNL1       -0.4361
     15 C           4.2717   -2.1608   18.9288 C.ar    1  UNL1        0.2297
     16 C           3.3055   -2.0675   20.0723 C.ar    1  UNL1        0.0581
     17 C           2.2491   -1.0026   20.0765 C.ar    1  UNL1        0.0102
     18 C           2.1590   -0.0310   18.9373 C.ar    1  UNL1        0.0907
     19 C           3.1252   -0.1243   17.7938 C.ar    1  UNL1        0.1059
     20 N           4.1816   -1.1892   17.7895 N.ar    1  UNL1       -0.2099
     21 C           1.1026    1.0339   18.9416 C.3     1  UNL1        0.4200
     22 F           0.0462    2.0988   18.9459 F       1  UNL1       -0.1658
     23 F           1.9905    1.9182   18.1172 F       1  UNL1       -0.1658
     24 F           0.2146    0.1497   19.7659 F       1  UNL1       -0.1658
     25 C           4.0867   -1.2462   28.5236 C.2     1  UNL1        0.2473
     26 O           3.1099   -1.6456   27.4575 O.2     1  UNL1       -0.2701
     27 N           5.5415   -1.5776   28.3699 N.am    1  UNL1       -0.3024
     28 H           6.1826   -1.3155   29.0696 H       1  UNL1        0.1497
     29 N           2.1744    1.6766   33.4021 N.pl3   1  UNL1       -0.3426
     30 C           2.6525    0.9459   32.1825 C.ar    1  UNL1        0.1254
     31 C           4.0746    0.4765   32.0988 C.ar    1  UNL1        0.0340
     32 C           4.5527   -0.2542   30.8791 C.ar    1  UNL1        0.0089
     33 C           3.6086   -0.5155   29.7432 C.ar    1  UNL1        0.0726
     34 C           2.1865   -0.0461   29.8269 C.ar    1  UNL1        0.1048
     35 N           1.7084    0.6846   31.0465 N.ar    1  UNL1       -0.2295
     36 H           2.7941    1.8481   34.1477 H       1  UNL1        0.1437
     37 H           1.2410    1.9847   33.4570 H       1  UNL1        0.1437
@<TRIPOS>BOND
     1    29    30    1
     2    30    31   ar
     3    31    32   ar
     4    32    33   ar
     5    33    25    1
     6    25    26    2
     7    25    27   am
     8    27     1    1
     9     1     2    1
    10     2     3    1
    11     3     4    1
    12     4     5    2
    13     5     8    1
    14     8     9   ar
    15     9    10   ar
    16    10    11   ar
    17    11    12   ar
    18    12    14    1
    19    14    15    1
    20    15    16   ar
    21    16    17   ar
    22    17    18   ar
    23    18    21    1
    24    21    22    1
    25    21    23    1
    26    21    24    1
    27    18    19   ar
    28    19    20   ar
    29    12    13   ar
    30     4     6    1
    31     6     7    1
    32    33    34   ar
    33    34    35   ar
    34    35    30   ar
    35     7     1    1
    36    13     8   ar
    37    20    15   ar
    38    29    36    1
    39    29    37    1
    40    27    28    1
@<TRIPOS>MOLECULE
*****
 37 40 0 0 0
SMALL
GASTEIGER

@<TRIPOS>ATOM
      1 C           7.2752   -2.4820   31.5175 C.3     1  UNL1        0.0725
      2 C           6.7458   -2.9194   30.1838 C.3     1  UNL1        0.0239
      3 C           7.4396   -4.0098   29.4225 C.3     1  UNL1        0.0237
      4 C           8.6628   -4.6628   29.9948 C.2     1  UNL1       -0.0441
      5 C           9.3566   -5.7533   29.2335 C.2     1  UNL1       -0.0084
      6 C           9.1921   -4.2255   31.3284 C.3     1  UNL1        0.0237
      7 C           8.4983   -3.1350   32.0897 C.3     1  UNL1        0.0239
      8 C           8.8272   -6.1906   27.8999 C.ar    1  UNL1        0.0024
      9 C           8.0526   -7.4698   27.7833 C.ar    1  UNL1        0.0002
     10 C           7.5232   -7.9072   26.4496 C.ar    1  UNL1        0.0031
     11 C           7.7686   -7.0653   25.2326 C.ar    1  UNL1        0.0376
     12 C           8.5433   -5.7861   25.3492 C.ar    1  UNL1        0.1472
     13 C           9.0726   -5.3488   26.6829 C.ar    1  UNL1        0.0375
     14 O           8.7886   -4.9443   24.1322 O.3     1  UNL1       -0.4361
     15 C           7.6341   -4.4917   23.2881 C.ar    1  UNL1        0.2297
     16 C           6.3864   -3.9736   23.9397 C.ar    1  UNL1        0.0581
     17 C           5.2320   -3.5210   23.0956 C.ar    1  UNL1        0.0102
     18 C           5.3253   -3.5867   21.6000 C.ar    1  UNL1        0.0907
     19 C           6.5731   -4.1048   20.9484 C.ar    1  UNL1        0.1059
     20 N           7.7275   -4.5573   21.7925 N.ar    1  UNL1       -0.2099
     21 C           4.1708   -3.1341   20.7559 C.3     1  UNL1        0.4200
     22 F           3.0164   -2.6816   19.9118 F       1  UNL1       -0.1658
     23 F           4.5988   -4.0730   19.6671 F       1  UNL1       -0.1658
     24 F           3.7429   -2.1953   21.8446 F       1  UNL1       -0.1658
     25 C           5.3728   -1.7083   33.1088 C.2     1  UNL1        0.2473
     26 O           4.8580   -3.1155   33.1774 O.2     1  UNL1       -0.2701
     27 N           6.5814   -1.3916   32.2788 N.am    1  UNL1       -0.3024
     28 H           6.9193   -0.4680   32.2337 H       1  UNL1        0.1497
     29 N           2.5976    2.6534   36.1541 N.pl3   1  UNL1       -0.3426
     30 C           3.2914    1.5630   35.3927 C.ar    1  UNL1        0.1254
     31 C           4.2218    0.6263   36.1046 C.ar    1  UNL1        0.0340
     32 C           4.9156   -0.4642   35.3433 C.ar    1  UNL1        0.0089
     33 C           4.6790   -0.6179   33.8701 C.ar    1  UNL1        0.0726
     34 C           3.7486    0.3189   33.1582 C.ar    1  UNL1        0.1048
     35 N           3.0548    1.4093   33.9195 N.ar    1  UNL1       -0.2295
     36 H           2.7529    2.7543   37.1210 H       1  UNL1        0.1437
     37 H           1.9869    3.2682   35.6868 H       1  UNL1        0.1437
@<TRIPOS>BOND
     1    29    30    1
     2    30    31   ar
     3    31    32   ar
     4    32    33   ar
     5    33    25    1
     6    25    26    2
     7    25    27   am
     8    27     1    1
     9     1     2    1
    10     2     3    1
    11     3     4    1
    12     4     5    2
    13     5     8    1
    14     8     9   ar
    15     9    10   ar
    16    10    11   ar
    17    11    12   ar
    18    12    14    1
    19    14    15    1
    20    15    16   ar
    21    16    17   ar
    22    17    18   ar
    23    18    21    1
    24    21    22    1
    25    21    23    1
    26    21    24    1
    27    18    19   ar
    28    19    20   ar
    29    12    13   ar
    30     4     6    1
    31     6     7    1
    32    33    34   ar
    33    34    35   ar
    34    35    30   ar
    35     7     1    1
    36    13     8   ar
    37    20    15   ar
    38    29    36    1
    39    29    37    1
    40    27    28    1
@<TRIPOS>MOLECULE
*****
 37 40 0 0 0
SMALL
GASTEIGER

@<TRIPOS>ATOM
      1 C          -3.1571    4.1577   23.4835 C.3     1  UNL1        0.0725
      2 C          -1.8134    3.7684   22.9423 C.3     1  UNL1        0.0239
      3 C          -0.7690    3.2065   23.8607 C.3     1  UNL1        0.0237
      4 C          -1.0684    3.0339   25.3204 C.2     1  UNL1       -0.0441
      5 C          -0.0240    2.4720   26.2388 C.2     1  UNL1       -0.0084
      6 C          -2.4120    3.4232   25.8616 C.3     1  UNL1        0.0237
      7 C          -3.4564    3.9851   24.9432 C.3     1  UNL1        0.0239
      8 C           1.3197    2.0826   25.6976 C.ar    1  UNL1        0.0024
      9 C           2.4932    3.0005   25.8720 C.ar    1  UNL1        0.0002
     10 C           3.8369    2.6111   25.3307 C.ar    1  UNL1        0.0031
     11 C           4.0071    1.3039   24.6150 C.ar    1  UNL1        0.0376
     12 C           2.8335    0.3860   24.4406 C.ar    1  UNL1        0.1472
     13 C           1.4899    0.7754   24.9819 C.ar    1  UNL1        0.0375
     14 O           3.0036   -0.9212   23.7249 O.3     1  UNL1       -0.4361
     15 C           3.1401   -0.9462   22.2313 C.ar    1  UNL1        0.2297
     16 C           2.4695    0.1062   21.3991 C.ar    1  UNL1        0.0581
     17 C           2.6059    0.0811   19.9056 C.ar    1  UNL1        0.0102
     18 C           3.4131   -0.9965   19.2442 C.ar    1  UNL1        0.0907
     19 C           4.0837   -2.0489   20.0764 C.ar    1  UNL1        0.1059
     20 N           3.9472   -2.0238   21.5699 N.ar    1  UNL1       -0.2099
     21 C           3.5495   -1.0216   17.7506 C.3     1  UNL1        0.4200
     22 F           3.6859   -1.0466   16.2570 F       1  UNL1       -0.1658
     23 F           4.4561   -2.2121   17.8533 F       1  UNL1       -0.1658
     24 F           2.6429    0.1690   17.6478 F       1  UNL1       -0.1658
     25 C          -4.9744    3.8064   21.6603 C.2     1  UNL1        0.2473
     26 O          -4.7029    2.3313   21.6740 O.2     1  UNL1       -0.2701
     27 N          -4.2015    4.7196   22.5651 N.am    1  UNL1       -0.3024
     28 H          -4.3797    5.6878   22.5561 H       1  UNL1        0.1497
     29 N          -9.1519    6.0541   17.9866 N.pl3   1  UNL1       -0.3426
     30 C          -8.1075    5.4922   18.9050 C.ar    1  UNL1        0.1254
     31 C          -7.1873    4.4107   18.4218 C.ar    1  UNL1        0.0340
     32 C          -6.1429    3.8488   19.3403 C.ar    1  UNL1        0.0089
     33 C          -6.0188    4.3684   20.7419 C.ar    1  UNL1        0.0726
     34 C          -6.9390    5.4498   21.2251 C.ar    1  UNL1        0.1048
     35 N          -7.9834    6.0117   20.3067 N.ar    1  UNL1       -0.2295
     36 H          -9.2333    5.7131   17.0666 H       1  UNL1        0.1437
     37 H          -9.7559    6.7639   18.3037 H       1  UNL1        0.1437
@<TRIPOS>BOND
     1    29    30    1
     2    30    31   ar
     3    31    32   ar
     4    32    33   ar
     5    33    25    1
     6    25    26    2
     7    25    27   am
     8    27     1    1
     9     1     2    1
    10     2     3    1
    11     3     4    1
    12     4     5    2
    13     5     8    1
    14     8     9   ar
    15     9    10   ar
    16    10    11   ar
    17    11    12   ar
    18    12    14    1
    19    14    15    1
    20    15    16   ar
    21    16    17   ar
    22    17    18   ar
    23    18    21    1
    24    21    22    1
    25    21    23    1
    26    21    24    1
    27    18    19   ar
    28    19    20   ar
    29    12    13   ar
    30     4     6    1
    31     6     7    1
    32    33    34   ar
    33    34    35   ar
    34    35    30   ar
    35     7     1    1
    36    13     8   ar
    37    20    15   ar
    38    29    36    1
    39    29    37    1
    40    27    28    1
