@<TRIPOS>MOLECULE
*****
 23 25 0 0 0
SMALL
GASTEIGER

@<TRIPOS>ATOM
      1 N          -8.4855  -18.2904   21.6251 N.ar    1  UNL1       -0.2341
      2 N          -9.2940  -17.3861   20.7427 N.ar    1  UNL1       -0.1617
      3 C         -10.6855  -17.3190   21.2988 C.ar    1  UNL1        0.1696
      4 C         -10.7370  -18.1818   22.5247 C.ar    1  UNL1        0.0148
      5 C          -9.3773  -18.7822   22.7264 C.ar    1  UNL1        0.0579
      6 C          -9.1269  -19.6991   23.8867 C.3     1  UNL1        0.0456
      7 C         -10.2362  -20.0156   24.8454 C.3     1  UNL1        0.0066
      8 C         -11.5959  -19.4152   24.6438 C.3     1  UNL1        0.0052
      9 C         -11.8463  -18.4983   23.4834 C.3     1  UNL1        0.0291
     10 C          -4.1461  -19.3432   21.0664 C.ar    1  UNL1       -0.0147
     11 C          -4.5921  -18.6367   22.3121 C.ar    1  UNL1       -0.0023
     12 C          -6.0385  -18.2858   22.4984 C.ar    1  UNL1        0.0188
     13 C          -7.0390  -18.6414   21.4388 C.ar    1  UNL1        0.0824
     14 C          -6.5930  -19.3478   20.1931 C.ar    1  UNL1        0.0188
     15 C          -5.1466  -19.6988   20.0068 C.ar    1  UNL1       -0.0023
     16 C          -2.6997  -19.6942   20.8801 C.3     1  UNL1        0.0908
     17 C          -2.4000  -17.6690   19.2805 C.3     1  UNL1        0.0726
     18 C          -1.8092  -18.7994   20.0700 C.2     1  UNL1        0.1555
     19 O          -0.3280  -19.0348   20.0495 O.2     1  UNL1       -0.2957
     20 C         -11.8255  -16.5279   20.7289 C.3     1  UNL1        0.4362
     21 F         -12.9654  -15.7369   20.1589 F       1  UNL1       -0.1644
     22 F         -11.7669  -17.3475   19.4740 F       1  UNL1       -0.1644
     23 F         -11.8841  -15.7083   21.9837 F       1  UNL1       -0.1644
@<TRIPOS>BOND
     1    17    18    1
     2    18    19    2
     3    18    16    1
     4    16    10    1
     5    10    11   ar
     6    11    12   ar
     7    12    13   ar
     8    13     1    1
     9     1     2   ar
    10     2     3   ar
    11     3    20    1
    12    20    21    1
    13    20    22    1
    14    20    23    1
    15     3     4   ar
    16     4     5   ar
    17     5     6    1
    18     6     7    1
    19     7     8    1
    20     8     9    1
    21    13    14   ar
    22    14    15   ar
    23    15    10   ar
    24     5     1   ar
    25     9     4    1
@<TRIPOS>MOLECULE
*****
 23 25 0 0 0
SMALL
GASTEIGER

@<TRIPOS>ATOM
      1 N          -7.5401  -19.0749   22.1211 N.ar    1  UNL1       -0.2341
      2 N          -8.2909  -18.9124   23.4095 N.ar    1  UNL1       -0.1617
      3 C          -9.7568  -19.0116   23.1074 C.ar    1  UNL1        0.1696
      4 C          -9.9120  -19.2354   21.6323 C.ar    1  UNL1        0.0148
      5 C          -8.5421  -19.2745   21.0227 C.ar    1  UNL1        0.0579
      6 C          -8.3839  -19.4868   19.5463 C.3     1  UNL1        0.0456
      7 C          -9.5957  -19.6601   18.6795 C.3     1  UNL1        0.0066
      8 C         -10.9657  -19.6210   19.2891 C.3     1  UNL1        0.0052
      9 C         -11.1239  -19.4086   20.7655 C.3     1  UNL1        0.0291
     10 C          -3.0673  -18.9802   21.6358 C.ar    1  UNL1       -0.0147
     11 C          -3.8897  -19.9366   20.8241 C.ar    1  UNL1       -0.0023
     12 C          -5.3806  -19.9682   20.9858 C.ar    1  UNL1        0.0188
     13 C          -6.0492  -19.0433   21.9593 C.ar    1  UNL1        0.0824
     14 C          -5.2268  -18.0869   22.7710 C.ar    1  UNL1        0.0188
     15 C          -3.7359  -18.0553   22.6093 C.ar    1  UNL1       -0.0023
     16 C          -1.5764  -18.9486   21.4741 C.3     1  UNL1        0.0908
     17 C          -1.7420  -17.5003   19.3234 C.3     1  UNL1        0.0726
     18 C          -0.9711  -18.4447   20.1975 C.2     1  UNL1        0.1555
     19 O           0.4051  -18.8852   19.7949 O.2     1  UNL1       -0.2957
     20 C         -10.8717  -18.9056   24.1052 C.3     1  UNL1        0.4362
     21 F         -11.9867  -18.7995   25.1030 F       1  UNL1       -0.1644
     22 F         -10.9599  -17.4301   23.8500 F       1  UNL1       -0.1644
     23 F         -10.7836  -20.3810   24.3605 F       1  UNL1       -0.1644
@<TRIPOS>BOND
     1    17    18    1
     2    18    19    2
     3    18    16    1
     4    16    10    1
     5    10    11   ar
     6    11    12   ar
     7    12    13   ar
     8    13     1    1
     9     1     2   ar
    10     2     3   ar
    11     3    20    1
    12    20    21    1
    13    20    22    1
    14    20    23    1
    15     3     4   ar
    16     4     5   ar
    17     5     6    1
    18     6     7    1
    19     7     8    1
    20     8     9    1
    21    13    14   ar
    22    14    15   ar
    23    15    10   ar
    24     5     1   ar
    25     9     4    1
@<TRIPOS>MOLECULE
*****
 23 25 0 0 0
SMALL
GASTEIGER

@<TRIPOS>ATOM
      1 N          -7.4646  -18.1924   21.8837 N.ar    1  UNL1       -0.2341
      2 N          -8.7085  -18.7349   21.2445 N.ar    1  UNL1       -0.1617
      3 C          -9.8895  -18.0954   21.9125 C.ar    1  UNL1        0.1696
      4 C          -9.3756  -17.1577   22.9645 C.ar    1  UNL1        0.0148
      5 C          -7.8769  -17.2176   22.9466 C.ar    1  UNL1        0.0579
      6 C          -7.0812  -16.3769   23.9006 C.3     1  UNL1        0.0456
      7 C          -7.7843  -15.4762   24.8724 C.3     1  UNL1        0.0066
      8 C          -9.2829  -15.4162   24.8902 C.3     1  UNL1        0.0052
      9 C         -10.0786  -16.2569   23.9362 C.3     1  UNL1        0.0291
     10 C          -3.2381  -19.2956   20.8020 C.ar    1  UNL1       -0.0147
     11 C          -4.3116  -19.3224   19.7547 C.ar    1  UNL1       -0.0023
     12 C          -5.7205  -18.9547   20.1153 C.ar    1  UNL1        0.0188
     13 C          -6.0558  -18.5602   21.5231 C.ar    1  UNL1        0.0824
     14 C          -4.9823  -18.5334   22.5703 C.ar    1  UNL1        0.0188
     15 C          -3.5734  -18.9011   22.2098 C.ar    1  UNL1       -0.0023
     16 C          -1.8293  -19.6634   20.4415 C.3     1  UNL1        0.0908
     17 C          -1.2652  -17.1524   20.0853 C.3     1  UNL1        0.0726
     18 C          -0.8440  -18.5921   20.0789 C.2     1  UNL1        0.1555
     19 O           0.5625  -18.9603   19.7098 O.2     1  UNL1       -0.2957
     20 C         -11.3314  -18.3490   21.5859 C.3     1  UNL1        0.4362
     21 F         -12.7733  -18.6026   21.2592 F       1  UNL1       -0.1644
     22 F         -11.2372  -17.3970   20.4306 F       1  UNL1       -0.1644
     23 F         -11.4256  -19.3010   22.7412 F       1  UNL1       -0.1644
@<TRIPOS>BOND
     1    17    18    1
     2    18    19    2
     3    18    16    1
     4    16    10    1
     5    10    11   ar
     6    11    12   ar
     7    12    13   ar
     8    13     1    1
     9     1     2   ar
    10     2     3   ar
    11     3    20    1
    12    20    21    1
    13    20    22    1
    14    20    23    1
    15     3     4   ar
    16     4     5   ar
    17     5     6    1
    18     6     7    1
    19     7     8    1
    20     8     9    1
    21    13    14   ar
    22    14    15   ar
    23    15    10   ar
    24     5     1   ar
    25     9     4    1
@<TRIPOS>MOLECULE
*****
 23 25 0 0 0
SMALL
GASTEIGER

@<TRIPOS>ATOM
      1 N          -6.2579  -18.4202   22.4647 N.ar    1  UNL1       -0.2341
      2 N          -5.2065  -17.4204   22.8453 N.ar    1  UNL1       -0.1617
      3 C          -3.9422  -17.7795   22.1224 C.ar    1  UNL1        0.1696
      4 C          -4.2122  -19.0013   21.2951 C.ar    1  UNL1        0.0148
      5 C          -5.6435  -19.3972   21.5066 C.ar    1  UNL1        0.0579
      6 C          -6.2023  -20.5962   20.7995 C.3     1  UNL1        0.0456
      7 C          -5.3299  -21.3993   19.8809 C.3     1  UNL1        0.0066
      8 C          -3.8987  -21.0034   19.6694 C.3     1  UNL1        0.0052
      9 C          -3.3398  -19.8043   20.3764 C.3     1  UNL1        0.0291
     10 C         -10.5094  -18.4784   23.9384 C.ar    1  UNL1       -0.0147
     11 C          -9.8862  -19.7307   23.3969 C.ar    1  UNL1       -0.0023
     12 C          -8.4690  -19.7113   22.9056 C.ar    1  UNL1        0.0188
     13 C          -7.6751  -18.4395   22.9559 C.ar    1  UNL1        0.0824
     14 C          -8.2984  -17.1873   23.4975 C.ar    1  UNL1        0.0188
     15 C          -9.7155  -17.2067   23.9887 C.ar    1  UNL1       -0.0023
     16 C         -11.9266  -18.4978   24.4296 C.3     1  UNL1        0.0908
     17 C         -12.7472  -17.7134   22.0927 C.3     1  UNL1        0.0726
     18 C         -13.0454  -18.1151   23.5068 C.2     1  UNL1        0.1555
     19 O         -14.4626  -18.1341   23.9980 O.2     1  UNL1       -0.2957
     20 C          -2.6369  -17.0458   22.2112 C.3     1  UNL1        0.4362
     21 F          -1.3316  -16.3120   22.3000 F       1  UNL1       -0.1644
     22 F          -2.8289  -16.5350   20.8140 F       1  UNL1       -0.1644
     23 F          -2.4448  -17.5565   23.6084 F       1  UNL1       -0.1644
@<TRIPOS>BOND
     1    17    18    1
     2    18    19    2
     3    18    16    1
     4    16    10    1
     5    10    11   ar
     6    11    12   ar
     7    12    13   ar
     8    13     1    1
     9     1     2   ar
    10     2     3   ar
    11     3    20    1
    12    20    21    1
    13    20    22    1
    14    20    23    1
    15     3     4   ar
    16     4     5   ar
    17     5     6    1
    18     6     7    1
    19     7     8    1
    20     8     9    1
    21    13    14   ar
    22    14    15   ar
    23    15    10   ar
    24     5     1   ar
    25     9     4    1
@<TRIPOS>MOLECULE
*****
 23 25 0 0 0
SMALL
GASTEIGER

@<TRIPOS>ATOM
      1 N          -6.2873  -17.0095   23.6742 N.ar    1  UNL1       -0.2341
      2 N          -6.3454  -16.3544   25.0223 N.ar    1  UNL1       -0.1617
      3 C          -7.7794  -16.0286   25.3179 C.ar    1  UNL1        0.1696
      4 C          -8.6076  -16.4824   24.1525 C.ar    1  UNL1        0.0148
      5 C          -7.6855  -17.0886   23.1366 C.ar    1  UNL1        0.0579
      6 C          -8.2380  -17.6344   21.8534 C.3     1  UNL1        0.0456
      7 C          -9.7127  -17.5739   21.5860 C.3     1  UNL1        0.0066
      8 C         -10.6349  -16.9676   22.6019 C.3     1  UNL1        0.0052
      9 C         -10.0824  -16.4219   23.8852 C.3     1  UNL1        0.0291
     10 C          -2.5712  -18.4797   21.6054 C.ar    1  UNL1       -0.0147
     11 C          -3.8209  -19.3090   21.5813 C.ar    1  UNL1       -0.0023
     12 C          -5.0596  -18.8189   22.2709 C.ar    1  UNL1        0.0188
     13 C          -5.0486  -17.4996   22.9846 C.ar    1  UNL1        0.0824
     14 C          -3.7990  -16.6704   23.0087 C.ar    1  UNL1        0.0188
     15 C          -2.5603  -17.1604   22.3191 C.ar    1  UNL1       -0.0023
     16 C          -1.3325  -18.9698   20.9159 C.3     1  UNL1        0.0908
     17 C           0.5205  -17.3954   20.0007 C.3     1  UNL1        0.0726
     18 C          -0.7403  -18.1795   19.7869 C.2     1  UNL1        0.1555
     19 O          -1.4088  -18.1732   18.4441 O.2     1  UNL1       -0.2957
     20 C          -8.2947  -15.3655   26.5608 C.3     1  UNL1        0.4362
     21 F          -8.8102  -14.7022   27.8036 F       1  UNL1       -0.1644
     22 F          -9.2588  -14.5665   25.7347 F       1  UNL1       -0.1644
     23 F          -7.3308  -16.1643   27.3868 F       1  UNL1       -0.1644
@<TRIPOS>BOND
     1    17    18    1
     2    18    19    2
     3    18    16    1
     4    16    10    1
     5    10    11   ar
     6    11    12   ar
     7    12    13   ar
     8    13     1    1
     9     1     2   ar
    10     2     3   ar
    11     3    20    1
    12    20    21    1
    13    20    22    1
    14    20    23    1
    15     3     4   ar
    16     4     5   ar
    17     5     6    1
    18     6     7    1
    19     7     8    1
    20     8     9    1
    21    13    14   ar
    22    14    15   ar
    23    15    10   ar
    24     5     1   ar
    25     9     4    1
@<TRIPOS>MOLECULE
*****
 23 25 0 0 0
SMALL
GASTEIGER

@<TRIPOS>ATOM
      1 N          -7.5476  -18.6540   21.8199 N.ar    1  UNL1       -0.2341
      2 N          -7.0323  -19.6051   20.7807 N.ar    1  UNL1       -0.1617
      3 C          -5.5337  -19.5423   20.7972 C.ar    1  UNL1        0.1696
      4 C          -5.1228  -18.5523   21.8466 C.ar    1  UNL1        0.0148
      5 C          -6.3674  -18.0033   22.4786 C.ar    1  UNL1        0.0579
      6 C          -6.2654  -16.9819   23.5723 C.3     1  UNL1        0.0456
      7 C          -4.9187  -16.5094   24.0340 C.3     1  UNL1        0.0066
      8 C          -3.6741  -17.0584   23.4019 C.3     1  UNL1        0.0052
      9 C          -3.7761  -18.0799   22.3083 C.3     1  UNL1        0.0291
     10 C         -11.8742  -17.8870   22.7907 C.ar    1  UNL1       -0.0147
     11 C         -10.8655  -16.7869   22.9405 C.ar    1  UNL1       -0.0023
     12 C          -9.4233  -17.0425   22.6169 C.ar    1  UNL1        0.0188
     13 C          -8.9898  -18.3983   22.1435 C.ar    1  UNL1        0.0824
     14 C          -9.9984  -19.4983   21.9937 C.ar    1  UNL1        0.0188
     15 C         -11.4406  -19.2427   22.3173 C.ar    1  UNL1       -0.0023
     16 C         -13.3164  -17.6314   23.1143 C.3     1  UNL1        0.0908
     17 C         -15.4262  -18.4793   24.3712 C.3     1  UNL1        0.0726
     18 C         -13.9410  -18.2761   24.3160 C.2     1  UNL1        0.1555
     19 O         -13.0805  -18.7178   25.4625 O.2     1  UNL1       -0.2957
     20 C          -4.6085  -20.3309   19.9187 C.3     1  UNL1        0.4362
     21 F          -3.6831  -21.1195   19.0400 F       1  UNL1       -0.1644
     22 F          -3.9866  -19.0565   19.4296 F       1  UNL1       -0.1644
     23 F          -5.2303  -21.6053   20.4077 F       1  UNL1       -0.1644
@<TRIPOS>BOND
     1    17    18    1
     2    18    19    2
     3    18    16    1
     4    16    10    1
     5    10    11   ar
     6    11    12   ar
     7    12    13   ar
     8    13     1    1
     9     1     2   ar
    10     2     3   ar
    11     3    20    1
    12    20    21    1
    13    20    22    1
    14    20    23    1
    15     3     4   ar
    16     4     5   ar
    17     5     6    1
    18     6     7    1
    19     7     8    1
    20     8     9    1
    21    13    14   ar
    22    14    15   ar
    23    15    10   ar
    24     5     1   ar
    25     9     4    1
@<TRIPOS>MOLECULE
*****
 23 25 0 0 0
SMALL
GASTEIGER

@<TRIPOS>ATOM
      1 N           2.5524   -1.2025   20.2344 N.ar    1  UNL1       -0.2341
      2 N           2.8328   -2.2094   19.1586 N.ar    1  UNL1       -0.1617
      3 C           3.7439   -3.2555   19.7291 C.ar    1  UNL1        0.1696
      4 C           4.0265   -2.8952   21.1575 C.ar    1  UNL1        0.0148
      5 C           3.2901   -1.6263   21.4698 C.ar    1  UNL1        0.0579
      6 C           3.3865   -1.0207   22.8387 C.3     1  UNL1        0.0456
      7 C           4.2193   -1.6840   23.8953 C.3     1  UNL1        0.0066
      8 C           4.9557   -2.9529   23.5829 C.3     1  UNL1        0.0052
      9 C           4.8593   -3.5585   22.2140 C.3     1  UNL1        0.0291
     10 C          -0.0461    2.4489   19.8273 C.ar    1  UNL1       -0.0147
     11 C           0.6741    1.9036   18.6298 C.ar    1  UNL1       -0.0023
     12 C           1.5402    0.6865   18.7655 C.ar    1  UNL1        0.0188
     13 C           1.6862    0.0147   20.0988 C.ar    1  UNL1        0.0824
     14 C           0.9660    0.5600   21.2961 C.ar    1  UNL1        0.0188
     15 C           0.0999    1.7771   21.1605 C.ar    1  UNL1       -0.0023
     16 C          -0.9123    3.6661   19.6916 C.3     1  UNL1        0.0908
     17 C          -3.1789    4.1092   18.5017 C.3     1  UNL1        0.0726
     18 C          -2.4047    3.5230   19.6449 C.2     1  UNL1        0.1555
     19 O          -3.1229    2.7937   20.7414 O.2     1  UNL1       -0.2957
     20 C           4.2785   -4.4521   18.9993 C.3     1  UNL1        0.4362
     21 F           4.8131   -5.6486   18.2696 F       1  UNL1       -0.1644
     22 F           3.2969   -5.3292   19.7183 F       1  UNL1       -0.1644
     23 F           5.2601   -3.5750   18.2803 F       1  UNL1       -0.1644
@<TRIPOS>BOND
     1    17    18    1
     2    18    19    2
     3    18    16    1
     4    16    10    1
     5    10    11   ar
     6    11    12   ar
     7    12    13   ar
     8    13     1    1
     9     1     2   ar
    10     2     3   ar
    11     3    20    1
    12    20    21    1
    13    20    22    1
    14    20    23    1
    15     3     4   ar
    16     4     5   ar
    17     5     6    1
    18     6     7    1
    19     7     8    1
    20     8     9    1
    21    13    14   ar
    22    14    15   ar
    23    15    10   ar
    24     5     1   ar
    25     9     4    1
@<TRIPOS>MOLECULE
*****
 23 25 0 0 0
SMALL
GASTEIGER

@<TRIPOS>ATOM
      1 N          -6.1389  -18.5590   21.1515 N.ar    1  UNL1       -0.2341
      2 N          -5.4875  -18.7839   19.8193 N.ar    1  UNL1       -0.1617
      3 C          -4.0091  -18.5947   19.9884 C.ar    1  UNL1        0.1696
      4 C          -3.7469  -18.2529   21.4252 C.ar    1  UNL1        0.0148
      5 C          -5.0632  -18.2309   22.1441 C.ar    1  UNL1        0.0579
      6 C          -5.1123  -17.9148   23.6096 C.3     1  UNL1        0.0456
      7 C          -3.8450  -17.6208   24.3562 C.3     1  UNL1        0.0066
      8 C          -2.5286  -17.6428   23.6373 C.3     1  UNL1        0.0052
      9 C          -2.4796  -17.9589   22.1718 C.3     1  UNL1        0.0291
     10 C         -10.5468  -18.8227   22.0186 C.ar    1  UNL1       -0.0147
     11 C         -10.0003  -19.3759   20.7359 C.ar    1  UNL1       -0.0023
     12 C          -8.5311  -19.2880   20.4468 C.ar    1  UNL1        0.0188
     13 C          -7.6082  -18.6469   21.4406 C.ar    1  UNL1        0.0824
     14 C          -8.1547  -18.0938   22.7232 C.ar    1  UNL1        0.0188
     15 C          -9.6240  -18.1816   23.0123 C.ar    1  UNL1       -0.0023
     16 C         -12.0161  -18.9106   22.3076 C.3     1  UNL1        0.0908
     17 C         -13.7238  -17.9352   24.0053 C.3     1  UNL1        0.0726
     18 C         -12.7367  -17.7330   22.8941 C.2     1  UNL1        0.1555
     19 O         -12.4704  -16.3533   22.3693 O.2     1  UNL1       -0.2957
     20 C          -2.9745  -18.7245   18.9101 C.3     1  UNL1        0.4362
     21 F          -1.9399  -18.8544   17.8317 F       1  UNL1       -0.1644
     22 F          -3.2372  -20.1995   18.8356 F       1  UNL1       -0.1644
     23 F          -2.7118  -17.2497   18.9846 F       1  UNL1       -0.1644
@<TRIPOS>BOND
     1    17    18    1
     2    18    19    2
     3    18    16    1
     4    16    10    1
     5    10    11   ar
     6    11    12   ar
     7    12    13   ar
     8    13     1    1
     9     1     2   ar
    10     2     3   ar
    11     3    20    1
    12    20    21    1
    13    20    22    1
    14    20    23    1
    15     3     4   ar
    16     4     5   ar
    17     5     6    1
    18     6     7    1
    19     7     8    1
    20     8     9    1
    21    13    14   ar
    22    14    15   ar
    23    15    10   ar
    24     5     1   ar
    25     9     4    1
