@<TRIPOS>MOLECULE
*****
 39 44 0 0 0
SMALL
GASTEIGER

@<TRIPOS>ATOM
      1 C           8.2495   -2.5129   18.6186 C.3     1  UNL1        0.1164
      2 N           7.3974   -2.5733   19.8515 N.am    1  UNL1       -0.2625
      3 C           8.0292   -2.8257   21.1883 C.2     1  UNL1        0.3073
      4 O           9.5132   -3.0177   21.2921 O.2     1  UNL1       -0.2523
      5 N           7.1771   -2.8860   22.4212 N.am    1  UNL1       -0.2621
      6 C           5.6879   -2.7140   22.4731 C.3     1  UNL1        0.0970
      7 C           5.2550   -2.8506   23.9027 C.3     1  UNL1        0.0460
      8 C           6.4766   -3.1072   24.7345 C.3     1  UNL1        0.1114
      9 C           7.6646   -3.1291   23.8189 C.3     1  UNL1        0.1176
     10 N           6.5052   -3.3068   26.2209 N.ar    1  UNL1       -0.2779
     11 C           6.9184   -4.6308   26.7920 C.ar    1  UNL1        0.1808
     12 N           6.9470   -4.8304   28.2785 N.ar    1  UNL1       -0.2247
     13 C           6.5624   -3.7060   29.1937 C.ar    1  UNL1        0.0941
     14 C           6.4946   -3.6073   30.6889 C.ar    1  UNL1        0.0263
     15 C           6.0395   -2.2223   31.0418 C.ar    1  UNL1        0.0312
     16 S           5.8261   -1.4649   29.7647 S.2     1  UNL1       -0.0807
     17 C           6.1492   -2.3819   28.6225 C.ar    1  UNL1        0.1033
     18 C           6.1206   -2.1824   27.1361 C.ar    1  UNL1        0.2694
     19 O           5.7075   -0.8583   26.5649 O.2     1  UNL1       -0.2663
     20 C           5.8340   -1.6883   32.4284 C.ar    1  UNL1        0.0061
     21 C           6.9498   -0.9715   33.1291 C.ar    1  UNL1        0.0014
     22 C           6.7442   -0.4375   34.5157 C.ar    1  UNL1        0.0114
     23 C           5.4228   -0.6203   35.2016 C.ar    1  UNL1        0.0577
     24 CL          5.2172   -0.0862   36.5881 Cl      1  UNL1       -0.0822
     25 C           4.3069   -1.3371   34.5008 C.ar    1  UNL1        0.0114
     26 C           4.5126   -1.8710   33.1142 C.ar    1  UNL1        0.0014
     27 C           5.9133   -2.3813   19.7477 C.3     1  UNL1        0.0942
     28 C           4.8938   -3.4676   19.5731 C.3     1  UNL1        0.0386
     29 C           3.5386   -2.8271   19.5177 C.3     1  UNL1        0.0738
     30 N           3.7206   -1.3448   19.6581 N.3     1  UNL1       -0.2725
     31 C           5.1882   -1.0693   19.8002 C.3     1  UNL1        0.0922
     32 C           2.6269   -0.3182   19.6567 C.3     1  UNL1        0.0575
     33 C           2.4963    0.6369   18.5075 C.3     1  UNL1        0.0160
     34 C           1.4026    1.6635   18.5061 C.3     1  UNL1        0.0014
     35 C           0.4395    1.7350   19.6539 C.3     1  UNL1        0.0001
     36 C          -0.7072    2.1935   20.5052 C.3     1  UNL1        0.0000
     37 C          -0.0893    2.8494   18.8003 C.3     1  UNL1        0.0000
     38 C           0.5701    0.7799   20.8031 C.3     1  UNL1        0.0014
     39 C           1.6638   -0.2467   20.8045 C.3     1  UNL1        0.0160
@<TRIPOS>BOND
     1     1     2    1
     2     2     3   am
     3     3     4    2
     4     3     5   am
     5     5     6    1
     6     6     7    1
     7     7     8    1
     8     8    10    1
     9    10    11   ar
    10    11    12   ar
    11    12    13   ar
    12    13    14   ar
    13    14    15   ar
    14    15    20    1
    15    20    21   ar
    16    21    22   ar
    17    22    23   ar
    18    23    24    1
    19    23    25   ar
    20    25    26   ar
    21    15    16   ar
    22    16    17   ar
    23    17    18   ar
    24    18    19    2
    25     8     9    1
    26    27     2    1
    27    27    28    1
    28    28    29    1
    29    29    30    1
    30    30    32    1
    31    32    33    1
    32    33    34    1
    33    34    35    1
    34    35    36    1
    35    35    37    1
    36    35    38    1
    37    38    39    1
    38    30    31    1
    39     9     5    1
    40    31    27    1
    41    18    10   ar
    42    39    32    1
    43    17    13   ar
    44    26    20   ar
@<TRIPOS>MOLECULE
*****
 39 44 0 0 0
SMALL
GASTEIGER

@<TRIPOS>ATOM
      1 C           9.0054   -7.1276   26.8558 C.3     1  UNL1        0.1164
      2 N           8.3607   -5.8877   27.4006 N.am    1  UNL1       -0.2625
      3 C           8.0552   -5.7829   28.8654 C.2     1  UNL1        0.3073
      4 O           8.3943   -6.9181   29.7854 O.2     1  UNL1       -0.2523
      5 N           7.4104   -4.5430   29.4103 N.am    1  UNL1       -0.2621
      6 C           7.0158   -3.3329   28.6167 C.3     1  UNL1        0.0970
      7 C           6.4086   -2.3375   29.5603 C.3     1  UNL1        0.0460
      8 C           6.4280   -2.9324   30.9372 C.3     1  UNL1        0.1114
      9 C           7.0472   -4.2955   30.8445 C.3     1  UNL1        0.1176
     10 N           5.9178   -2.2789   32.1873 N.ar    1  UNL1       -0.2779
     11 C           4.4906   -2.4728   32.6061 C.ar    1  UNL1        0.1808
     12 N           3.9804   -1.8193   33.8562 N.ar    1  UNL1       -0.2247
     13 C           4.8975   -0.9719   34.6874 C.ar    1  UNL1        0.0941
     14 C           4.6798   -0.2077   35.9597 C.ar    1  UNL1        0.0263
     15 C           5.9725    0.4585   36.3271 C.ar    1  UNL1        0.0312
     16 S           6.9891    0.1060   35.2819 S.2     1  UNL1       -0.0807
     17 C           6.3247   -0.7780   34.2685 C.ar    1  UNL1        0.1033
     18 C           6.8348   -1.4315   33.0185 C.ar    1  UNL1        0.2694
     19 O           8.2621   -1.2376   32.5996 O.2     1  UNL1       -0.2663
     20 C           6.2075    1.3251   37.5287 C.ar    1  UNL1        0.0061
     21 C           5.0437    1.9312   38.2554 C.ar    1  UNL1        0.0014
     22 C           5.2787    2.7977   39.4570 C.ar    1  UNL1        0.0114
     23 C           6.6775    3.0582   39.9320 C.ar    1  UNL1        0.0577
     24 CL          6.9124    3.9247   41.1336 Cl      1  UNL1       -0.0822
     25 C           7.8413    2.4520   39.2053 C.ar    1  UNL1        0.0114
     26 C           7.6063    1.5855   38.0036 C.ar    1  UNL1        0.0014
     27 C           8.0216   -4.7525   26.4807 C.3     1  UNL1        0.0942
     28 C           8.8498   -3.5223   26.2558 C.3     1  UNL1        0.0386
     29 C           8.1348   -2.6576   25.2603 C.3     1  UNL1        0.0738
     30 N           6.8646   -3.3535   24.8699 N.3     1  UNL1       -0.2725
     31 C           6.7946   -4.6482   25.6242 C.3     1  UNL1        0.0922
     32 C           5.8436   -2.8441   23.8963 C.3     1  UNL1        0.0575
     33 C           4.8538   -1.8014   24.3242 C.3     1  UNL1        0.0160
     34 C           3.8328   -1.2921   23.3505 C.3     1  UNL1        0.0014
     35 C           3.8015   -1.8253   21.9488 C.3     1  UNL1        0.0001
     36 C           3.3751   -2.0200   20.5239 C.3     1  UNL1        0.0000
     37 C           2.6636   -0.8503   21.8819 C.3     1  UNL1        0.0000
     38 C           4.7913   -2.8680   21.5208 C.3     1  UNL1        0.0014
     39 C           5.8123   -3.3774   22.4945 C.3     1  UNL1        0.0160
@<TRIPOS>BOND
     1     1     2    1
     2     2     3   am
     3     3     4    2
     4     3     5   am
     5     5     6    1
     6     6     7    1
     7     7     8    1
     8     8    10    1
     9    10    11   ar
    10    11    12   ar
    11    12    13   ar
    12    13    14   ar
    13    14    15   ar
    14    15    20    1
    15    20    21   ar
    16    21    22   ar
    17    22    23   ar
    18    23    24    1
    19    23    25   ar
    20    25    26   ar
    21    15    16   ar
    22    16    17   ar
    23    17    18   ar
    24    18    19    2
    25     8     9    1
    26    27     2    1
    27    27    28    1
    28    28    29    1
    29    29    30    1
    30    30    32    1
    31    32    33    1
    32    33    34    1
    33    34    35    1
    34    35    36    1
    35    35    37    1
    36    35    38    1
    37    38    39    1
    38    30    31    1
    39     9     5    1
    40    31    27    1
    41    18    10   ar
    42    39    32    1
    43    17    13   ar
    44    26    20   ar
@<TRIPOS>MOLECULE
*****
 39 44 0 0 0
SMALL
GASTEIGER

@<TRIPOS>ATOM
      1 C           8.8435   -5.7503   20.4772 C.3     1  UNL1        0.1164
      2 N           8.2636   -4.9496   21.6051 N.am    1  UNL1       -0.2625
      3 C           8.3778   -5.4482   23.0152 C.2     1  UNL1        0.3073
      4 O           9.0720   -6.7476   23.2973 O.2     1  UNL1       -0.2523
      5 N           7.7978   -4.6474   24.1432 N.am    1  UNL1       -0.2621
      6 C           7.0793   -3.3369   24.0158 C.3     1  UNL1        0.0970
      7 C           6.6719   -2.8961   25.3904 C.3     1  UNL1        0.0460
      8 C           7.1387   -3.9342   26.3674 C.3     1  UNL1        0.1114
      9 C           7.8345   -5.0166   25.5966 C.3     1  UNL1        0.1176
     10 N           6.9438   -3.8964   27.8543 N.ar    1  UNL1       -0.2779
     11 C           6.8387   -5.1761   28.6296 C.ar    1  UNL1        0.1808
     12 N           6.6437   -5.1384   30.1165 N.ar    1  UNL1       -0.2247
     13 C           6.5539   -3.8209   30.8279 C.ar    1  UNL1        0.0941
     14 C           6.3651   -3.4722   32.2745 C.ar    1  UNL1        0.0263
     15 C           6.3535   -1.9769   32.3932 C.ar    1  UNL1        0.0312
     16 S           6.5352   -1.4015   31.0199 S.2     1  UNL1       -0.0807
     17 C           6.6591   -2.5411   30.0525 C.ar    1  UNL1        0.1033
     18 C           6.8540   -2.5789   28.5657 C.ar    1  UNL1        0.2694
     19 O           6.9591   -1.2992   27.7902 O.2     1  UNL1       -0.2663
     20 C           6.1892   -1.1944   33.6623 C.ar    1  UNL1        0.0061
     21 C           4.8715   -1.1960   34.3790 C.ar    1  UNL1        0.0014
     22 C           4.7072   -0.4135   35.6482 C.ar    1  UNL1        0.0114
     23 C           5.8605    0.3706   36.2006 C.ar    1  UNL1        0.0577
     24 CL          5.6961    1.1531   37.4697 Cl      1  UNL1       -0.0822
     25 C           7.1782    0.3722   35.4838 C.ar    1  UNL1        0.0114
     26 C           7.3425   -0.4104   34.2147 C.ar    1  UNL1        0.0014
     27 C           7.5694   -3.6502   21.3230 C.3     1  UNL1        0.0942
     28 C           8.2016   -2.2901   21.3441 C.3     1  UNL1        0.0386
     29 C           7.1441   -1.2820   21.0045 C.3     1  UNL1        0.0738
     30 N           5.8583   -2.0190   20.7734 N.3     1  UNL1       -0.2725
     31 C           6.1211   -3.4827   20.9703 C.3     1  UNL1        0.0922
     32 C           4.5409   -1.4010   20.4094 C.3     1  UNL1        0.0575
     33 C           4.3675   -0.7352   19.0765 C.3     1  UNL1        0.0160
     34 C           3.0500   -0.1172   18.7126 C.3     1  UNL1        0.0014
     35 C           1.9060   -0.1650   19.6815 C.3     1  UNL1        0.0001
     36 C           0.5365    0.0436   20.2569 C.3     1  UNL1        0.0000
     37 C           1.2570    0.5733   18.5484 C.3     1  UNL1        0.0000
     38 C           2.0793   -0.8308   21.0144 C.3     1  UNL1        0.0014
     39 C           3.3967   -1.4488   21.3784 C.3     1  UNL1        0.0160
@<TRIPOS>BOND
     1     1     2    1
     2     2     3   am
     3     3     4    2
     4     3     5   am
     5     5     6    1
     6     6     7    1
     7     7     8    1
     8     8    10    1
     9    10    11   ar
    10    11    12   ar
    11    12    13   ar
    12    13    14   ar
    13    14    15   ar
    14    15    20    1
    15    20    21   ar
    16    21    22   ar
    17    22    23   ar
    18    23    24    1
    19    23    25   ar
    20    25    26   ar
    21    15    16   ar
    22    16    17   ar
    23    17    18   ar
    24    18    19    2
    25     8     9    1
    26    27     2    1
    27    27    28    1
    28    28    29    1
    29    29    30    1
    30    30    32    1
    31    32    33    1
    32    33    34    1
    33    34    35    1
    34    35    36    1
    35    35    37    1
    36    35    38    1
    37    38    39    1
    38    30    31    1
    39     9     5    1
    40    31    27    1
    41    18    10   ar
    42    39    32    1
    43    17    13   ar
    44    26    20   ar
@<TRIPOS>MOLECULE
*****
 39 44 0 0 0
SMALL
GASTEIGER

@<TRIPOS>ATOM
      1 C          -2.7456    4.1104   19.8101 C.3     1  UNL1        0.1164
      2 N          -1.7857    3.6199   20.8531 N.am    1  UNL1       -0.2625
      3 C          -2.1916    3.6024   22.2970 C.2     1  UNL1        0.3073
      4 O          -3.5574    4.0754   22.6980 O.2     1  UNL1       -0.2523
      5 N          -1.2316    3.1118   23.3400 N.am    1  UNL1       -0.2621
      6 C           0.1602    2.6108   23.0914 C.3     1  UNL1        0.0970
      7 C           0.7570    2.2255   24.4125 C.3     1  UNL1        0.0460
      8 C          -0.2659    2.4885   25.4776 C.3     1  UNL1        0.1114
      9 C          -1.4950    3.0363   24.8149 C.3     1  UNL1        0.1176
     10 N          -0.0905    2.2462   26.9476 N.ar    1  UNL1       -0.2779
     11 C          -0.3046    0.8732   27.5122 C.ar    1  UNL1        0.1808
     12 N          -0.1292    0.6309   28.9821 N.ar    1  UNL1       -0.2247
     13 C           0.2604    1.7617   29.8873 C.ar    1  UNL1        0.0941
     14 C           0.5044    1.8253   31.3660 C.ar    1  UNL1        0.0263
     15 C           0.8694    3.2377   31.7151 C.ar    1  UNL1        0.0312
     16 S           0.8510    4.0470   30.4523 S.2     1  UNL1       -0.0807
     17 C           0.4745    3.1348   29.3227 C.ar    1  UNL1        0.1033
     18 C           0.2991    3.3770   27.8528 C.ar    1  UNL1        0.2694
     19 O           0.5133    4.7501   27.2881 O.2     1  UNL1       -0.2663
     20 C           1.1956    3.7508   33.0864 C.ar    1  UNL1        0.0061
     21 C           1.9997    2.9075   34.0310 C.ar    1  UNL1        0.0014
     22 C           2.3259    3.4206   35.4023 C.ar    1  UNL1        0.0114
     23 C           1.8480    4.7769   35.8290 C.ar    1  UNL1        0.0577
     24 CL          2.1743    5.2900   37.2002 Cl      1  UNL1       -0.0822
     25 C           1.0440    5.6202   34.8843 C.ar    1  UNL1        0.0114
     26 C           0.7178    5.1071   33.5130 C.ar    1  UNL1        0.0014
     27 C          -0.4199    3.1469   20.4522 C.3     1  UNL1        0.0942
     28 C           0.7773    4.0164   20.2061 C.3     1  UNL1        0.0386
     29 C           1.9257    3.1283   19.8288 C.3     1  UNL1        0.0738
     30 N           1.4382    1.7098   19.8418 N.3     1  UNL1       -0.2725
     31 C          -0.0114    1.7212   20.2270 C.3     1  UNL1        0.0922
     32 C           2.2567    0.4933   19.5250 C.3     1  UNL1        0.0575
     33 C           2.0458   -0.7747   20.2981 C.3     1  UNL1        0.0160
     34 C           2.8643   -1.9912   19.9813 C.3     1  UNL1        0.0014
     35 C           3.8937   -1.9396   18.8914 C.3     1  UNL1        0.0001
     36 C           4.9810   -2.3818   17.9574 C.3     1  UNL1        0.0000
     37 C           4.0604   -3.3612   19.3401 C.3     1  UNL1        0.0000
     38 C           4.1046   -0.6716   18.1184 C.3     1  UNL1        0.0014
     39 C           3.2861    0.5449   18.4351 C.3     1  UNL1        0.0160
@<TRIPOS>BOND
     1     1     2    1
     2     2     3   am
     3     3     4    2
     4     3     5   am
     5     5     6    1
     6     6     7    1
     7     7     8    1
     8     8    10    1
     9    10    11   ar
    10    11    12   ar
    11    12    13   ar
    12    13    14   ar
    13    14    15   ar
    14    15    20    1
    15    20    21   ar
    16    21    22   ar
    17    22    23   ar
    18    23    24    1
    19    23    25   ar
    20    25    26   ar
    21    15    16   ar
    22    16    17   ar
    23    17    18   ar
    24    18    19    2
    25     8     9    1
    26    27     2    1
    27    27    28    1
    28    28    29    1
    29    29    30    1
    30    30    32    1
    31    32    33    1
    32    33    34    1
    33    34    35    1
    34    35    36    1
    35    35    37    1
    36    35    38    1
    37    38    39    1
    38    30    31    1
    39     9     5    1
    40    31    27    1
    41    18    10   ar
    42    39    32    1
    43    17    13   ar
    44    26    20   ar
@<TRIPOS>MOLECULE
*****
 39 44 0 0 0
SMALL
GASTEIGER

@<TRIPOS>ATOM
      1 C           4.7787   -0.4944   35.9428 C.3     1  UNL1        0.1164
      2 N           4.3634    0.2439   34.7050 N.am    1  UNL1       -0.2625
      3 C           4.2969   -0.4746   33.3900 C.2     1  UNL1        0.3073
      4 O           4.6458   -1.9313   33.3127 O.2     1  UNL1       -0.2523
      5 N           3.8815    0.2638   32.1521 N.am    1  UNL1       -0.2621
      6 C           3.5054    1.7138   32.0747 C.3     1  UNL1        0.0970
      7 C           3.1608    2.0279   30.6491 C.3     1  UNL1        0.0460
      8 C           3.3238    0.7719   29.8453 C.3     1  UNL1        0.1114
      9 C           3.7693   -0.3184   30.7741 C.3     1  UNL1        0.1176
     10 N           3.0836    0.6311   28.3713 N.ar    1  UNL1       -0.2779
     11 C           2.1114    1.5400   27.6796 C.ar    1  UNL1        0.1808
     12 N           1.8712    1.3992   26.2056 N.ar    1  UNL1       -0.2247
     13 C           2.6033    0.3493   25.4234 C.ar    1  UNL1        0.0941
     14 C           2.5729   -0.0236   23.9709 C.ar    1  UNL1        0.0263
     15 C           3.5264   -1.1631   23.7649 C.ar    1  UNL1        0.0312
     16 S           4.1461   -1.4944   25.0901 S.2     1  UNL1       -0.0807
     17 C           3.5755   -0.5597   26.1152 C.ar    1  UNL1        0.1033
     18 C           3.8157   -0.4188   27.5891 C.ar    1  UNL1        0.2694
     19 O           4.7879   -1.3278   28.2809 O.2     1  UNL1       -0.2663
     20 C           3.8104   -1.8506   22.4623 C.ar    1  UNL1        0.0061
     21 C           3.2567   -1.2941   21.1841 C.ar    1  UNL1        0.0014
     22 C           3.5408   -1.9817   19.8816 C.ar    1  UNL1        0.0114
     23 C           4.3785   -3.2257   19.8572 C.ar    1  UNL1        0.0577
     24 CL          4.6625   -3.9132   18.5546 Cl      1  UNL1       -0.0822
     25 C           4.9322   -3.7822   21.1353 C.ar    1  UNL1        0.0114
     26 C           4.6482   -3.0946   22.4379 C.ar    1  UNL1        0.0014
     27 C           4.0144    1.7007   34.7821 C.3     1  UNL1        0.0942
     28 C           4.9729    2.8457   34.6391 C.3     1  UNL1        0.0386
     29 C           4.1967    4.1210   34.7844 C.3     1  UNL1        0.0738
     30 N           2.7585    3.7642   35.0172 N.3     1  UNL1       -0.2725
     31 C           2.6458    2.2684   35.0158 C.3     1  UNL1        0.0922
     32 C           1.6308    4.7330   35.2165 C.3     1  UNL1        0.0575
     33 C           0.7957    5.1628   34.0469 C.3     1  UNL1        0.0160
     34 C          -0.3320    6.1317   34.2463 C.3     1  UNL1        0.0014
     35 C          -0.6245    6.6708   35.6151 C.3     1  UNL1        0.0001
     36 C          -1.2870    7.4536   36.7098 C.3     1  UNL1        0.0000
     37 C          -1.6897    7.3724   34.8257 C.3     1  UNL1        0.0000
     38 C           0.2106    6.2410   36.7847 C.3     1  UNL1        0.0014
     39 C           1.3382    5.2722   36.5854 C.3     1  UNL1        0.0160
@<TRIPOS>BOND
     1     1     2    1
     2     2     3   am
     3     3     4    2
     4     3     5   am
     5     5     6    1
     6     6     7    1
     7     7     8    1
     8     8    10    1
     9    10    11   ar
    10    11    12   ar
    11    12    13   ar
    12    13    14   ar
    13    14    15   ar
    14    15    20    1
    15    20    21   ar
    16    21    22   ar
    17    22    23   ar
    18    23    24    1
    19    23    25   ar
    20    25    26   ar
    21    15    16   ar
    22    16    17   ar
    23    17    18   ar
    24    18    19    2
    25     8     9    1
    26    27     2    1
    27    27    28    1
    28    28    29    1
    29    29    30    1
    30    30    32    1
    31    32    33    1
    32    33    34    1
    33    34    35    1
    34    35    36    1
    35    35    37    1
    36    35    38    1
    37    38    39    1
    38    30    31    1
    39     9     5    1
    40    31    27    1
    41    18    10   ar
    42    39    32    1
    43    17    13   ar
    44    26    20   ar
@<TRIPOS>MOLECULE
*****
 39 44 0 0 0
SMALL
GASTEIGER

@<TRIPOS>ATOM
      1 C           8.4786   -0.0663   32.6166 C.3     1  UNL1        0.1164
      2 N           7.4327   -0.4758   31.6226 N.am    1  UNL1       -0.2625
      3 C           6.6050    0.5673   30.9320 C.2     1  UNL1        0.3073
      4 O           6.8233    2.0199   31.2355 O.2     1  UNL1       -0.2523
      5 N           5.5590    0.1578   29.9379 N.am    1  UNL1       -0.2621
      6 C           5.2288   -1.2486   29.5343 C.3     1  UNL1        0.0970
      7 C           4.1254   -1.1928   28.5198 C.3     1  UNL1        0.0460
      8 C           3.7736    0.2481   28.2964 C.3     1  UNL1        0.1114
      9 C           4.6596    1.0829   29.1728 C.3     1  UNL1        0.1176
     10 N           2.7205    0.7637   27.3608 N.ar    1  UNL1       -0.2779
     11 C           2.9367    0.6966   25.8780 C.ar    1  UNL1        0.1808
     12 N           1.8837    1.2122   24.9424 N.ar    1  UNL1       -0.2247
     13 C           0.6144    1.7949   25.4897 C.ar    1  UNL1        0.0941
     14 C          -0.5939    2.3773   24.8182 C.ar    1  UNL1        0.0263
     15 C          -1.5568    2.8043   25.8861 C.ar    1  UNL1        0.0312
     16 S          -0.9437    2.4859   27.2175 S.2     1  UNL1       -0.0807
     17 C           0.3983    1.8620   26.9725 C.ar    1  UNL1        0.1033
     18 C           1.4513    1.3464   27.9081 C.ar    1  UNL1        0.2694
     19 O           1.2351    1.4135   29.3909 O.2     1  UNL1       -0.2663
     20 C          -2.8976    3.4384   25.6619 C.ar    1  UNL1        0.0061
     21 C          -3.5307    3.3935   24.3029 C.ar    1  UNL1        0.0014
     22 C          -4.8715    4.0276   24.0788 C.ar    1  UNL1        0.0114
     23 C          -5.5792    4.7067   25.2137 C.ar    1  UNL1        0.0577
     24 CL         -6.9199    5.3408   24.9896 Cl      1  UNL1       -0.0822
     25 C          -4.9461    4.7516   26.5728 C.ar    1  UNL1        0.0114
     26 C          -3.6053    4.1175   26.7969 C.ar    1  UNL1        0.0014
     27 C           7.2143   -1.9284   31.3190 C.3     1  UNL1        0.0942
     28 C           6.5090   -2.9168   32.1997 C.3     1  UNL1        0.0386
     29 C           6.5217   -4.2470   31.5065 C.3     1  UNL1        0.0738
     30 N           7.2349   -4.0806   30.1974 N.3     1  UNL1       -0.2725
     31 C           7.6629   -2.6477   30.0815 C.3     1  UNL1        0.0922
     32 C           7.4774   -5.1581   29.1823 C.3     1  UNL1        0.0575
     33 C           8.3090   -6.3536   29.5417 C.3     1  UNL1        0.0160
     34 C           8.5515   -7.4310   28.5266 C.3     1  UNL1        0.0014
     35 C           7.9625   -7.3129   27.1521 C.3     1  UNL1        0.0001
     36 C           7.6210   -7.6507   25.7311 C.3     1  UNL1        0.0000
     37 C           8.6755   -8.6258   27.0180 C.3     1  UNL1        0.0000
     38 C           7.1309   -6.1174   26.7928 C.3     1  UNL1        0.0014
     39 C           6.8883   -5.0400   27.8078 C.3     1  UNL1        0.0160
@<TRIPOS>BOND
     1     1     2    1
     2     2     3   am
     3     3     4    2
     4     3     5   am
     5     5     6    1
     6     6     7    1
     7     7     8    1
     8     8    10    1
     9    10    11   ar
    10    11    12   ar
    11    12    13   ar
    12    13    14   ar
    13    14    15   ar
    14    15    20    1
    15    20    21   ar
    16    21    22   ar
    17    22    23   ar
    18    23    24    1
    19    23    25   ar
    20    25    26   ar
    21    15    16   ar
    22    16    17   ar
    23    17    18   ar
    24    18    19    2
    25     8     9    1
    26    27     2    1
    27    27    28    1
    28    28    29    1
    29    29    30    1
    30    30    32    1
    31    32    33    1
    32    33    34    1
    33    34    35    1
    34    35    36    1
    35    35    37    1
    36    35    38    1
    37    38    39    1
    38    30    31    1
    39     9     5    1
    40    31    27    1
    41    18    10   ar
    42    39    32    1
    43    17    13   ar
    44    26    20   ar
@<TRIPOS>MOLECULE
*****
 39 44 0 0 0
SMALL
GASTEIGER

@<TRIPOS>ATOM
      1 C           9.0302   -6.6135   26.5493 C.3     1  UNL1        0.1164
      2 N           8.1599   -5.4425   26.2014 N.am    1  UNL1       -0.2625
      3 C           7.4769   -5.3858   24.8672 C.2     1  UNL1        0.3073
      4 O           7.6640   -6.5002   23.8808 O.2     1  UNL1       -0.2523
      5 N           6.6066   -4.2147   24.5192 N.am    1  UNL1       -0.2621
      6 C           6.3266   -3.0322   25.3986 C.3     1  UNL1        0.0970
      7 C           5.4105   -2.1071   24.6538 C.3     1  UNL1        0.0460
      8 C           5.1242   -2.7179   23.3140 C.3     1  UNL1        0.1114
      9 C           5.8634   -4.0204   23.2308 C.3     1  UNL1        0.1176
     10 N           4.2518   -2.1293   22.2450 N.ar    1  UNL1       -0.2779
     11 C           4.1805   -2.7771   20.8941 C.ar    1  UNL1        0.1808
     12 N           3.3081   -2.1886   19.8251 N.ar    1  UNL1       -0.2247
     13 C           2.5070   -0.9522   20.1072 C.ar    1  UNL1        0.0941
     14 C           1.5661   -0.1503   19.2577 C.ar    1  UNL1        0.0263
     15 C           1.0558    0.9930   20.0837 C.ar    1  UNL1        0.0312
     16 S           1.6814    0.8978   21.4438 S.2     1  UNL1       -0.0807
     17 C           2.5783   -0.3044   21.4583 C.ar    1  UNL1        0.1033
     18 C           3.4507   -0.8930   22.5272 C.ar    1  UNL1        0.2694
     19 O           3.5220   -0.2452   23.8782 O.2     1  UNL1       -0.2663
     20 C           0.0896    2.0467   19.6295 C.ar    1  UNL1        0.0061
     21 C           0.2018    2.6221   18.2489 C.ar    1  UNL1        0.0014
     22 C          -0.7644    3.6758   17.7947 C.ar    1  UNL1        0.0114
     23 C          -1.8429    4.1540   18.7212 C.ar    1  UNL1        0.0577
     24 CL         -2.8091    5.2076   18.2670 Cl      1  UNL1       -0.0822
     25 C          -1.9551    3.5785   20.1018 C.ar    1  UNL1        0.0114
     26 C          -0.9888    2.5248   20.5560 C.ar    1  UNL1        0.0014
     27 C           7.9727   -4.3280   27.1877 C.3     1  UNL1        0.0942
     28 C           8.8022   -3.0814   27.2774 C.3     1  UNL1        0.0386
     29 C           8.2654   -2.2473   28.4026 C.3     1  UNL1        0.0738
     30 N           7.1041   -2.9784   29.0083 N.3     1  UNL1       -0.2725
     31 C           6.9232   -4.2643   28.2575 C.3     1  UNL1        0.0922
     32 C           6.2700   -2.5064   30.1623 C.3     1  UNL1        0.0575
     33 C           6.2883   -3.2606   31.4588 C.3     1  UNL1        0.0160
     34 C           5.4542   -2.7885   32.6127 C.3     1  UNL1        0.0014
     35 C           4.6019   -1.5625   32.4702 C.3     1  UNL1        0.0001
     36 C           3.6399   -0.4660   32.8201 C.3     1  UNL1        0.0000
     37 C           4.2860   -1.9358   33.8882 C.3     1  UNL1        0.0000
     38 C           4.5836   -0.8084   31.1737 C.3     1  UNL1        0.0014
     39 C           5.4177   -1.2803   30.0197 C.3     1  UNL1        0.0160
@<TRIPOS>BOND
     1     1     2    1
     2     2     3   am
     3     3     4    2
     4     3     5   am
     5     5     6    1
     6     6     7    1
     7     7     8    1
     8     8    10    1
     9    10    11   ar
    10    11    12   ar
    11    12    13   ar
    12    13    14   ar
    13    14    15   ar
    14    15    20    1
    15    20    21   ar
    16    21    22   ar
    17    22    23   ar
    18    23    24    1
    19    23    25   ar
    20    25    26   ar
    21    15    16   ar
    22    16    17   ar
    23    17    18   ar
    24    18    19    2
    25     8     9    1
    26    27     2    1
    27    27    28    1
    28    28    29    1
    29    29    30    1
    30    30    32    1
    31    32    33    1
    32    33    34    1
    33    34    35    1
    34    35    36    1
    35    35    37    1
    36    35    38    1
    37    38    39    1
    38    30    31    1
    39     9     5    1
    40    31    27    1
    41    18    10   ar
    42    39    32    1
    43    17    13   ar
    44    26    20   ar
@<TRIPOS>MOLECULE
*****
 39 44 0 0 0
SMALL
GASTEIGER

@<TRIPOS>ATOM
      1 C          -2.9731    3.6616   19.1717 C.3     1  UNL1        0.1164
      2 N          -1.9061    3.4103   20.1954 N.am    1  UNL1       -0.2625
      3 C          -2.1989    3.6214   21.6513 C.2     1  UNL1        0.3073
      4 O          -3.5588    4.0837   22.0835 O.2     1  UNL1       -0.2523
      5 N          -1.1318    3.3701   22.6751 N.am    1  UNL1       -0.2621
      6 C           0.2674    2.9078   22.3950 C.3     1  UNL1        0.0970
      7 C           0.9874    2.7890   23.7055 C.3     1  UNL1        0.0460
      8 C           0.0332    3.1778   24.7956 C.3     1  UNL1        0.1114
      9 C          -1.2766    3.5369   24.1588 C.3     1  UNL1        0.1176
     10 N           0.3357    3.2030   26.2646 N.ar    1  UNL1       -0.2779
     11 C          -0.1823    4.3225   27.1179 C.ar    1  UNL1        0.1808
     12 N           0.1202    4.3477   28.5869 N.ar    1  UNL1       -0.2247
     13 C           0.9407    3.2533   29.2025 C.ar    1  UNL1        0.0941
     14 C           1.3973    3.0122   30.6108 C.ar    1  UNL1        0.0263
     15 C           2.1975    1.7436   30.6279 C.ar    1  UNL1        0.0312
     16 S           2.2354    1.2006   29.2301 S.2     1  UNL1       -0.0807
     17 C           1.4587    2.1337   28.3491 C.ar    1  UNL1        0.1033
     18 C           1.1562    2.1086   26.8802 C.ar    1  UNL1        0.2694
     19 O           1.6742    0.9890   26.0268 O.2     1  UNL1       -0.2663
     20 C           2.8458    1.1262   31.8314 C.ar    1  UNL1        0.0061
     21 C           3.3661   -0.2791   31.7650 C.ar    1  UNL1        0.0014
     22 C           4.0145   -0.8964   32.9686 C.ar    1  UNL1        0.0114
     23 C           4.1426   -0.1084   34.2385 C.ar    1  UNL1        0.0577
     24 CL          4.7910   -0.7258   35.4420 Cl      1  UNL1       -0.0822
     25 C           3.6224    1.2969   34.3049 C.ar    1  UNL1        0.0114
     26 C           2.9740    1.9142   33.1013 C.ar    1  UNL1        0.0014
     27 C          -0.5461    2.9479   19.7633 C.3     1  UNL1        0.0942
     28 C           0.5478    3.8164   19.2163 C.3     1  UNL1        0.0386
     29 C           1.7287    2.9412   18.9172 C.3     1  UNL1        0.0738
     30 N           1.3646    1.5318   19.2794 N.3     1  UNL1       -0.2725
     31 C          -0.0413    1.5360   19.8022 C.3     1  UNL1        0.0922
     32 C           2.2508    0.3293   19.1426 C.3     1  UNL1        0.0575
     33 C           3.2578    0.2621   18.0330 C.3     1  UNL1        0.0160
     34 C           4.1440   -0.9404   17.8963 C.3     1  UNL1        0.0014
     35 C           4.0232   -2.0757   18.8692 C.3     1  UNL1        0.0001
     36 C           4.2836   -3.3932   19.5374 C.3     1  UNL1        0.0000
     37 C           5.1207   -2.6005   17.9916 C.3     1  UNL1        0.0000
     38 C           3.0162   -2.0085   19.9789 C.3     1  UNL1        0.0014
     39 C           2.1300   -0.8060   20.1156 C.3     1  UNL1        0.0160
@<TRIPOS>BOND
     1     1     2    1
     2     2     3   am
     3     3     4    2
     4     3     5   am
     5     5     6    1
     6     6     7    1
     7     7     8    1
     8     8    10    1
     9    10    11   ar
    10    11    12   ar
    11    12    13   ar
    12    13    14   ar
    13    14    15   ar
    14    15    20    1
    15    20    21   ar
    16    21    22   ar
    17    22    23   ar
    18    23    24    1
    19    23    25   ar
    20    25    26   ar
    21    15    16   ar
    22    16    17   ar
    23    17    18   ar
    24    18    19    2
    25     8     9    1
    26    27     2    1
    27    27    28    1
    28    28    29    1
    29    29    30    1
    30    30    32    1
    31    32    33    1
    32    33    34    1
    33    34    35    1
    34    35    36    1
    35    35    37    1
    36    35    38    1
    37    38    39    1
    38    30    31    1
    39     9     5    1
    40    31    27    1
    41    18    10   ar
    42    39    32    1
    43    17    13   ar
    44    26    20   ar
@<TRIPOS>MOLECULE
*****
 39 44 0 0 0
SMALL
GASTEIGER

@<TRIPOS>ATOM
      1 C           7.6067   -3.2016   32.1147 C.3     1  UNL1        0.1164
      2 N           6.6701   -2.0837   31.7643 N.am    1  UNL1       -0.2625
      3 C           5.9475   -2.0949   30.4499 C.2     1  UNL1        0.3073
      4 O           6.1615   -3.2240   29.4859 O.2     1  UNL1       -0.2523
      5 N           5.0108   -0.9770   30.0994 N.am    1  UNL1       -0.2621
      6 C           4.6977    0.2128   30.9576 C.3     1  UNL1        0.0970
      7 C           3.7161    1.0725   30.2178 C.3     1  UNL1        0.0460
      8 C           3.4225    0.4141   28.9023 C.3     1  UNL1        0.1114
      9 C           4.2227   -0.8525   28.8291 C.3     1  UNL1        0.1176
     10 N           2.4921    0.9316   27.8456 N.ar    1  UNL1       -0.2779
     11 C           2.9503    1.0182   26.4200 C.ar    1  UNL1        0.1808
     12 N           2.0198    1.5357   25.3632 N.ar    1  UNL1       -0.2247
     13 C           0.6313    1.9666   25.7323 C.ar    1  UNL1        0.0941
     14 C          -0.5005    2.5141   24.9141 C.ar    1  UNL1        0.0263
     15 C          -1.6581    2.7659   25.8342 C.ar    1  UNL1        0.0312
     16 S          -1.2418    2.3740   27.2210 S.2     1  UNL1       -0.0807
     17 C           0.1731    1.8800   27.1580 C.ar    1  UNL1        0.1033
     18 C           1.1036    1.3625   28.2146 C.ar    1  UNL1        0.2694
     19 O           0.6454    1.2759   29.6403 O.2     1  UNL1       -0.2663
     20 C          -2.9970    3.3134   25.4372 C.ar    1  UNL1        0.0061
     21 C          -3.8760    3.9634   26.4643 C.ar    1  UNL1        0.0014
     22 C          -5.2149    4.5109   26.0673 C.ar    1  UNL1        0.0114
     23 C          -5.6747    4.4085   24.6432 C.ar    1  UNL1        0.0577
     24 CL         -7.0136    4.9560   24.2462 Cl      1  UNL1       -0.0822
     25 C          -4.7958    3.7586   23.6161 C.ar    1  UNL1        0.0114
     26 C          -3.4568    3.2110   24.0132 C.ar    1  UNL1        0.0014
     27 C           6.4560   -0.9545   32.7282 C.3     1  UNL1        0.0942
     28 C           7.3667    0.2209   32.9256 C.3     1  UNL1        0.0386
     29 C           6.7672    1.0993   33.9834 C.3     1  UNL1        0.0738
     30 N           5.4859    0.4668   34.4397 N.3     1  UNL1       -0.2725
     31 C           5.2935   -0.8025   33.6640 C.3     1  UNL1        0.0922
     32 C           4.5596    1.0086   35.4877 C.3     1  UNL1        0.0575
     33 C           3.7436    2.2353   35.2059 C.3     1  UNL1        0.0160
     34 C           2.8173    2.7770   36.2540 C.3     1  UNL1        0.0014
     35 C           2.7069    2.0920   37.5839 C.3     1  UNL1        0.0001
     36 C           2.2591    1.7975   38.9850 C.3     1  UNL1        0.0000
     37 C           1.7354    3.2164   37.7887 C.3     1  UNL1        0.0000
     38 C           3.5228    0.8653   37.8658 C.3     1  UNL1        0.0014
     39 C           4.4492    0.3236   36.8177 C.3     1  UNL1        0.0160
@<TRIPOS>BOND
     1     1     2    1
     2     2     3   am
     3     3     4    2
     4     3     5   am
     5     5     6    1
     6     6     7    1
     7     7     8    1
     8     8    10    1
     9    10    11   ar
    10    11    12   ar
    11    12    13   ar
    12    13    14   ar
    13    14    15   ar
    14    15    20    1
    15    20    21   ar
    16    21    22   ar
    17    22    23   ar
    18    23    24    1
    19    23    25   ar
    20    25    26   ar
    21    15    16   ar
    22    16    17   ar
    23    17    18   ar
    24    18    19    2
    25     8     9    1
    26    27     2    1
    27    27    28    1
    28    28    29    1
    29    29    30    1
    30    30    32    1
    31    32    33    1
    32    33    34    1
    33    34    35    1
    34    35    36    1
    35    35    37    1
    36    35    38    1
    37    38    39    1
    38    30    31    1
    39     9     5    1
    40    31    27    1
    41    18    10   ar
    42    39    32    1
    43    17    13   ar
    44    26    20   ar
