@<TRIPOS>MOLECULE
*****
 24 26 0 0 0
SMALL
GASTEIGER

@<TRIPOS>ATOM
      1 C          -6.0159  -15.5814   24.0764 C.ar    1  UNL1        0.0801
      2 C          -5.9283  -15.3953   25.5622 C.ar    1  UNL1        0.0241
      3 C          -7.1581  -15.5353   26.4094 C.ar    1  UNL1        0.0360
      4 BR         -7.0704  -15.3492   27.8953 Br      1  UNL1       -0.0490
      5 C          -8.4757  -15.8614   25.7709 C.ar    1  UNL1        0.0099
      6 C          -8.5633  -16.0475   24.2851 C.ar    1  UNL1        0.0394
      7 C          -9.7150  -16.3720   23.3804 C.ar    1  UNL1        0.0418
      8 C          -9.1968  -16.4326   21.9741 C.ar    1  UNL1        0.1593
      9 O          -7.7250  -16.1455   22.0095 O.2     1  UNL1       -0.4511
     10 C          -7.3334  -15.9075   23.4378 C.ar    1  UNL1        0.1583
     11 C         -10.0081  -16.7283   20.7475 C.2     1  UNL1        0.1076
     12 O         -10.0862  -18.1303   20.2200 O.co2   1  UNL1       -0.5415
     13 O         -10.7413  -15.6220   20.0486 O.co2   1  UNL1       -0.5415
     14 N          -4.7860  -15.4415   23.2292 N.pl3   1  UNL1       -0.3317
     15 H          -4.4655  -14.5472   22.9707 H       1  UNL1        0.1469
     16 N          -1.8201  -20.3315   21.4152 N.3     1  UNL1       -0.3222
     17 C          -2.5616  -19.1090   21.8687 C.3     1  UNL1        0.0509
     18 C          -3.9330  -19.2406   22.4619 C.3     1  UNL1        0.0172
     19 C          -4.6745  -18.0181   22.9154 C.3     1  UNL1        0.0208
     20 C          -4.0446  -16.6640   22.7757 C.3     1  UNL1        0.0692
     21 C          -2.6731  -16.5323   22.1825 C.3     1  UNL1        0.0208
     22 C          -1.9316  -17.7548   21.7290 C.3     1  UNL1        0.0172
     23 H          -2.3928  -21.1586   21.5836 H       1  UNL1        0.1188
     24 H          -0.9461  -20.4115   21.9350 H       1  UNL1        0.1188
@<TRIPOS>UNITY_ATOM_ATTR
12 1
charge -1
@<TRIPOS>BOND
     1    17    16    1
     2    17    18    1
     3    18    19    1
     4    19    20    1
     5    20    14    1
     6    14     1    1
     7     1     2   ar
     8     2     3   ar
     9     3     4    1
    10     3     5   ar
    11     5     6   ar
    12     6     7   ar
    13     7     8   ar
    14     8    11    1
    15    11    12   ar
    16    11    13   ar
    17     8     9   ar
    18     9    10   ar
    19    20    21    1
    20    21    22    1
    21    22    17    1
    22    10     1   ar
    23    10     6   ar
    24    16    23    1
    25    16    24    1
    26    14    15    1
@<TRIPOS>MOLECULE
*****
 24 26 0 0 0
SMALL
GASTEIGER

@<TRIPOS>ATOM
      1 C          -7.3117  -16.9989   22.8154 C.ar    1  UNL1        0.0801
      2 C          -7.5079  -16.1223   24.0167 C.ar    1  UNL1        0.0241
      3 C          -6.3596  -15.8509   24.9427 C.ar    1  UNL1        0.0360
      4 BR         -6.5559  -14.9742   26.1440 Br      1  UNL1       -0.0490
      5 C          -5.0149  -16.4560   24.6675 C.ar    1  UNL1        0.0099
      6 C          -4.8187  -17.3326   23.4663 C.ar    1  UNL1        0.0394
      7 C          -3.6177  -18.0623   22.9417 C.ar    1  UNL1        0.0418
      8 C          -4.0238  -18.7848   21.6915 C.ar    1  UNL1        0.1593
      9 O          -5.4758  -18.5016   21.4433 O.2     1  UNL1       -0.4511
     10 C          -5.9670  -17.6041   22.5402 C.ar    1  UNL1        0.1583
     11 C          -3.1342  -19.6403   20.8390 C.2     1  UNL1        0.1076
     12 O          -1.9420  -20.3194   21.4451 O.co2   1  UNL1       -0.5415
     13 O          -3.4368  -19.8166   19.3805 O.co2   1  UNL1       -0.5415
     14 N          -8.4601  -17.2703   21.8894 N.pl3   1  UNL1       -0.3317
     15 H          -8.3089  -17.3146   20.9176 H       1  UNL1        0.1469
     16 N         -13.9749  -18.0861   24.1079 N.3     1  UNL1       -0.3222
     17 C         -12.5961  -17.8822   23.5533 C.3     1  UNL1        0.0509
     18 C         -11.4974  -18.8412   23.9036 C.3     1  UNL1        0.0172
     19 C         -10.1186  -18.6373   23.3490 C.3     1  UNL1        0.0208
     20 C          -9.8387  -17.4743   22.4440 C.3     1  UNL1        0.0692
     21 C         -10.9375  -16.5151   22.0936 C.3     1  UNL1        0.0208
     22 C         -12.3162  -16.7190   22.6483 C.3     1  UNL1        0.0172
     23 H         -13.9843  -18.9178   24.6982 H       1  UNL1        0.1188
     24 H         -14.6358  -18.2064   23.3403 H       1  UNL1        0.1188
@<TRIPOS>UNITY_ATOM_ATTR
12 1
charge -1
@<TRIPOS>BOND
     1    17    16    1
     2    17    18    1
     3    18    19    1
     4    19    20    1
     5    20    14    1
     6    14     1    1
     7     1     2   ar
     8     2     3   ar
     9     3     4    1
    10     3     5   ar
    11     5     6   ar
    12     6     7   ar
    13     7     8   ar
    14     8    11    1
    15    11    12   ar
    16    11    13   ar
    17     8     9   ar
    18     9    10   ar
    19    20    21    1
    20    21    22    1
    21    22    17    1
    22    10     1   ar
    23    10     6   ar
    24    16    23    1
    25    16    24    1
    26    14    15    1
@<TRIPOS>MOLECULE
*****
 24 26 0 0 0
SMALL
GASTEIGER

@<TRIPOS>ATOM
      1 C          -6.6392  -19.3919   21.1318 C.ar    1  UNL1        0.0801
      2 C          -7.7344  -19.8745   20.2276 C.ar    1  UNL1        0.0241
      3 C          -9.0704  -19.1929   20.2379 C.ar    1  UNL1        0.0360
      4 BR        -10.1657  -19.6756   19.3336 Br      1  UNL1       -0.0490
      5 C          -9.3115  -18.0285   21.1524 C.ar    1  UNL1        0.0099
      6 C          -8.2163  -17.5459   22.0566 C.ar    1  UNL1        0.0394
      7 C          -8.1601  -16.4309   23.0585 C.ar    1  UNL1        0.0418
      8 C          -6.7893  -16.4235   23.6673 C.ar    1  UNL1        0.1593
      9 O          -5.9982  -17.5339   23.0418 O.2     1  UNL1       -0.4511
     10 C          -6.8801  -18.2276   22.0463 C.ar    1  UNL1        0.1583
     11 C          -6.2961  -15.4727   24.7174 C.2     1  UNL1        0.1076
     12 O          -5.0585  -14.6612   24.4726 O.co2   1  UNL1       -0.5415
     13 O          -7.0404  -15.3333   26.0122 O.co2   1  UNL1       -0.5415
     14 N          -5.3031  -20.0736   21.1215 N.pl3   1  UNL1       -0.3317
     15 H          -5.2399  -21.0360   21.3191 H       1  UNL1        0.1469
     16 N          -0.3434  -16.9350   19.8761 N.3     1  UNL1       -0.3222
     17 C          -1.5834  -17.7197   20.1874 C.3     1  UNL1        0.0509
     18 C          -2.6031  -17.9672   19.1157 C.3     1  UNL1        0.0172
     19 C          -3.8431  -18.7518   19.4270 C.3     1  UNL1        0.0208
     20 C          -4.0632  -19.2889   20.8101 C.3     1  UNL1        0.0692
     21 C          -3.0434  -19.0414   21.8820 C.3     1  UNL1        0.0208
     22 C          -1.8035  -18.2568   21.5706 C.3     1  UNL1        0.0172
     23 H          -0.3583  -16.6499   18.8968 H       1  UNL1        0.1188
     24 H           0.4780  -17.5144   20.0490 H       1  UNL1        0.1188
@<TRIPOS>UNITY_ATOM_ATTR
12 1
charge -1
@<TRIPOS>BOND
     1    17    16    1
     2    17    18    1
     3    18    19    1
     4    19    20    1
     5    20    14    1
     6    14     1    1
     7     1     2   ar
     8     2     3   ar
     9     3     4    1
    10     3     5   ar
    11     5     6   ar
    12     6     7   ar
    13     7     8   ar
    14     8    11    1
    15    11    12   ar
    16    11    13   ar
    17     8     9   ar
    18     9    10   ar
    19    20    21    1
    20    21    22    1
    21    22    17    1
    22    10     1   ar
    23    10     6   ar
    24    16    23    1
    25    16    24    1
    26    14    15    1
@<TRIPOS>MOLECULE
*****
 24 26 0 0 0
SMALL
GASTEIGER

@<TRIPOS>ATOM
      1 C          -6.6200  -17.9285   22.5188 C.ar    1  UNL1        0.0801
      2 C          -5.7843  -17.1544   23.4946 C.ar    1  UNL1        0.0241
      3 C          -6.3864  -16.0108   24.2560 C.ar    1  UNL1        0.0360
      4 BR         -5.5506  -15.2367   25.2319 Br      1  UNL1       -0.0490
      5 C          -7.8243  -15.6413   24.0415 C.ar    1  UNL1        0.0099
      6 C          -8.6600  -16.4154   23.0657 C.ar    1  UNL1        0.0394
      7 C         -10.0945  -16.2842   22.6474 C.ar    1  UNL1        0.0418
      8 C         -10.3790  -17.3467   21.6275 C.ar    1  UNL1        0.1593
      9 O          -9.1203  -18.1346   21.4154 O.2     1  UNL1       -0.4511
     10 C          -8.0579  -17.5590   22.3043 C.ar    1  UNL1        0.1583
     11 C         -11.6916  -17.5803   20.9402 C.2     1  UNL1        0.1076
     12 O         -11.7866  -17.4704   19.4473 O.co2   1  UNL1       -0.5415
     13 O         -12.9094  -17.9238   21.7459 O.co2   1  UNL1       -0.5415
     14 N          -6.0179  -19.0721   21.7574 N.pl3   1  UNL1       -0.3317
     15 H          -6.5547  -19.8758   21.5704 H       1  UNL1        0.1469
     16 N          -0.3376  -18.7479   19.8523 N.3     1  UNL1       -0.3222
     17 C          -1.7577  -18.8289   20.3286 C.3     1  UNL1        0.0509
     18 C          -2.8842  -18.7868   19.3391 C.3     1  UNL1        0.0172
     19 C          -4.3043  -18.8678   19.8153 C.3     1  UNL1        0.0208
     20 C          -4.5978  -18.9910   21.2811 C.3     1  UNL1        0.0692
     21 C          -3.4713  -19.0332   22.2708 C.3     1  UNL1        0.0208
     22 C          -2.0513  -18.9522   21.7945 C.3     1  UNL1        0.0172
     23 H          -0.3240  -18.6683   18.8355 H       1  UNL1        0.1188
     24 H           0.1641  -19.5901   20.1342 H       1  UNL1        0.1188
@<TRIPOS>UNITY_ATOM_ATTR
12 1
charge -1
@<TRIPOS>BOND
     1    17    16    1
     2    17    18    1
     3    18    19    1
     4    19    20    1
     5    20    14    1
     6    14     1    1
     7     1     2   ar
     8     2     3   ar
     9     3     4    1
    10     3     5   ar
    11     5     6   ar
    12     6     7   ar
    13     7     8   ar
    14     8    11    1
    15    11    12   ar
    16    11    13   ar
    17     8     9   ar
    18     9    10   ar
    19    20    21    1
    20    21    22    1
    21    22    17    1
    22    10     1   ar
    23    10     6   ar
    24    16    23    1
    25    16    24    1
    26    14    15    1
@<TRIPOS>MOLECULE
*****
 24 26 0 0 0
SMALL
GASTEIGER

@<TRIPOS>ATOM
      1 C          -8.5284  -19.4623   21.5515 C.ar    1  UNL1        0.0801
      2 C          -8.5905  -20.2671   22.8158 C.ar    1  UNL1        0.0241
      3 C          -9.7159  -20.0562   23.7847 C.ar    1  UNL1        0.0360
      4 BR         -9.7780  -20.8610   25.0490 Br      1  UNL1       -0.0490
      5 C         -10.7794  -19.0403   23.4893 C.ar    1  UNL1        0.0099
      6 C         -10.7173  -18.2355   22.2250 C.ar    1  UNL1        0.0394
      7 C         -11.6150  -17.1706   21.6681 C.ar    1  UNL1        0.0418
      8 C         -11.0443  -16.7235   20.3549 C.ar    1  UNL1        0.1593
      9 O          -9.7939  -17.5120   20.1003 O.2     1  UNL1       -0.4511
     10 C          -9.5919  -18.4465   21.2561 C.ar    1  UNL1        0.1583
     11 C         -11.6224  -15.6724   19.4544 C.2     1  UNL1        0.1076
     12 O         -10.7138  -14.8017   18.6381 O.co2   1  UNL1       -0.5415
     13 O         -13.1091  -15.4919   19.3703 O.co2   1  UNL1       -0.5415
     14 N          -7.4029  -19.6734   20.5826 N.pl3   1  UNL1       -0.3317
     15 H          -7.5942  -19.9647   19.6619 H       1  UNL1        0.1469
     16 N          -1.7355  -18.7422   22.3186 N.3     1  UNL1       -0.3222
     17 C          -3.1524  -18.9749   21.8846 C.3     1  UNL1        0.0509
     18 C          -4.2847  -18.3889   22.6747 C.3     1  UNL1        0.0172
     19 C          -5.7016  -18.6216   22.2407 C.3     1  UNL1        0.0208
     20 C          -5.9861  -19.4406   21.0166 C.3     1  UNL1        0.0692
     21 C          -4.8538  -20.0267   20.2264 C.3     1  UNL1        0.0208
     22 C          -3.4370  -19.7939   20.6604 C.3     1  UNL1        0.0172
     23 H          -1.7281  -18.1693   23.1625 H       1  UNL1        0.1188
     24 H          -1.2274  -18.2609   21.5766 H       1  UNL1        0.1188
@<TRIPOS>UNITY_ATOM_ATTR
12 1
charge -1
@<TRIPOS>BOND
     1    17    16    1
     2    17    18    1
     3    18    19    1
     4    19    20    1
     5    20    14    1
     6    14     1    1
     7     1     2   ar
     8     2     3   ar
     9     3     4    1
    10     3     5   ar
    11     5     6   ar
    12     6     7   ar
    13     7     8   ar
    14     8    11    1
    15    11    12   ar
    16    11    13   ar
    17     8     9   ar
    18     9    10   ar
    19    20    21    1
    20    21    22    1
    21    22    17    1
    22    10     1   ar
    23    10     6   ar
    24    16    23    1
    25    16    24    1
    26    14    15    1
@<TRIPOS>MOLECULE
*****
 24 26 0 0 0
SMALL
GASTEIGER

@<TRIPOS>ATOM
      1 C          -7.2836  -17.6717   23.0314 C.ar    1  UNL1        0.0801
      2 C          -7.6221  -16.6818   24.1063 C.ar    1  UNL1        0.0241
      3 C          -6.5304  -15.9081   24.7841 C.ar    1  UNL1        0.0360
      4 BR         -6.8690  -14.9181   25.8591 Br      1  UNL1       -0.0490
      5 C          -5.1001  -16.1241   24.3869 C.ar    1  UNL1        0.0099
      6 C          -4.7616  -17.1140   23.3120 C.ar    1  UNL1        0.0394
      7 C          -3.4531  -17.5371   22.7132 C.ar    1  UNL1        0.0418
      8 C          -3.7360  -18.5724   21.6653 C.ar    1  UNL1        0.1593
      9 O          -5.2195  -18.7892   21.6165 O.2     1  UNL1       -0.4511
     10 C          -5.8534  -17.8878   22.6342 C.ar    1  UNL1        0.1583
     11 C          -2.7149  -19.2687   20.8154 C.2     1  UNL1        0.1076
     12 O          -2.5707  -18.9053   19.3672 O.co2   1  UNL1       -0.5415
     13 O          -1.8378  -20.3284   21.4136 O.co2   1  UNL1       -0.5415
     14 N          -8.3753  -18.4455   22.3536 N.pl3   1  UNL1       -0.3317
     15 H          -8.4205  -19.4239   22.4540 H       1  UNL1        0.1469
     16 N         -12.4667  -15.5784   19.0309 N.3     1  UNL1       -0.3222
     17 C         -11.4438  -16.2952   19.8616 C.3     1  UNL1        0.0509
     18 C         -10.6438  -15.5408   20.8817 C.3     1  UNL1        0.0172
     19 C          -9.6209  -16.2575   21.7124 C.3     1  UNL1        0.0208
     20 C          -9.3982  -17.7287   21.5230 C.3     1  UNL1        0.0692
     21 C         -10.1982  -18.4833   20.5028 C.3     1  UNL1        0.0208
     22 C         -11.2211  -17.7665   19.6722 C.3     1  UNL1        0.0172
     23 H         -12.4849  -14.5921   19.2903 H       1  UNL1        0.1188
     24 H         -13.3858  -15.9898   19.1937 H       1  UNL1        0.1188
@<TRIPOS>UNITY_ATOM_ATTR
12 1
charge -1
@<TRIPOS>BOND
     1    17    16    1
     2    17    18    1
     3    18    19    1
     4    19    20    1
     5    20    14    1
     6    14     1    1
     7     1     2   ar
     8     2     3   ar
     9     3     4    1
    10     3     5   ar
    11     5     6   ar
    12     6     7   ar
    13     7     8   ar
    14     8    11    1
    15    11    12   ar
    16    11    13   ar
    17     8     9   ar
    18     9    10   ar
    19    20    21    1
    20    21    22    1
    21    22    17    1
    22    10     1   ar
    23    10     6   ar
    24    16    23    1
    25    16    24    1
    26    14    15    1
@<TRIPOS>MOLECULE
*****
 24 26 0 0 0
SMALL
GASTEIGER

@<TRIPOS>ATOM
      1 C          -9.2659  -16.4373   22.0357 C.ar    1  UNL1        0.0801
      2 C         -10.7625  -16.5201   22.0940 C.ar    1  UNL1        0.0241
      3 C         -11.4724  -17.6978   21.4949 C.ar    1  UNL1        0.0360
      4 BR        -12.9690  -17.7806   21.5531 Br      1  UNL1       -0.0490
      5 C         -10.6857  -18.7929   20.8375 C.ar    1  UNL1        0.0099
      6 C          -9.1891  -18.7101   20.7792 C.ar    1  UNL1        0.0394
      7 C          -8.1548  -19.6298   20.2011 C.ar    1  UNL1        0.0418
      8 C          -6.8057  -19.0205   20.4430 C.ar    1  UNL1        0.1593
      9 O          -7.0062  -17.7242   21.1705 O.2     1  UNL1       -0.4511
     10 C          -8.4793  -17.5323   21.3784 C.ar    1  UNL1        0.1583
     11 C          -5.4874  -19.6049   20.0298 C.2     1  UNL1        0.1076
     12 O          -4.3993  -18.7106   19.5138 O.co2   1  UNL1       -0.5415
     13 O          -5.2573  -21.0836   20.1326 O.co2   1  UNL1       -0.5415
     14 N          -8.5560  -15.2596   22.6349 N.pl3   1  UNL1       -0.3317
     15 H          -8.4459  -14.4329   22.1117 H       1  UNL1        0.1469
     16 N          -6.3875  -15.5868   28.2197 N.3     1  UNL1       -0.3222
     17 C          -6.9297  -15.5050   26.8235 C.3     1  UNL1        0.0509
     18 C          -8.4063  -15.6161   26.5846 C.3     1  UNL1        0.0172
     19 C          -8.9485  -15.5343   25.1884 C.3     1  UNL1        0.0208
     20 C          -8.0139  -15.3414   24.0311 C.3     1  UNL1        0.0692
     21 C          -6.5372  -15.2302   24.2699 C.3     1  UNL1        0.0208
     22 C          -5.9951  -15.3120   25.6661 C.3     1  UNL1        0.0172
     23 H          -7.1571  -15.7178   28.8762 H       1  UNL1        0.1188
     24 H          -5.8930  -14.7232   28.4436 H       1  UNL1        0.1188
@<TRIPOS>UNITY_ATOM_ATTR
12 1
charge -1
@<TRIPOS>BOND
     1    17    16    1
     2    17    18    1
     3    18    19    1
     4    19    20    1
     5    20    14    1
     6    14     1    1
     7     1     2   ar
     8     2     3   ar
     9     3     4    1
    10     3     5   ar
    11     5     6   ar
    12     6     7   ar
    13     7     8   ar
    14     8    11    1
    15    11    12   ar
    16    11    13   ar
    17     8     9   ar
    18     9    10   ar
    19    20    21    1
    20    21    22    1
    21    22    17    1
    22    10     1   ar
    23    10     6   ar
    24    16    23    1
    25    16    24    1
    26    14    15    1
@<TRIPOS>MOLECULE
*****
 24 26 0 0 0
SMALL
GASTEIGER

@<TRIPOS>ATOM
      1 C          -8.4681  -18.7075   22.3992 C.ar    1  UNL1        0.0801
      2 C          -9.7697  -18.7721   21.6566 C.ar    1  UNL1        0.0241
      3 C         -10.7868  -17.6834   21.8297 C.ar    1  UNL1        0.0360
      4 BR        -12.0885  -17.7480   21.0870 Br      1  UNL1       -0.0490
      5 C         -10.5023  -16.5299   22.7455 C.ar    1  UNL1        0.0099
      6 C          -9.2007  -16.4652   23.4881 C.ar    1  UNL1        0.0394
      7 C          -8.6441  -15.4599   24.4523 C.ar    1  UNL1        0.0418
      8 C          -7.2829  -15.9275   24.8750 C.ar    1  UNL1        0.1593
      9 O          -6.9983  -17.2217   24.1721 O.2     1  UNL1       -0.4511
     10 C          -8.1836  -17.5541   23.3150 C.ar    1  UNL1        0.1583
     11 C          -6.3672  -15.2242   25.8325 C.2     1  UNL1        0.1076
     12 O          -6.7014  -15.1792   27.2941 O.co2   1  UNL1       -0.5415
     13 O          -5.1171  -14.5660   25.3284 O.co2   1  UNL1       -0.5415
     14 N          -7.4509  -19.7963   22.2261 N.pl3   1  UNL1       -0.3317
     15 H          -7.6582  -20.7141   22.5157 H       1  UNL1        0.1469
     16 N          -2.1194  -18.5580   19.7681 N.3     1  UNL1       -0.3222
     17 C          -3.4523  -18.8675   20.3826 C.3     1  UNL1        0.0509
     18 C          -4.6805  -18.9193   19.5231 C.3     1  UNL1        0.0172
     19 C          -6.0135  -19.2288   20.1376 C.3     1  UNL1        0.0208
     20 C          -6.1181  -19.4867   21.6116 C.3     1  UNL1        0.0692
     21 C          -4.8898  -19.4350   22.4711 C.3     1  UNL1        0.0208
     22 C          -3.5570  -19.1254   21.8566 C.3     1  UNL1        0.0172
     23 H          -2.2332  -18.4115   18.7651 H       1  UNL1        0.1188
     24 H          -1.4820  -19.3381   19.9276 H       1  UNL1        0.1188
@<TRIPOS>UNITY_ATOM_ATTR
12 1
charge -1
@<TRIPOS>BOND
     1    17    16    1
     2    17    18    1
     3    18    19    1
     4    19    20    1
     5    20    14    1
     6    14     1    1
     7     1     2   ar
     8     2     3   ar
     9     3     4    1
    10     3     5   ar
    11     5     6   ar
    12     6     7   ar
    13     7     8   ar
    14     8    11    1
    15    11    12   ar
    16    11    13   ar
    17     8     9   ar
    18     9    10   ar
    19    20    21    1
    20    21    22    1
    21    22    17    1
    22    10     1   ar
    23    10     6   ar
    24    16    23    1
    25    16    24    1
    26    14    15    1
@<TRIPOS>MOLECULE
*****
 24 26 0 0 0
SMALL
GASTEIGER

@<TRIPOS>ATOM
      1 C          -7.0595  -17.1939   22.8422 C.ar    1  UNL1        0.0801
      2 C          -5.6757  -17.1440   23.4189 C.ar    1  UNL1        0.0241
      3 C          -4.6041  -18.0423   22.8760 C.ar    1  UNL1        0.0360
      4 BR         -3.2202  -17.9925   23.4528 Br      1  UNL1       -0.0490
      5 C          -4.9163  -18.9905   21.7563 C.ar    1  UNL1        0.0099
      6 C          -6.3001  -19.0403   21.1796 C.ar    1  UNL1        0.0394
      7 C          -6.9002  -19.8659   20.0804 C.ar    1  UNL1        0.0418
      8 C          -8.3427  -19.4778   19.9440 C.ar    1  UNL1        0.1593
      9 O          -8.6341  -18.4124   20.9589 O.2     1  UNL1       -0.4511
     10 C          -7.3717  -18.1420   21.7226 C.ar    1  UNL1        0.1583
     11 C          -9.3219  -20.0540   18.9646 C.2     1  UNL1        0.1076
     12 O          -8.8834  -21.1198   18.0045 O.co2   1  UNL1       -0.5415
     13 O         -10.7396  -19.5644   18.9453 O.co2   1  UNL1       -0.5415
     14 N          -8.1310  -16.2956   23.3851 N.pl3   1  UNL1       -0.3317
     15 H          -7.9017  -15.3929   23.7043 H       1  UNL1        0.1469
     16 N         -13.8152  -18.2033   23.6113 N.3     1  UNL1       -0.3222
     17 C         -12.3941  -17.7263   23.5547 C.3     1  UNL1        0.0509
     18 C         -12.0258  -16.5694   22.6741 C.3     1  UNL1        0.0172
     19 C         -10.6048  -16.0924   22.6175 C.3     1  UNL1        0.0208
     20 C          -9.5521  -16.7725   23.4416 C.3     1  UNL1        0.0692
     21 C          -9.9203  -17.9296   24.3224 C.3     1  UNL1        0.0208
     22 C         -11.3413  -18.4065   24.3789 C.3     1  UNL1        0.0172
     23 H         -14.3907  -17.6314   22.9931 H       1  UNL1        0.1188
     24 H         -14.1622  -18.1254   24.5673 H       1  UNL1        0.1188
@<TRIPOS>UNITY_ATOM_ATTR
12 1
charge -1
@<TRIPOS>BOND
     1    17    16    1
     2    17    18    1
     3    18    19    1
     4    19    20    1
     5    20    14    1
     6    14     1    1
     7     1     2   ar
     8     2     3   ar
     9     3     4    1
    10     3     5   ar
    11     5     6   ar
    12     6     7   ar
    13     7     8   ar
    14     8    11    1
    15    11    12   ar
    16    11    13   ar
    17     8     9   ar
    18     9    10   ar
    19    20    21    1
    20    21    22    1
    21    22    17    1
    22    10     1   ar
    23    10     6   ar
    24    16    23    1
    25    16    24    1
    26    14    15    1
