@<TRIPOS>MOLECULE
*****
 26 28 0 0 0
SMALL
GASTEIGER

@<TRIPOS>ATOM
      1 C          -8.4646  -16.9048   22.3141 C.3     1  UNL1        0.2136
      2 C          -9.9569  -17.0258   22.2231 C.ar    1  UNL1        0.0157
      3 C         -11.0656  -16.1028   22.6340 C.ar    1  UNL1       -0.0011
      4 C         -12.4945  -16.5021   22.4131 C.ar    1  UNL1       -0.0002
      5 C         -12.8147  -17.8243   21.7813 C.ar    1  UNL1       -0.0003
      6 C         -11.7060  -18.7473   21.3704 C.ar    1  UNL1       -0.0044
      7 C         -10.2771  -18.3480   21.5913 C.ar    1  UNL1       -0.0202
      8 C          -8.9826  -19.0442   21.2918 C.3     1  UNL1        0.0584
      9 C          -7.8624  -18.1522   21.7385 C.3     1  UNL1        0.1471
     10 O          -6.5594  -17.4922   22.0797 O.3     1  UNL1       -0.3812
     11 H          -5.8259  -18.0723   21.8223 H       1  UNL1        0.2105
     12 O          -7.7073  -15.7407   22.8810 O.3     1  UNL1       -0.4726
     13 C          -4.9180  -15.3508   23.9144 C.3     1  UNL1        0.0342
     14 C          -6.0652  -15.4597   24.8747 C.ar    1  UNL1        0.0121
     15 C          -5.8178  -15.3736   26.3516 C.ar    1  UNL1       -0.0013
     16 C          -6.9649  -15.4825   27.3119 C.ar    1  UNL1       -0.0001
     17 C          -8.3596  -15.6774   26.7953 C.ar    1  UNL1        0.0031
     18 C          -8.6070  -15.7635   25.3183 C.ar    1  UNL1        0.0366
     19 C          -7.4598  -15.6546   24.3581 C.ar    1  UNL1        0.1349
     20 C          -6.9879  -19.2617   21.2342 C.3     1  UNL1        0.1001
     21 N          -5.6713  -18.9447   20.5890 N.3     1  UNL1       -0.2933
     22 H          -5.3622  -18.0520   20.9737 H       1  UNL1        0.1234
     23 C          -4.5205  -19.8970   20.7258 C.3     1  UNL1        0.1008
     24 C          -3.3038  -19.4958   21.5061 C.3     1  UNL1        0.1542
     25 O          -2.0485  -20.3111   21.4096 O.3     1  UNL1       -0.3805
     26 H          -2.2034  -21.1896   21.7906 H       1  UNL1        0.2105
@<TRIPOS>BOND
     1    13    14    1
     2    14    15   ar
     3    15    16   ar
     4    16    17   ar
     5    17    18   ar
     6    18    19   ar
     7    19    12    1
     8    12     1    1
     9     1     2    1
    10     2     3   ar
    11     3     4   ar
    12     4     5   ar
    13     5     6   ar
    14     6     7   ar
    15     7     8    1
    16     8     9    1
    17     9    10    1
    18     9    20    1
    19    20    21    1
    20    21    23    1
    21    23    24    1
    22    24    25    1
    23    19    14   ar
    24     9     1    1
    25     7     2   ar
    26    10    11    1
    27    21    22    1
    28    25    26    1
@<TRIPOS>MOLECULE
*****
 26 28 0 0 0
SMALL
GASTEIGER

@<TRIPOS>ATOM
      1 C          -8.4594  -16.7689   22.4937 C.3     1  UNL1        0.2136
      2 C          -7.5359  -17.9062   22.1714 C.ar    1  UNL1        0.0157
      3 C          -6.0633  -18.0947   22.3852 C.ar    1  UNL1       -0.0011
      4 C          -5.3991  -19.3672   21.9499 C.ar    1  UNL1       -0.0002
      5 C          -6.2076  -20.4512   21.3008 C.ar    1  UNL1       -0.0003
      6 C          -7.6802  -20.2627   21.0870 C.ar    1  UNL1       -0.0044
      7 C          -8.3444  -18.9902   21.5223 C.ar    1  UNL1       -0.0202
      8 C          -9.7675  -18.5228   21.4434 C.3     1  UNL1        0.0584
      9 C          -9.8387  -17.1500   22.0437 C.3     1  UNL1        0.1471
     10 O         -10.2145  -15.7978   22.5731 O.3     1  UNL1       -0.3812
     11 H         -11.1651  -15.6533   22.4453 H       1  UNL1        0.2105
     12 O          -8.0717  -15.4773   23.1505 O.3     1  UNL1       -0.4726
     13 C          -5.1611  -15.1967   23.8213 C.3     1  UNL1        0.0342
     14 C          -6.1746  -15.3276   24.9194 C.ar    1  UNL1        0.0121
     15 C          -5.7328  -15.3182   26.3528 C.ar    1  UNL1       -0.0013
     16 C          -6.7463  -15.4492   27.4508 C.ar    1  UNL1       -0.0001
     17 C          -8.2016  -15.5895   27.1155 C.ar    1  UNL1        0.0031
     18 C          -8.6433  -15.5989   25.6821 C.ar    1  UNL1        0.0366
     19 C          -7.6299  -15.4680   24.5840 C.ar    1  UNL1        0.1349
     20 C         -11.2964  -17.2485   21.7044 C.3     1  UNL1        0.1001
     21 N         -12.1521  -18.2875   22.3665 N.3     1  UNL1       -0.2933
     22 H         -11.6848  -19.1840   22.2306 H       1  UNL1        0.1234
     23 C         -12.4656  -18.1800   23.8294 C.3     1  UNL1        0.1008
     24 C         -13.8924  -18.1777   24.2923 C.3     1  UNL1        0.1542
     25 O         -14.2223  -18.5508   25.7072 O.3     1  UNL1       -0.3805
     26 H         -14.0054  -19.4847   25.8544 H       1  UNL1        0.2105
@<TRIPOS>BOND
     1    13    14    1
     2    14    15   ar
     3    15    16   ar
     4    16    17   ar
     5    17    18   ar
     6    18    19   ar
     7    19    12    1
     8    12     1    1
     9     1     2    1
    10     2     3   ar
    11     3     4   ar
    12     4     5   ar
    13     5     6   ar
    14     6     7   ar
    15     7     8    1
    16     8     9    1
    17     9    10    1
    18     9    20    1
    19    20    21    1
    20    21    23    1
    21    23    24    1
    22    24    25    1
    23    19    14   ar
    24     9     1    1
    25     7     2   ar
    26    10    11    1
    27    21    22    1
    28    25    26    1
@<TRIPOS>MOLECULE
*****
 26 28 0 0 0
SMALL
GASTEIGER

@<TRIPOS>ATOM
      1 C          -8.1274  -18.5631   22.3570 C.3     1  UNL1        0.2136
      2 C          -8.0354  -17.3654   23.2554 C.ar    1  UNL1        0.0157
      3 C          -9.0761  -16.6011   24.0187 C.ar    1  UNL1       -0.0011
      4 C          -8.6777  -15.4192   24.8520 C.ar    1  UNL1       -0.0002
      5 C          -7.2387  -15.0017   24.9220 C.ar    1  UNL1       -0.0003
      6 C          -6.1980  -15.7661   24.1586 C.ar    1  UNL1       -0.0044
      7 C          -6.5964  -16.9479   23.3253 C.ar    1  UNL1       -0.0202
      8 C          -5.7991  -17.8876   22.4701 C.3     1  UNL1        0.0584
      9 C          -6.7453  -18.8858   21.8717 C.3     1  UNL1        0.1471
     10 O          -7.4326  -20.0003   21.1398 O.3     1  UNL1       -0.3812
     11 H          -6.7775  -20.5097   20.6376 H       1  UNL1        0.2105
     12 O          -9.3814  -19.3074   22.0056 O.3     1  UNL1       -0.4726
     13 C         -10.2816  -20.0178   24.7778 C.3     1  UNL1        0.0342
     14 C         -11.1581  -19.1776   23.8969 C.ar    1  UNL1        0.0121
     15 C         -12.4845  -18.6927   24.4020 C.ar    1  UNL1       -0.0013
     16 C         -13.3610  -17.8525   23.5211 C.ar    1  UNL1       -0.0001
     17 C         -12.9109  -17.4973   22.1350 C.ar    1  UNL1        0.0031
     18 C         -11.5844  -17.9823   21.6299 C.ar    1  UNL1        0.0366
     19 C         -10.7080  -18.8224   22.5108 C.ar    1  UNL1        0.1349
     20 C          -5.5068  -19.4415   21.2334 C.3     1  UNL1        0.1001
     21 N          -4.6584  -18.5685   20.3570 N.3     1  UNL1       -0.2933
     22 H          -4.3709  -17.7716   20.9251 H       1  UNL1        0.1234
     23 C          -3.4150  -19.1216   19.7260 C.3     1  UNL1        0.1008
     24 C          -2.1444  -19.2037   20.5191 C.3     1  UNL1        0.1542
     25 O          -1.9345  -20.3327   21.4842 O.3     1  UNL1       -0.3805
     26 H          -2.5743  -20.2611   22.2096 H       1  UNL1        0.2105
@<TRIPOS>BOND
     1    13    14    1
     2    14    15   ar
     3    15    16   ar
     4    16    17   ar
     5    17    18   ar
     6    18    19   ar
     7    19    12    1
     8    12     1    1
     9     1     2    1
    10     2     3   ar
    11     3     4   ar
    12     4     5   ar
    13     5     6   ar
    14     6     7   ar
    15     7     8    1
    16     8     9    1
    17     9    10    1
    18     9    20    1
    19    20    21    1
    20    21    23    1
    21    23    24    1
    22    24    25    1
    23    19    14   ar
    24     9     1    1
    25     7     2   ar
    26    10    11    1
    27    21    22    1
    28    25    26    1
@<TRIPOS>MOLECULE
*****
 26 28 0 0 0
SMALL
GASTEIGER

@<TRIPOS>ATOM
      1 C          -7.6798  -18.0367   21.7236 C.3     1  UNL1        0.2136
      2 C          -7.2961  -16.9955   22.7329 C.ar    1  UNL1        0.0157
      3 C          -8.0512  -15.8399   23.3195 C.ar    1  UNL1       -0.0011
      4 C          -7.3927  -14.9499   24.3315 C.ar    1  UNL1       -0.0002
      5 C          -5.9790  -15.2155   24.7569 C.ar    1  UNL1       -0.0003
      6 C          -5.2239  -16.3712   24.1703 C.ar    1  UNL1       -0.0044
      7 C          -5.8824  -17.2612   23.1583 C.ar    1  UNL1       -0.0202
      8 C          -5.3925  -18.4666   22.4119 C.3     1  UNL1        0.0584
      9 C          -6.5034  -18.9459   21.5252 C.3     1  UNL1        0.1471
     10 O          -7.4079  -19.6459   20.5547 O.3     1  UNL1       -0.3812
     11 H          -6.9396  -20.3990   20.1617 H       1  UNL1        0.2105
     12 O          -9.0071  -18.1490   21.0338 O.3     1  UNL1       -0.4726
     13 C         -11.3998  -16.6676   19.9945 C.3     1  UNL1        0.0342
     14 C         -11.4707  -17.3737   21.3160 C.ar    1  UNL1        0.0121
     15 C         -12.7379  -17.3391   22.1178 C.ar    1  UNL1       -0.0013
     16 C         -12.8088  -18.0452   23.4393 C.ar    1  UNL1       -0.0001
     17 C         -11.6125  -18.7860   23.9590 C.ar    1  UNL1        0.0031
     18 C         -10.3453  -18.8205   23.1572 C.ar    1  UNL1        0.0366
     19 C         -10.2744  -18.1144   21.8357 C.ar    1  UNL1        0.1349
     20 C          -5.5160  -20.0014   21.1240 C.3     1  UNL1        0.1001
     21 N          -4.0710  -19.6446   20.9373 N.3     1  UNL1       -0.2933
     22 H          -3.5252  -20.4042   21.3441 H       1  UNL1        0.1234
     23 C          -3.5282  -19.4114   19.5586 C.3     1  UNL1        0.1008
     24 C          -2.8081  -18.1341   19.2423 C.3     1  UNL1        0.1542
     25 O          -3.5478  -16.9933   18.6085 O.3     1  UNL1       -0.3805
     26 H          -3.8289  -17.2467   17.7154 H       1  UNL1        0.2105
@<TRIPOS>BOND
     1    13    14    1
     2    14    15   ar
     3    15    16   ar
     4    16    17   ar
     5    17    18   ar
     6    18    19   ar
     7    19    12    1
     8    12     1    1
     9     1     2    1
    10     2     3   ar
    11     3     4   ar
    12     4     5   ar
    13     5     6   ar
    14     6     7   ar
    15     7     8    1
    16     8     9    1
    17     9    10    1
    18     9    20    1
    19    20    21    1
    20    21    23    1
    21    23    24    1
    22    24    25    1
    23    19    14   ar
    24     9     1    1
    25     7     2   ar
    26    10    11    1
    27    21    22    1
    28    25    26    1
@<TRIPOS>MOLECULE
*****
 26 28 0 0 0
SMALL
GASTEIGER

@<TRIPOS>ATOM
      1 C          -7.9849  -18.0709   22.1211 C.3     1  UNL1        0.2136
      2 C          -8.5806  -18.7989   20.9527 C.ar    1  UNL1        0.0157
      3 C          -9.9815  -18.8672   20.4211 C.ar    1  UNL1       -0.0011
      4 C         -10.2837  -19.6964   19.2082 C.ar    1  UNL1       -0.0002
      5 C          -9.1850  -20.4572   18.5270 C.ar    1  UNL1       -0.0003
      6 C          -7.7841  -20.3888   19.0587 C.ar    1  UNL1       -0.0044
      7 C          -7.4819  -19.5597   20.2715 C.ar    1  UNL1       -0.0202
      8 C          -6.2072  -19.3019   21.0190 C.3     1  UNL1        0.0584
      9 C          -6.5180  -18.3818   22.1621 C.3     1  UNL1        0.1471
     10 O          -6.5224  -17.4876   23.3664 O.3     1  UNL1       -0.3812
     11 H          -5.6244  -17.4281   23.7283 H       1  UNL1        0.2105
     12 O          -8.7260  -17.1872   23.0802 O.3     1  UNL1       -0.4726
     13 C          -9.9343  -19.3617   24.7571 C.3     1  UNL1        0.0342
     14 C         -10.8209  -18.3856   24.0422 C.ar    1  UNL1        0.0121
     15 C         -12.3116  -18.4967   24.1656 C.ar    1  UNL1       -0.0013
     16 C         -13.1983  -17.5207   23.4507 C.ar    1  UNL1       -0.0001
     17 C         -12.5942  -16.4334   22.6122 C.ar    1  UNL1        0.0031
     18 C         -11.1035  -16.3223   22.4888 C.ar    1  UNL1        0.0366
     19 C         -10.2168  -17.2984   23.2037 C.ar    1  UNL1        0.1349
     20 C          -5.0521  -18.5058   22.4548 C.3     1  UNL1        0.1001
     21 N          -4.2479  -17.2843   22.7883 N.3     1  UNL1       -0.2933
     22 H          -4.4126  -17.0836   23.7748 H       1  UNL1        0.1234
     23 C          -2.7612  -17.2877   22.5894 C.3     1  UNL1        0.1008
     24 C          -2.0813  -18.5053   22.0370 C.3     1  UNL1        0.1542
     25 O          -0.7753  -18.3708   21.3116 O.3     1  UNL1       -0.3805
     26 H          -0.9115  -17.8740   20.4898 H       1  UNL1        0.2105
@<TRIPOS>BOND
     1    13    14    1
     2    14    15   ar
     3    15    16   ar
     4    16    17   ar
     5    17    18   ar
     6    18    19   ar
     7    19    12    1
     8    12     1    1
     9     1     2    1
    10     2     3   ar
    11     3     4   ar
    12     4     5   ar
    13     5     6   ar
    14     6     7   ar
    15     7     8    1
    16     8     9    1
    17     9    10    1
    18     9    20    1
    19    20    21    1
    20    21    23    1
    21    23    24    1
    22    24    25    1
    23    19    14   ar
    24     9     1    1
    25     7     2   ar
    26    10    11    1
    27    21    22    1
    28    25    26    1
@<TRIPOS>MOLECULE
*****
 26 28 0 0 0
SMALL
GASTEIGER

@<TRIPOS>ATOM
      1 C          -6.1299  -18.5048   22.0883 C.3     1  UNL1        0.2136
      2 C          -6.3925  -17.3261   22.9781 C.ar    1  UNL1        0.0157
      3 C          -7.6423  -16.5520   23.2757 C.ar    1  UNL1       -0.0011
      4 C          -7.5986  -15.3949   24.2293 C.ar    1  UNL1       -0.0002
      5 C          -6.3051  -15.0120   24.8851 C.ar    1  UNL1       -0.0003
      6 C          -5.0553  -15.7861   24.5874 C.ar    1  UNL1       -0.0044
      7 C          -5.0990  -16.9431   23.6339 C.ar    1  UNL1       -0.0202
      8 C          -4.0370  -17.8852   23.1495 C.3     1  UNL1        0.0584
      9 C          -4.6742  -18.8504   22.1943 C.3     1  UNL1        0.1471
     10 O          -5.0222  -19.9353   21.2186 O.3     1  UNL1       -0.3812
     11 H          -4.2271  -20.4505   21.0107 H       1  UNL1        0.2105
     12 O          -7.1450  -19.2136   21.2414 O.3     1  UNL1       -0.4726
     13 C          -9.5764  -19.0544   19.4911 C.3     1  UNL1        0.0342
     14 C          -9.7128  -19.4579   20.9294 C.ar    1  UNL1        0.0121
     15 C         -11.0647  -19.7817   21.4926 C.ar    1  UNL1       -0.0013
     16 C         -11.2011  -20.1852   22.9308 C.ar    1  UNL1       -0.0001
     17 C          -9.9855  -20.2648   23.8060 C.ar    1  UNL1        0.0031
     18 C          -8.6335  -19.9409   23.2428 C.ar    1  UNL1        0.0366
     19 C          -8.4971  -19.5375   21.8045 C.ar    1  UNL1        0.1349
     20 C          -3.2911  -19.4228   22.0963 C.3     1  UNL1        0.1001
     21 N          -2.7399  -19.8277   20.7613 N.3     1  UNL1       -0.2933
     22 H          -3.5292  -20.1530   20.2032 H       1  UNL1        0.1234
     23 C          -1.9982  -18.8299   19.9221 C.3     1  UNL1        0.1008
     24 C          -1.1258  -17.8002   20.5770 C.3     1  UNL1        0.1542
     25 O           0.3635  -17.9784   20.5909 O.3     1  UNL1       -0.3805
     26 H           0.5916  -18.7514   21.1306 H       1  UNL1        0.2105
@<TRIPOS>BOND
     1    13    14    1
     2    14    15   ar
     3    15    16   ar
     4    16    17   ar
     5    17    18   ar
     6    18    19   ar
     7    19    12    1
     8    12     1    1
     9     1     2    1
    10     2     3   ar
    11     3     4   ar
    12     4     5   ar
    13     5     6   ar
    14     6     7   ar
    15     7     8    1
    16     8     9    1
    17     9    10    1
    18     9    20    1
    19    20    21    1
    20    21    23    1
    21    23    24    1
    22    24    25    1
    23    19    14   ar
    24     9     1    1
    25     7     2   ar
    26    10    11    1
    27    21    22    1
    28    25    26    1
@<TRIPOS>MOLECULE
*****
 26 28 0 0 0
SMALL
GASTEIGER

@<TRIPOS>ATOM
      1 C          -7.8001  -17.2467   22.1774 C.3     1  UNL1        0.2136
      2 C          -9.2182  -17.4961   21.7570 C.ar    1  UNL1        0.0157
      3 C         -10.4176  -16.5980   21.6891 C.ar    1  UNL1       -0.0011
      4 C         -11.7346  -17.1400   21.2182 C.ar    1  UNL1       -0.0002
      5 C         -11.8522  -18.5800   20.8153 C.ar    1  UNL1       -0.0003
      6 C         -10.6527  -19.4781   20.8832 C.ar    1  UNL1       -0.0044
      7 C          -9.3357  -18.9362   21.3540 C.ar    1  UNL1       -0.0202
      8 C          -7.9902  -19.5767   21.5254 C.3     1  UNL1        0.0584
      9 C          -7.0411  -18.5326   22.0342 C.3     1  UNL1        0.1471
     10 O          -5.8828  -17.7218   22.5350 O.3     1  UNL1       -0.3812
     11 H          -5.0936  -18.2833   22.5873 H       1  UNL1        0.2105
     12 O          -7.2393  -15.9406   22.6568 O.3     1  UNL1       -0.4726
     13 C          -9.4987  -15.9495   24.6304 C.3     1  UNL1        0.0342
     14 C          -8.0909  -15.7388   25.1031 C.ar    1  UNL1        0.0121
     15 C          -7.8126  -15.5326   26.5625 C.ar    1  UNL1       -0.0013
     16 C          -6.4047  -15.3219   27.0352 C.ar    1  UNL1       -0.0001
     17 C          -5.2750  -15.3174   26.0484 C.ar    1  UNL1        0.0031
     18 C          -5.5533  -15.5237   24.5890 C.ar    1  UNL1        0.0366
     19 C          -6.9611  -15.7344   24.1163 C.ar    1  UNL1        0.1349
     20 C          -6.0400  -19.6490   21.9957 C.3     1  UNL1        0.1001
     21 N          -5.5513  -20.1730   20.6780 N.3     1  UNL1       -0.2933
     22 H          -6.0279  -19.6369   19.9528 H       1  UNL1        0.1234
     23 C          -4.0875  -20.1358   20.3524 C.3     1  UNL1        0.1008
     24 C          -3.1020  -19.6666   21.3814 C.3     1  UNL1        0.1542
     25 O          -1.7397  -20.2901   21.4541 O.3     1  UNL1       -0.3805
     26 H          -1.8231  -21.2190   21.7207 H       1  UNL1        0.2105
@<TRIPOS>BOND
     1    13    14    1
     2    14    15   ar
     3    15    16   ar
     4    16    17   ar
     5    17    18   ar
     6    18    19   ar
     7    19    12    1
     8    12     1    1
     9     1     2    1
    10     2     3   ar
    11     3     4   ar
    12     4     5   ar
    13     5     6   ar
    14     6     7   ar
    15     7     8    1
    16     8     9    1
    17     9    10    1
    18     9    20    1
    19    20    21    1
    20    21    23    1
    21    23    24    1
    22    24    25    1
    23    19    14   ar
    24     9     1    1
    25     7     2   ar
    26    10    11    1
    27    21    22    1
    28    25    26    1
@<TRIPOS>MOLECULE
*****
 26 28 0 0 0
SMALL
GASTEIGER

@<TRIPOS>ATOM
      1 C          -6.8107  -17.2882   23.0990 C.3     1  UNL1        0.2136
      2 C          -7.1046  -16.5441   24.3678 C.ar    1  UNL1        0.0157
      3 C          -8.3941  -16.1387   25.0180 C.ar    1  UNL1       -0.0011
      4 C          -8.3757  -15.3849   26.3147 C.ar    1  UNL1       -0.0002
      5 C          -7.0678  -15.0365   26.9612 C.ar    1  UNL1       -0.0003
      6 C          -5.7783  -15.4419   26.3110 C.ar    1  UNL1       -0.0044
      7 C          -5.7967  -16.1957   25.0144 C.ar    1  UNL1       -0.0202
      8 C          -4.6945  -16.7245   24.1451 C.3     1  UNL1        0.0584
      9 C          -5.3212  -17.3998   22.9614 C.3     1  UNL1        0.1471
     10 O          -5.6510  -18.1302   21.6934 O.3     1  UNL1       -0.3812
     11 H          -4.8301  -18.4029   21.2545 H       1  UNL1        0.2105
     12 O          -7.8279  -17.8264   22.1368 O.3     1  UNL1       -0.4726
     13 C          -9.2082  -20.0902   23.5404 C.3     1  UNL1        0.0342
     14 C          -9.9799  -18.8613   23.1605 C.ar    1  UNL1        0.0121
     15 C         -11.4417  -18.7643   23.4823 C.ar    1  UNL1       -0.0013
     16 C         -12.2134  -17.5354   23.1024 C.ar    1  UNL1       -0.0001
     17 C         -11.5233  -16.4035   22.4006 C.ar    1  UNL1        0.0031
     18 C         -10.0615  -16.5005   22.0788 C.ar    1  UNL1        0.0366
     19 C          -9.2898  -17.7294   22.4587 C.ar    1  UNL1        0.1349
     20 C          -3.9007  -17.6640   22.5587 C.3     1  UNL1        0.1001
     21 N          -3.5888  -18.1190   21.1638 N.3     1  UNL1       -0.2933
     22 H          -4.3442  -17.7804   20.5678 H       1  UNL1        0.1234
     23 C          -2.3034  -17.7062   20.5101 C.3     1  UNL1        0.1008
     24 C          -2.1768  -17.7416   19.0158 C.3     1  UNL1        0.1542
     25 O          -0.8200  -17.8065   18.3794 O.3     1  UNL1       -0.3805
     26 H          -0.3368  -16.9859   18.5639 H       1  UNL1        0.2105
@<TRIPOS>BOND
     1    13    14    1
     2    14    15   ar
     3    15    16   ar
     4    16    17   ar
     5    17    18   ar
     6    18    19   ar
     7    19    12    1
     8    12     1    1
     9     1     2    1
    10     2     3   ar
    11     3     4   ar
    12     4     5   ar
    13     5     6   ar
    14     6     7   ar
    15     7     8    1
    16     8     9    1
    17     9    10    1
    18     9    20    1
    19    20    21    1
    20    21    23    1
    21    23    24    1
    22    24    25    1
    23    19    14   ar
    24     9     1    1
    25     7     2   ar
    26    10    11    1
    27    21    22    1
    28    25    26    1
@<TRIPOS>MOLECULE
*****
 26 28 0 0 0
SMALL
GASTEIGER

@<TRIPOS>ATOM
      1 C          -8.6828  -17.2841   22.8127 C.3     1  UNL1        0.2136
      2 C         -10.1727  -17.1880   22.6680 C.ar    1  UNL1        0.0157
      3 C         -11.1185  -16.0284   22.7721 C.ar    1  UNL1       -0.0011
      4 C         -12.5901  -16.2409   22.5743 C.ar    1  UNL1       -0.0002
      5 C         -13.1159  -17.6128   22.2724 C.ar    1  UNL1       -0.0003
      6 C         -12.1701  -18.7724   22.1683 C.ar    1  UNL1       -0.0044
      7 C         -10.6985  -18.5600   22.3660 C.ar    1  UNL1       -0.0202
      8 C          -9.5336  -19.5040   22.3242 C.3     1  UNL1        0.0584
      9 C          -8.2878  -18.7155   22.6002 C.3     1  UNL1        0.1471
     10 O          -6.8987  -18.2038   22.8424 O.3     1  UNL1       -0.3812
     11 H          -6.2681  -18.9382   22.7799 H       1  UNL1        0.2105
     12 O          -7.7514  -16.1482   23.1165 O.3     1  UNL1       -0.4726
     13 C          -4.9307  -15.4656   23.8770 C.3     1  UNL1        0.0342
     14 C          -6.0086  -15.4698   24.9201 C.ar    1  UNL1        0.0121
     15 C          -5.6763  -15.1328   26.3435 C.ar    1  UNL1       -0.0013
     16 C          -6.7542  -15.1370   27.3866 C.ar    1  UNL1       -0.0001
     17 C          -8.1645  -15.4783   27.0064 C.ar    1  UNL1        0.0031
     18 C          -8.4968  -15.8153   25.5831 C.ar    1  UNL1        0.0366
     19 C          -7.4189  -15.8111   24.5400 C.ar    1  UNL1        0.1349
     20 C          -7.6024  -20.0399   22.4384 C.3     1  UNL1        0.1001
     21 N          -6.3978  -20.1577   21.5523 N.3     1  UNL1       -0.2933
     22 H          -5.8461  -20.9385   21.9077 H       1  UNL1        0.1234
     23 C          -6.5694  -20.3839   20.0794 C.3     1  UNL1        0.1008
     24 C          -7.5549  -19.5606   19.3041 C.3     1  UNL1        0.1542
     25 O          -8.8485  -20.1697   18.8506 O.3     1  UNL1       -0.3805
     26 H          -8.6676  -20.8639   18.1977 H       1  UNL1        0.2105
@<TRIPOS>BOND
     1    13    14    1
     2    14    15   ar
     3    15    16   ar
     4    16    17   ar
     5    17    18   ar
     6    18    19   ar
     7    19    12    1
     8    12     1    1
     9     1     2    1
    10     2     3   ar
    11     3     4   ar
    12     4     5   ar
    13     5     6   ar
    14     6     7   ar
    15     7     8    1
    16     8     9    1
    17     9    10    1
    18     9    20    1
    19    20    21    1
    20    21    23    1
    21    23    24    1
    22    24    25    1
    23    19    14   ar
    24     9     1    1
    25     7     2   ar
    26    10    11    1
    27    21    22    1
    28    25    26    1
