@<TRIPOS>MOLECULE
*****
 24 26 0 0 0
SMALL
GASTEIGER

@<TRIPOS>ATOM
      1 C          -9.2353  -19.1719   21.6758 C.ar    1  UNL1        0.0173
      2 C          -9.2791  -19.4500   20.2025 C.ar    1  UNL1        0.0012
      3 C          -8.0108  -19.7399   19.4559 C.ar    1  UNL1       -0.0045
      4 C          -6.6987  -19.7517   20.1827 C.ar    1  UNL1       -0.0247
      5 C          -6.6549  -19.4736   21.6561 C.ar    1  UNL1       -0.0246
      6 C          -7.9232  -19.1837   22.4026 C.ar    1  UNL1       -0.0030
      7 C          -5.2245  -19.5533   22.1005 C.3     1  UNL1        0.0438
      8 C          -4.3842  -19.8807   20.9018 C.3     1  UNL1        0.0838
      9 C          -5.2953  -20.0033   19.7166 C.3     1  UNL1        0.0437
     10 C         -14.3086  -18.0124   24.6621 C.3     1  UNL1        0.0327
     11 C         -13.0403  -18.3023   23.9155 C.ar    1  UNL1       -0.0027
     12 C         -12.9343  -17.9650   22.4578 C.ar    1  UNL1       -0.0012
     13 C         -11.6660  -18.2549   21.7112 C.ar    1  UNL1        0.0188
     14 C         -10.5037  -18.8820   22.4223 C.ar    1  UNL1        0.0813
     15 N         -10.6097  -19.2193   23.8801 N.ar    1  UNL1       -0.2442
     16 C         -11.8780  -18.9294   24.6267 C.ar    1  UNL1        0.0945
     17 N          -2.8944  -20.0548   20.8904 N.3     1  UNL1       -0.1841
     18 H          -2.6755  -20.6677   20.1050 H       1  UNL1        0.1484
     19 S          -2.0002  -18.8568   20.7671 S.O2    1  UNL1        0.0390
     20 O          -1.6658  -18.9562   22.2260 O.2     1  UNL1       -0.1576
     21 O          -2.3345  -18.7574   19.3082 O.2     1  UNL1       -0.1576
     22 C          -1.1060  -17.6588   20.6438 C.3     1  UNL1        0.1457
     23 C          -1.5265  -16.3452   21.2333 C.3     1  UNL1        0.0270
     24 C           0.2087  -17.7744   19.9310 C.3     1  UNL1        0.0270
@<TRIPOS>BOND
     1    10    11    1
     2    11    12   ar
     3    12    13   ar
     4    13    14   ar
     5    14     1    1
     6     1     2   ar
     7     2     3   ar
     8     3     4   ar
     9     4     5   ar
    10     5     6   ar
    11     5     7    1
    12     7     8    1
    13     8    17    1
    14    17    19    1
    15    19    20    2
    16    19    21    2
    17    19    22    1
    18    22    23    1
    19    22    24    1
    20     8     9    1
    21    14    15   ar
    22    15    16   ar
    23    16    11   ar
    24     6     1   ar
    25     9     4    1
    26    17    18    1
@<TRIPOS>MOLECULE
*****
 24 26 0 0 0
SMALL
GASTEIGER

@<TRIPOS>ATOM
      1 C          -8.9080  -19.4445   22.5084 C.ar    1  UNL1        0.0173
      2 C          -8.2599  -20.6250   23.1689 C.ar    1  UNL1        0.0012
      3 C          -6.8705  -21.0336   22.7783 C.ar    1  UNL1       -0.0045
      4 C          -6.1293  -20.2618   21.7272 C.ar    1  UNL1       -0.0247
      5 C          -6.7774  -19.0813   21.0666 C.ar    1  UNL1       -0.0246
      6 C          -8.1668  -18.6727   21.4573 C.ar    1  UNL1       -0.0030
      7 C          -5.8078  -18.5172   20.0709 C.3     1  UNL1        0.0438
      8 C          -4.5604  -19.3490   20.1160 C.3     1  UNL1        0.0838
      9 C          -4.7590  -20.4273   21.1396 C.3     1  UNL1        0.0437
     10 C         -14.4656  -17.8095   24.0707 C.3     1  UNL1        0.0327
     11 C         -13.0762  -18.2183   23.6802 C.ar    1  UNL1       -0.0027
     12 C         -12.1798  -18.8821   24.6831 C.ar    1  UNL1       -0.0012
     13 C         -10.7904  -19.2908   24.2925 C.ar    1  UNL1        0.0188
     14 C         -10.2974  -19.0357   22.8990 C.ar    1  UNL1        0.0813
     15 N         -11.1938  -18.3719   21.8961 N.ar    1  UNL1       -0.2442
     16 C         -12.5831  -17.9632   22.2866 C.ar    1  UNL1        0.0945
     17 N          -3.3302  -19.1393   19.2835 N.3     1  UNL1       -0.1841
     18 H          -3.6400  -18.7498   18.3932 H       1  UNL1        0.1484
     19 S          -2.2282  -18.2532   19.7838 S.O2    1  UNL1        0.0390
     20 O          -2.8483  -17.0837   19.0784 O.2     1  UNL1       -0.1576
     21 O          -1.6081  -19.4228   20.4893 O.2     1  UNL1       -0.1576
     22 C          -1.1261  -17.3671   20.2841 C.3     1  UNL1        0.1457
     23 C           0.2884  -17.6108   19.8484 C.3     1  UNL1        0.0270
     24 C          -1.4385  -16.2374   21.2201 C.3     1  UNL1        0.0270
@<TRIPOS>BOND
     1    10    11    1
     2    11    12   ar
     3    12    13   ar
     4    13    14   ar
     5    14     1    1
     6     1     2   ar
     7     2     3   ar
     8     3     4   ar
     9     4     5   ar
    10     5     6   ar
    11     5     7    1
    12     7     8    1
    13     8    17    1
    14    17    19    1
    15    19    20    2
    16    19    21    2
    17    19    22    1
    18    22    23    1
    19    22    24    1
    20     8     9    1
    21    14    15   ar
    22    15    16   ar
    23    16    11   ar
    24     6     1   ar
    25     9     4    1
    26    17    18    1
@<TRIPOS>MOLECULE
*****
 24 26 0 0 0
SMALL
GASTEIGER

@<TRIPOS>ATOM
      1 C          -4.7516  -18.6943   21.5511 C.ar    1  UNL1        0.0173
      2 C          -5.3335  -20.0023   21.1036 C.ar    1  UNL1        0.0012
      3 C          -6.7161  -20.3943   21.5335 C.ar    1  UNL1       -0.0045
      4 C          -7.5167  -19.4783   22.4109 C.ar    1  UNL1       -0.0247
      5 C          -6.9348  -18.1702   22.8584 C.ar    1  UNL1       -0.0246
      6 C          -5.5522  -17.7782   22.4286 C.ar    1  UNL1       -0.0030
      7 C          -7.9537  -17.4783   23.7146 C.3     1  UNL1        0.0438
      8 C          -9.1654  -18.3588   23.7962 C.3     1  UNL1        0.0838
      9 C          -8.8954  -19.5948   22.9905 C.3     1  UNL1        0.0437
     10 C           0.7787  -17.1259   19.8317 C.3     1  UNL1        0.0327
     11 C          -0.6038  -17.5180   20.2615 C.ar    1  UNL1       -0.0027
     12 C          -1.1639  -18.8509   19.8617 C.ar    1  UNL1       -0.0012
     13 C          -2.5465  -19.2429   20.2916 C.ar    1  UNL1        0.0188
     14 C          -3.3690  -18.3022   21.1212 C.ar    1  UNL1        0.0813
     15 N          -2.8090  -16.9693   21.5211 N.ar    1  UNL1       -0.2442
     16 C          -1.4264  -16.5772   21.0912 C.ar    1  UNL1        0.0945
     17 N         -10.4260  -18.0562   24.5510 N.3     1  UNL1       -0.1841
     18 H         -10.2894  -17.1513   25.0015 H       1  UNL1        0.1484
     19 S         -11.7363  -17.9848   23.8245 S.O2    1  UNL1        0.0390
     20 O         -12.3354  -18.9429   24.8110 O.2     1  UNL1       -0.1576
     21 O         -11.1373  -17.0267   22.8380 O.2     1  UNL1       -0.1576
     22 C         -13.0467  -17.9134   23.0980 C.3     1  UNL1        0.1457
     23 C         -14.3330  -18.0680   23.8543 C.3     1  UNL1        0.0270
     24 C         -13.0710  -17.6875   21.6154 C.3     1  UNL1        0.0270
@<TRIPOS>BOND
     1    10    11    1
     2    11    12   ar
     3    12    13   ar
     4    13    14   ar
     5    14     1    1
     6     1     2   ar
     7     2     3   ar
     8     3     4   ar
     9     4     5   ar
    10     5     6   ar
    11     5     7    1
    12     7     8    1
    13     8    17    1
    14    17    19    1
    15    19    20    2
    16    19    21    2
    17    19    22    1
    18    22    23    1
    19    22    24    1
    20     8     9    1
    21    14    15   ar
    22    15    16   ar
    23    16    11   ar
    24     6     1   ar
    25     9     4    1
    26    17    18    1
@<TRIPOS>MOLECULE
*****
 24 26 0 0 0
SMALL
GASTEIGER

@<TRIPOS>ATOM
      1 C           5.5212   -1.2331   32.4490 C.ar    1  UNL1        0.0173
      2 C           5.1565    0.0384   31.7419 C.ar    1  UNL1        0.0012
      3 C           4.6705    1.2204   32.5272 C.ar    1  UNL1       -0.0045
      4 C           4.5493    1.1308   34.0196 C.ar    1  UNL1       -0.0247
      5 C           4.9140   -0.1408   34.7267 C.ar    1  UNL1       -0.0246
      6 C           5.4000   -1.3227   33.9414 C.ar    1  UNL1       -0.0030
      7 C           4.6932    0.0661   36.1959 C.3     1  UNL1        0.0438
      8 C           4.1921    1.4656   36.3968 C.3     1  UNL1        0.0838
      9 C           4.1031    2.1236   35.0518 C.3     1  UNL1        0.0437
     10 C           7.4652   -5.9611   29.3078 C.3     1  UNL1        0.0327
     11 C           6.9792   -4.7792   30.0931 C.ar    1  UNL1       -0.0027
     12 C           6.8797   -4.8612   31.5875 C.ar    1  UNL1       -0.0012
     13 C           6.3937   -3.6792   32.3728 C.ar    1  UNL1        0.0188
     14 C           6.0072   -2.4152   31.6637 C.ar    1  UNL1        0.0813
     15 N           6.1068   -2.3331   30.1692 N.ar    1  UNL1       -0.2442
     16 C           6.5927   -3.5151   29.3839 C.ar    1  UNL1        0.0945
     17 N           3.8415    2.0963   37.7119 N.3     1  UNL1       -0.1841
     18 H           3.7668    3.1000   37.5465 H       1  UNL1        0.1484
     19 S           2.5931    1.6822   38.4331 S.O2    1  UNL1        0.0390
     20 O           3.4193    0.9153   39.4227 O.2     1  UNL1       -0.1576
     21 O           1.7670    2.4491   37.4435 O.2     1  UNL1       -0.1576
     22 C           1.3448    1.2681   39.1543 C.3     1  UNL1        0.1457
     23 C           1.1982   -0.1392   39.6525 C.3     1  UNL1        0.0270
     24 C           0.2431    2.2612   39.3774 C.3     1  UNL1        0.0270
@<TRIPOS>BOND
     1    10    11    1
     2    11    12   ar
     3    12    13   ar
     4    13    14   ar
     5    14     1    1
     6     1     2   ar
     7     2     3   ar
     8     3     4   ar
     9     4     5   ar
    10     5     6   ar
    11     5     7    1
    12     7     8    1
    13     8    17    1
    14    17    19    1
    15    19    20    2
    16    19    21    2
    17    19    22    1
    18    22    23    1
    19    22    24    1
    20     8     9    1
    21    14    15   ar
    22    15    16   ar
    23    16    11   ar
    24     6     1   ar
    25     9     4    1
    26    17    18    1
