@<TRIPOS>MOLECULE
*****
 33 36 0 0 0
SMALL
GASTEIGER

@<TRIPOS>ATOM
      1 C           5.0654   -2.2934   24.6952 C.ar    1  UNL1        0.0917
      2 C           6.0589   -3.3904   24.9392 C.ar    1  UNL1        0.1606
      3 C           6.4360   -4.3221   23.8257 C.ar    1  UNL1        0.1152
      4 N           5.8195   -4.1567   22.4682 N.ar    1  UNL1       -0.2423
      5 C           4.8260   -3.0597   22.2243 C.ar    1  UNL1        0.0816
      6 C           4.2096   -2.8943   20.8668 C.ar    1  UNL1        0.0191
      7 C           3.2161   -1.7973   20.6229 C.ar    1  UNL1        0.0015
      8 C           2.8391   -0.8656   21.7364 C.ar    1  UNL1        0.0001
      9 C           3.4555   -1.0310   23.0938 C.ar    1  UNL1        0.0017
     10 C           4.4490   -2.1280   23.3378 C.ar    1  UNL1        0.0251
     11 C           7.4295   -5.4191   24.0696 C.ar    1  UNL1        0.0206
     12 C           8.5396   -5.6573   23.0894 C.ar    1  UNL1        0.0016
     13 C           9.5330   -6.7543   23.3334 C.ar    1  UNL1        0.0000
     14 C           9.4164   -7.6131   24.5577 C.ar    1  UNL1        0.0000
     15 C           8.3063   -7.3750   25.5379 C.ar    1  UNL1        0.0000
     16 C           7.3129   -6.2779   25.2939 C.ar    1  UNL1        0.0016
     17 N           3.7119   -1.8036   26.8581 N.am    1  UNL1       -0.2205
     18 C           4.6884   -1.3618   25.8087 C.2     1  UNL1        0.2650
     19 O           5.2879    0.0118   25.8728 O.2     1  UNL1       -0.2685
     20 H           3.3185   -2.7051   26.8160 H       1  UNL1        0.1738
     21 C           4.2233   -0.7408   29.1730 C.2     1  UNL1        0.4250
     22 O           5.4888   -1.5413   29.2610 O.2     1  UNL1       -0.2242
     23 N           3.3348   -0.8720   27.9716 N.am    1  UNL1       -0.1519
     24 C           2.0693   -0.0715   27.8836 C.ar    1  UNL1        0.0760
     25 C           1.9655    1.0626   26.9073 C.ar    1  UNL1        0.0167
     26 C           0.7001    1.8630   26.8193 C.ar    1  UNL1        0.0013
     27 C          -0.4616    1.5294   27.7076 C.ar    1  UNL1        0.0001
     28 C          -0.3579    0.3954   28.6839 C.ar    1  UNL1        0.0013
     29 C           0.9076   -0.4051   28.7719 C.ar    1  UNL1        0.0167
     30 C           3.3545   -0.3608   31.5919 C.3     1  UNL1        0.2574
     31 O           3.8462    0.1908   30.2865 O.3     1  UNL1       -0.4292
     32 O           6.6754   -3.5559   26.2966 O.3     1  UNL1       -0.4698
     33 C           7.8832   -2.7508   26.6750 C.3     1  UNL1        0.2525
@<TRIPOS>BOND
     1    30    31    1
     2    31    21    1
     3    21    22    2
     4    21    23   am
     5    23    17    1
     6    17    18   am
     7    18    19    2
     8    18     1    1
     9     1     2   ar
    10     2    32    1
    11    32    33    1
    12     2     3   ar
    13     3    11    1
    14    11    12   ar
    15    12    13   ar
    16    13    14   ar
    17    14    15   ar
    18    15    16   ar
    19     3     4   ar
    20     4     5   ar
    21     5     6   ar
    22     6     7   ar
    23     7     8   ar
    24     8     9   ar
    25     9    10   ar
    26    23    24    1
    27    24    25   ar
    28    25    26   ar
    29    26    27   ar
    30    27    28   ar
    31    28    29   ar
    32    10     1   ar
    33    29    24   ar
    34    16    11   ar
    35    10     5   ar
    36    17    20    1
@<TRIPOS>MOLECULE
*****
 33 36 0 0 0
SMALL
GASTEIGER

@<TRIPOS>ATOM
      1 C           7.3507   -4.0298   25.4455 C.ar    1  UNL1        0.0917
      2 C           7.3063   -3.5723   26.8733 C.ar    1  UNL1        0.1606
      3 C           7.9562   -4.3958   27.9453 C.ar    1  UNL1        0.1152
      4 N           8.6506   -5.6770   27.5896 N.ar    1  UNL1       -0.2423
      5 C           8.6950   -6.1346   26.1618 C.ar    1  UNL1        0.0816
      6 C           9.3893   -7.4157   25.8061 C.ar    1  UNL1        0.0191
      7 C           9.4337   -7.8733   24.3783 C.ar    1  UNL1        0.0015
      8 C           8.7838   -7.0497   23.3062 C.ar    1  UNL1        0.0001
      9 C           8.0895   -5.7686   23.6619 C.ar    1  UNL1        0.0017
     10 C           8.0451   -5.3110   25.0897 C.ar    1  UNL1        0.0251
     11 C           7.9118   -3.9382   29.3732 C.ar    1  UNL1        0.0206
     12 C           6.8525   -4.4631   30.2964 C.ar    1  UNL1        0.0016
     13 C           6.8081   -4.0055   31.7241 C.ar    1  UNL1        0.0000
     14 C           7.8230   -3.0230   32.2287 C.ar    1  UNL1        0.0000
     15 C           8.8823   -2.4981   31.3056 C.ar    1  UNL1        0.0000
     16 C           8.9267   -2.9557   29.8778 C.ar    1  UNL1        0.0016
     17 N           5.2970   -3.5104   23.9414 N.am    1  UNL1       -0.2205
     18 C           6.7008   -3.2062   24.3734 C.2     1  UNL1        0.2650
     19 O           7.4548   -2.0785   23.7333 O.2     1  UNL1       -0.2685
     20 H           4.8021   -4.2506   24.3615 H       1  UNL1        0.1738
     21 C           3.8071   -1.5008   23.2403 C.2     1  UNL1        0.4250
     22 O           3.6170   -1.1382   24.6834 O.2     1  UNL1       -0.2242
     23 N           4.6471   -2.6868   22.8693 N.am    1  UNL1       -0.1519
     24 C           4.8371   -3.0494   21.4262 C.ar    1  UNL1        0.0760
     25 C           4.0250   -4.1536   20.8171 C.ar    1  UNL1        0.0167
     26 C           4.2150   -4.5162   19.3741 C.ar    1  UNL1        0.0013
     27 C           5.2172   -3.7746   18.5402 C.ar    1  UNL1        0.0001
     28 C           6.0294   -2.6703   19.1493 C.ar    1  UNL1        0.0013
     29 C           5.8393   -2.3077   20.5923 C.ar    1  UNL1        0.0167
     30 C           3.7716    0.6247   21.7465 C.3     1  UNL1        0.2574
     31 O           3.1572   -0.6772   22.1682 O.3     1  UNL1       -0.4292
     32 O           6.6120   -2.2911   27.2291 O.3     1  UNL1       -0.4698
     33 C           5.1708   -2.3094   27.6445 C.3     1  UNL1        0.2525
@<TRIPOS>BOND
     1    30    31    1
     2    31    21    1
     3    21    22    2
     4    21    23   am
     5    23    17    1
     6    17    18   am
     7    18    19    2
     8    18     1    1
     9     1     2   ar
    10     2    32    1
    11    32    33    1
    12     2     3   ar
    13     3    11    1
    14    11    12   ar
    15    12    13   ar
    16    13    14   ar
    17    14    15   ar
    18    15    16   ar
    19     3     4   ar
    20     4     5   ar
    21     5     6   ar
    22     6     7   ar
    23     7     8   ar
    24     8     9   ar
    25     9    10   ar
    26    23    24    1
    27    24    25   ar
    28    25    26   ar
    29    26    27   ar
    30    27    28   ar
    31    28    29   ar
    32    10     1   ar
    33    29    24   ar
    34    16    11   ar
    35    10     5   ar
    36    17    20    1
@<TRIPOS>MOLECULE
*****
 33 36 0 0 0
SMALL
GASTEIGER

@<TRIPOS>ATOM
      1 C          -7.5152  -16.6655   23.7513 C.ar    1  UNL1        0.0917
      2 C          -6.3506  -17.1691   22.9513 C.ar    1  UNL1        0.1606
      3 C          -4.9618  -17.0804   23.5109 C.ar    1  UNL1        0.1152
      4 N          -4.7375  -16.4881   24.8706 N.ar    1  UNL1       -0.2423
      5 C          -5.9021  -15.9844   25.6707 C.ar    1  UNL1        0.0816
      6 C          -5.6778  -15.3921   27.0304 C.ar    1  UNL1        0.0191
      7 C          -6.8424  -14.8885   27.8305 C.ar    1  UNL1        0.0015
      8 C          -8.2312  -14.9772   27.2708 C.ar    1  UNL1        0.0001
      9 C          -8.4555  -15.5695   25.9111 C.ar    1  UNL1        0.0017
     10 C          -7.2910  -16.0731   25.1111 C.ar    1  UNL1        0.0251
     11 C          -3.7972  -17.5841   22.7108 C.ar    1  UNL1        0.0206
     12 C          -2.8002  -16.6159   22.1464 C.ar    1  UNL1        0.0016
     13 C          -1.6357  -17.1195   21.3463 C.ar    1  UNL1        0.0000
     14 C          -1.4682  -18.5914   21.1106 C.ar    1  UNL1        0.0000
     15 C          -2.4652  -19.5596   21.6750 C.ar    1  UNL1        0.0000
     16 C          -3.6297  -19.0559   22.4751 C.ar    1  UNL1        0.0016
     17 N          -9.8622  -17.7794   23.7218 N.am    1  UNL1       -0.2205
     18 C          -8.9041  -16.7542   23.1917 C.2     1  UNL1        0.2650
     19 O          -9.3348  -15.8177   22.1019 O.2     1  UNL1       -0.2685
     20 H          -9.5795  -18.3940   24.4370 H       1  UNL1        0.1738
     21 C         -12.3751  -18.3677   24.0205 C.2     1  UNL1        0.4250
     22 O         -12.1102  -18.7787   25.4387 O.2     1  UNL1       -0.2242
     23 N         -11.2511  -17.8681   23.1621 N.am    1  UNL1       -0.1519
     24 C         -11.5159  -17.4571   21.7440 C.ar    1  UNL1        0.0760
     25 C         -12.3382  -16.2355   21.4583 C.ar    1  UNL1        0.0167
     26 C         -12.6030  -15.8245   20.0402 C.ar    1  UNL1        0.0013
     27 C         -12.0456  -16.6351   18.9079 C.ar    1  UNL1        0.0001
     28 C         -11.2233  -17.8566   19.1936 C.ar    1  UNL1        0.0013
     29 C         -10.9584  -18.2676   20.6117 C.ar    1  UNL1        0.0167
     30 C         -14.9476  -18.4143   24.3814 C.3     1  UNL1        0.2574
     31 O         -13.7639  -18.4565   23.4609 O.3     1  UNL1       -0.4292
     32 O          -6.5749  -17.7615   21.5915 O.3     1  UNL1       -0.4698
     33 C          -7.1040  -19.1589   21.4602 C.3     1  UNL1        0.2525
@<TRIPOS>BOND
     1    30    31    1
     2    31    21    1
     3    21    22    2
     4    21    23   am
     5    23    17    1
     6    17    18   am
     7    18    19    2
     8    18     1    1
     9     1     2   ar
    10     2    32    1
    11    32    33    1
    12     2     3   ar
    13     3    11    1
    14    11    12   ar
    15    12    13   ar
    16    13    14   ar
    17    14    15   ar
    18    15    16   ar
    19     3     4   ar
    20     4     5   ar
    21     5     6   ar
    22     6     7   ar
    23     7     8   ar
    24     8     9   ar
    25     9    10   ar
    26    23    24    1
    27    24    25   ar
    28    25    26   ar
    29    26    27   ar
    30    27    28   ar
    31    28    29   ar
    32    10     1   ar
    33    29    24   ar
    34    16    11   ar
    35    10     5   ar
    36    17    20    1
@<TRIPOS>MOLECULE
*****
 33 36 0 0 0
SMALL
GASTEIGER

@<TRIPOS>ATOM
      1 C          -7.0113  -17.0786   23.3126 C.ar    1  UNL1        0.0917
      2 C          -5.8220  -17.4751   22.4892 C.ar    1  UNL1        0.1606
      3 C          -4.4363  -17.1822   22.9834 C.ar    1  UNL1        0.1152
      4 N          -4.2400  -16.4928   24.3009 N.ar    1  UNL1       -0.2423
      5 C          -5.4295  -16.0962   25.1245 C.ar    1  UNL1        0.0816
      6 C          -5.2332  -15.4067   26.4420 C.ar    1  UNL1        0.0191
      7 C          -6.4225  -15.0101   27.2655 C.ar    1  UNL1        0.0015
      8 C          -7.8082  -15.3030   26.7713 C.ar    1  UNL1        0.0001
      9 C          -8.0045  -15.9925   25.4537 C.ar    1  UNL1        0.0017
     10 C          -6.8151  -16.3891   24.6303 C.ar    1  UNL1        0.0251
     11 C          -3.2469  -17.5788   22.1599 C.ar    1  UNL1        0.0206
     12 C          -2.3929  -16.5250   21.5197 C.ar    1  UNL1        0.0016
     13 C          -1.2035  -16.9216   20.6962 C.ar    1  UNL1        0.0000
     14 C          -0.8682  -18.3721   20.5129 C.ar    1  UNL1        0.0000
     15 C          -1.7223  -19.4260   21.1531 C.ar    1  UNL1        0.0000
     16 C          -2.9116  -19.0294   21.9766 C.ar    1  UNL1        0.0016
     17 N          -9.3993  -16.2624   22.6950 N.am    1  UNL1       -0.2205
     18 C          -8.3970  -17.3715   22.8185 C.2     1  UNL1        0.2650
     19 O          -8.7803  -18.7735   22.4478 O.2     1  UNL1       -0.2685
     20 H          -9.1477  -15.3422   22.9383 H       1  UNL1        0.1738
     21 C         -11.1956  -16.1286   20.8227 C.2     1  UNL1        0.4250
     22 O         -10.2205  -15.4089   19.9387 O.2     1  UNL1       -0.2242
     23 N         -10.7849  -16.5553   22.2009 N.am    1  UNL1       -0.1519
     24 C         -11.7600  -17.2749   23.0849 C.ar    1  UNL1        0.0760
     25 C         -11.2619  -18.2248   24.1335 C.ar    1  UNL1        0.0167
     26 C         -12.2369  -18.9444   25.0176 C.ar    1  UNL1        0.0013
     27 C         -13.7099  -18.7142   24.8530 C.ar    1  UNL1        0.0001
     28 C         -14.2080  -17.7643   23.8043 C.ar    1  UNL1        0.0013
     29 C         -13.2330  -17.0446   22.9203 C.ar    1  UNL1        0.0167
     30 C         -13.1835  -15.5803   19.2424 C.3     1  UNL1        0.2574
     31 O         -12.5812  -16.4215   20.3286 O.3     1  UNL1       -0.4292
     32 O          -6.0182  -18.1646   21.1715 O.3     1  UNL1       -0.4698
     33 C          -6.0754  -19.6623   21.1100 C.3     1  UNL1        0.2525
@<TRIPOS>BOND
     1    30    31    1
     2    31    21    1
     3    21    22    2
     4    21    23   am
     5    23    17    1
     6    17    18   am
     7    18    19    2
     8    18     1    1
     9     1     2   ar
    10     2    32    1
    11    32    33    1
    12     2     3   ar
    13     3    11    1
    14    11    12   ar
    15    12    13   ar
    16    13    14   ar
    17    14    15   ar
    18    15    16   ar
    19     3     4   ar
    20     4     5   ar
    21     5     6   ar
    22     6     7   ar
    23     7     8   ar
    24     8     9   ar
    25     9    10   ar
    26    23    24    1
    27    24    25   ar
    28    25    26   ar
    29    26    27   ar
    30    27    28   ar
    31    28    29   ar
    32    10     1   ar
    33    29    24   ar
    34    16    11   ar
    35    10     5   ar
    36    17    20    1
@<TRIPOS>MOLECULE
*****
 33 36 0 0 0
SMALL
GASTEIGER

@<TRIPOS>ATOM
      1 C           4.3733   -1.2048   23.8987 C.ar    1  UNL1        0.0917
      2 C           3.5558   -0.2138   24.6729 C.ar    1  UNL1        0.1606
      3 C           2.3620    0.4340   24.0363 C.ar    1  UNL1        0.1152
      4 N           1.9858    0.0907   22.6254 N.ar    1  UNL1       -0.2423
      5 C           2.8034   -0.9003   21.8511 C.ar    1  UNL1        0.0816
      6 C           2.4272   -1.2435   20.4402 C.ar    1  UNL1        0.0191
      7 C           3.2447   -2.2345   19.6660 C.ar    1  UNL1        0.0015
      8 C           4.4385   -2.8823   20.3026 C.ar    1  UNL1        0.0001
      9 C           4.8147   -2.5391   21.7135 C.ar    1  UNL1        0.0017
     10 C           3.9971   -1.5481   22.4877 C.ar    1  UNL1        0.0251
     11 C           1.5445    1.4250   24.8106 C.ar    1  UNL1        0.0206
     12 C           2.1033    2.7833   25.1152 C.ar    1  UNL1        0.0016
     13 C           1.2857    3.7742   25.8894 C.ar    1  UNL1        0.0000
     14 C          -0.0907    3.4069   26.3591 C.ar    1  UNL1        0.0000
     15 C          -0.6495    2.0487   26.0546 C.ar    1  UNL1        0.0000
     16 C           0.1681    1.0577   25.2803 C.ar    1  UNL1        0.0016
     17 N           5.3779   -2.8844   25.6075 N.am    1  UNL1       -0.2205
     18 C           5.5671   -1.8526   24.5353 C.2     1  UNL1        0.2650
     19 O           6.9502   -1.4685   24.0998 O.2     1  UNL1       -0.2685
     20 H           4.4701   -3.1364   25.8933 H       1  UNL1        0.1738
     21 C           7.2948   -2.8389   27.3605 C.2     1  UNL1        0.4250
     22 O           6.8243   -1.4978   27.8403 O.2     1  UNL1       -0.2242
     23 N           6.5716   -3.5321   26.2441 N.am    1  UNL1       -0.1519
     24 C           7.0422   -4.8732   25.7643 C.ar    1  UNL1        0.0760
     25 C           7.7566   -4.9914   24.4507 C.ar    1  UNL1        0.0167
     26 C           8.2271   -6.3324   23.9708 C.ar    1  UNL1        0.0013
     27 C           7.9833   -7.5552   24.8047 C.ar    1  UNL1        0.0001
     28 C           7.2689   -7.4370   26.1183 C.ar    1  UNL1        0.0013
     29 C           6.7984   -6.0960   26.5981 C.ar    1  UNL1        0.0167
     30 C           8.3846   -4.0541   29.3818 C.3     1  UNL1        0.2574
     31 O           8.4886   -3.4867   27.9971 O.3     1  UNL1       -0.4292
     32 O           3.9320    0.1295   26.0839 O.3     1  UNL1       -0.4698
     33 C           3.2686   -0.5756   27.2296 C.3     1  UNL1        0.2525
@<TRIPOS>BOND
     1    30    31    1
     2    31    21    1
     3    21    22    2
     4    21    23   am
     5    23    17    1
     6    17    18   am
     7    18    19    2
     8    18     1    1
     9     1     2   ar
    10     2    32    1
    11    32    33    1
    12     2     3   ar
    13     3    11    1
    14    11    12   ar
    15    12    13   ar
    16    13    14   ar
    17    14    15   ar
    18    15    16   ar
    19     3     4   ar
    20     4     5   ar
    21     5     6   ar
    22     6     7   ar
    23     7     8   ar
    24     8     9   ar
    25     9    10   ar
    26    23    24    1
    27    24    25   ar
    28    25    26   ar
    29    26    27   ar
    30    27    28   ar
    31    28    29   ar
    32    10     1   ar
    33    29    24   ar
    34    16    11   ar
    35    10     5   ar
    36    17    20    1
@<TRIPOS>MOLECULE
*****
 33 36 0 0 0
SMALL
GASTEIGER

@<TRIPOS>ATOM
      1 C           3.9650    0.7044   33.4311 C.ar    1  UNL1        0.0917
      2 C           5.0236   -0.2996   33.0829 C.ar    1  UNL1        0.1606
      3 C           4.9917   -0.9926   31.7530 C.ar    1  UNL1        0.1152
      4 N           3.9011   -0.6817   30.7713 N.ar    1  UNL1       -0.2423
      5 C           2.8423    0.3223   31.1194 C.ar    1  UNL1        0.0816
      6 C           1.7517    0.6332   30.1377 C.ar    1  UNL1        0.0191
      7 C           0.6931    1.6372   30.4859 C.ar    1  UNL1        0.0015
      8 C           0.7250    2.3302   31.8158 C.ar    1  UNL1        0.0001
      9 C           1.8156    2.0193   32.7975 C.ar    1  UNL1        0.0017
     10 C           2.8743    1.0153   32.4494 C.ar    1  UNL1        0.0251
     11 C           6.0504   -1.9966   31.4049 C.ar    1  UNL1        0.0206
     12 C           6.0755   -3.3293   32.0928 C.ar    1  UNL1        0.0016
     13 C           7.1342   -4.3332   31.7446 C.ar    1  UNL1        0.0000
     14 C           8.1678   -4.0045   30.7085 C.ar    1  UNL1        0.0000
     15 C           8.1427   -2.6718   30.0206 C.ar    1  UNL1        0.0000
     16 C           7.0840   -1.6679   30.3687 C.ar    1  UNL1        0.0016
     17 N           3.9927    0.5923   36.0266 N.am    1  UNL1       -0.2205
     18 C           3.9969    1.3974   34.7610 C.2     1  UNL1        0.2650
     19 O           4.0332    2.8956   34.8253 O.2     1  UNL1       -0.2685
     20 H           3.9689   -0.3910   35.9844 H       1  UNL1        0.1738
     21 C           5.3386    1.6553   37.9780 C.2     1  UNL1        0.4250
     22 O           6.6208    1.3324   37.2696 O.2     1  UNL1       -0.2242
     23 N           4.0246    1.2853   37.3565 N.am    1  UNL1       -0.1519
     24 C           2.7424    1.6083   38.0649 C.ar    1  UNL1        0.0760
     25 C           2.0899    2.9437   37.8630 C.ar    1  UNL1        0.0167
     26 C           0.8077    3.2667   38.5714 C.ar    1  UNL1        0.0013
     27 C           0.1782    2.2543   39.4816 C.ar    1  UNL1        0.0001
     28 C           0.8308    0.9189   39.6835 C.ar    1  UNL1        0.0013
     29 C           2.1129    0.5959   38.9752 C.ar    1  UNL1        0.0167
     30 C           5.4542    3.8447   39.3721 C.3     1  UNL1        0.2574
     31 O           5.3706    2.3484   39.3080 O.3     1  UNL1       -0.4292
     32 O           6.1143   -0.6106   34.0647 O.3     1  UNL1       -0.4698
     33 C           7.4134    0.1370   34.0042 C.3     1  UNL1        0.2525
@<TRIPOS>BOND
     1    30    31    1
     2    31    21    1
     3    21    22    2
     4    21    23   am
     5    23    17    1
     6    17    18   am
     7    18    19    2
     8    18     1    1
     9     1     2   ar
    10     2    32    1
    11    32    33    1
    12     2     3   ar
    13     3    11    1
    14    11    12   ar
    15    12    13   ar
    16    13    14   ar
    17    14    15   ar
    18    15    16   ar
    19     3     4   ar
    20     4     5   ar
    21     5     6   ar
    22     6     7   ar
    23     7     8   ar
    24     8     9   ar
    25     9    10   ar
    26    23    24    1
    27    24    25   ar
    28    25    26   ar
    29    26    27   ar
    30    27    28   ar
    31    28    29   ar
    32    10     1   ar
    33    29    24   ar
    34    16    11   ar
    35    10     5   ar
    36    17    20    1
@<TRIPOS>MOLECULE
*****
 33 36 0 0 0
SMALL
GASTEIGER

@<TRIPOS>ATOM
      1 C           6.1749   -2.9962   24.9926 C.ar    1  UNL1        0.0917
      2 C           5.8516   -2.7242   23.5534 C.ar    1  UNL1        0.1606
      3 C           6.2490   -3.7111   22.4960 C.ar    1  UNL1        0.1152
      4 N           6.9697   -4.9700   22.8778 N.ar    1  UNL1       -0.2423
      5 C           7.2931   -5.2419   24.3171 C.ar    1  UNL1        0.0816
      6 C           8.0138   -6.5008   24.6989 C.ar    1  UNL1        0.0191
      7 C           8.3371   -6.7727   26.1382 C.ar    1  UNL1        0.0015
      8 C           7.9397   -5.7858   27.1956 C.ar    1  UNL1        0.0001
      9 C           7.2190   -4.5270   26.8138 C.ar    1  UNL1        0.0017
     10 C           6.8957   -4.2551   25.3745 C.ar    1  UNL1        0.0251
     11 C           5.9256   -3.4391   21.0567 C.ar    1  UNL1        0.0206
     12 C           4.6150   -3.8912   20.4840 C.ar    1  UNL1        0.0016
     13 C           4.2917   -3.6192   19.0448 C.ar    1  UNL1        0.0000
     14 C           5.2790   -2.8951   18.1782 C.ar    1  UNL1        0.0000
     15 C           6.5896   -2.4431   18.7508 C.ar    1  UNL1        0.0000
     16 C           6.9129   -2.7151   20.1900 C.ar    1  UNL1        0.0016
     17 N           4.5893   -2.2836   26.9234 N.am    1  UNL1       -0.2205
     18 C           5.7775   -2.0093   26.0500 C.2     1  UNL1        0.2650
     19 O           6.5684   -0.7480   26.2340 O.2     1  UNL1       -0.2685
     20 H           4.0702   -3.1114   26.8026 H       1  UNL1        0.1738
     21 C           4.9630   -1.2224   29.2652 C.2     1  UNL1        0.4250
     22 O           6.1316   -2.1350   29.4923 O.2     1  UNL1       -0.2242
     23 N           4.1918   -1.2967   27.9808 N.am    1  UNL1       -0.1519
     24 C           3.0232   -0.3841   27.7537 C.ar    1  UNL1        0.0760
     25 C           3.0797    0.6513   26.6698 C.ar    1  UNL1        0.0167
     26 C           1.9111    1.5639   26.4427 C.ar    1  UNL1        0.0013
     27 C           0.6861    1.4411   27.2996 C.ar    1  UNL1        0.0001
     28 C           0.6296    0.4058   28.3835 C.ar    1  UNL1        0.0013
     29 C           1.7982   -0.5068   28.6106 C.ar    1  UNL1        0.0167
     30 C           3.9402   -0.7150   31.5990 C.3     1  UNL1        0.2574
     31 O           4.5656   -0.2355   30.3226 O.3     1  UNL1       -0.4292
     32 O           5.1308   -1.4654   23.1715 O.3     1  UNL1       -0.4698
     33 C           3.6313   -1.4278   23.1796 C.3     1  UNL1        0.2525
@<TRIPOS>BOND
     1    30    31    1
     2    31    21    1
     3    21    22    2
     4    21    23   am
     5    23    17    1
     6    17    18   am
     7    18    19    2
     8    18     1    1
     9     1     2   ar
    10     2    32    1
    11    32    33    1
    12     2     3   ar
    13     3    11    1
    14    11    12   ar
    15    12    13   ar
    16    13    14   ar
    17    14    15   ar
    18    15    16   ar
    19     3     4   ar
    20     4     5   ar
    21     5     6   ar
    22     6     7   ar
    23     7     8   ar
    24     8     9   ar
    25     9    10   ar
    26    23    24    1
    27    24    25   ar
    28    25    26   ar
    29    26    27   ar
    30    27    28   ar
    31    28    29   ar
    32    10     1   ar
    33    29    24   ar
    34    16    11   ar
    35    10     5   ar
    36    17    20    1
@<TRIPOS>MOLECULE
*****
 33 36 0 0 0
SMALL
GASTEIGER

@<TRIPOS>ATOM
      1 C           7.0648   -3.6972   25.1777 C.ar    1  UNL1        0.0917
      2 C           6.5734   -3.2333   23.8386 C.ar    1  UNL1        0.1606
      3 C           6.7574   -4.1023   22.6299 C.ar    1  UNL1        0.1152
      4 N           7.4328   -5.4352   22.7603 N.ar    1  UNL1       -0.2423
      5 C           7.9242   -5.8992   24.0995 C.ar    1  UNL1        0.0816
      6 C           8.5996   -7.2322   24.2299 C.ar    1  UNL1        0.0191
      7 C           9.0910   -7.6961   25.5690 C.ar    1  UNL1        0.0015
      8 C           8.9070   -6.8270   26.7777 C.ar    1  UNL1        0.0001
      9 C           8.2316   -5.4941   26.6473 C.ar    1  UNL1        0.0017
     10 C           7.7402   -5.0302   25.3082 C.ar    1  UNL1        0.0251
     11 C           6.2659   -3.6383   21.2907 C.ar    1  UNL1        0.0206
     12 C           7.2090   -2.9664   20.3373 C.ar    1  UNL1        0.0016
     13 C           6.7176   -2.5025   18.9983 C.ar    1  UNL1        0.0000
     14 C           5.2830   -2.7105   18.6126 C.ar    1  UNL1        0.0000
     15 C           4.3399   -3.3824   19.5660 C.ar    1  UNL1        0.0000
     16 C           4.8314   -3.8463   20.9051 C.ar    1  UNL1        0.0016
     17 N           5.8098   -3.1505   27.3859 N.am    1  UNL1       -0.2205
     18 C           6.8808   -2.8282   26.3864 C.2     1  UNL1        0.2650
     19 O           7.7678   -1.6367   26.5956 O.2     1  UNL1       -0.2685
     20 H           5.2276   -3.9325   27.2486 H       1  UNL1        0.1738
     21 C           4.5209   -1.2675   28.6281 C.2     1  UNL1        0.4250
     22 O           3.6000   -1.1226   27.4529 O.2     1  UNL1       -0.2242
     23 N           5.6257   -2.2815   28.5946 N.am    1  UNL1       -0.1519
     24 C           6.5467   -2.4265   29.7698 C.ar    1  UNL1        0.0760
     25 C           7.5979   -1.3890   30.0312 C.ar    1  UNL1        0.0167
     26 C           8.5188   -1.5339   31.2064 C.ar    1  UNL1        0.0013
     27 C           8.3884   -2.7163   32.1200 C.ar    1  UNL1        0.0001
     28 C           7.3371   -3.7538   31.8585 C.ar    1  UNL1        0.0013
     29 C           6.4162   -3.6089   30.6834 C.ar    1  UNL1        0.0167
     30 C           3.2134   -0.6712   30.7926 C.3     1  UNL1        0.2574
     31 O           4.3369   -0.3985   29.8368 O.3     1  UNL1       -0.4292
     32 O           5.8979   -1.9003   23.7081 O.3     1  UNL1       -0.4698
     33 C           4.4302   -1.7724   23.9901 C.3     1  UNL1        0.2525
@<TRIPOS>BOND
     1    30    31    1
     2    31    21    1
     3    21    22    2
     4    21    23   am
     5    23    17    1
     6    17    18   am
     7    18    19    2
     8    18     1    1
     9     1     2   ar
    10     2    32    1
    11    32    33    1
    12     2     3   ar
    13     3    11    1
    14    11    12   ar
    15    12    13   ar
    16    13    14   ar
    17    14    15   ar
    18    15    16   ar
    19     3     4   ar
    20     4     5   ar
    21     5     6   ar
    22     6     7   ar
    23     7     8   ar
    24     8     9   ar
    25     9    10   ar
    26    23    24    1
    27    24    25   ar
    28    25    26   ar
    29    26    27   ar
    30    27    28   ar
    31    28    29   ar
    32    10     1   ar
    33    29    24   ar
    34    16    11   ar
    35    10     5   ar
    36    17    20    1
@<TRIPOS>MOLECULE
*****
 33 36 0 0 0
SMALL
GASTEIGER

@<TRIPOS>ATOM
      1 C           1.6765    1.1372   21.8817 C.ar    1  UNL1        0.0917
      2 C           2.3415    0.2648   20.8587 C.ar    1  UNL1        0.1606
      3 C           3.2952   -0.8081   21.2938 C.ar    1  UNL1        0.1152
      4 N           3.5839   -1.0086   22.7520 N.ar    1  UNL1       -0.2423
      5 C           2.9189   -0.1362   23.7751 C.ar    1  UNL1        0.0816
      6 C           3.2076   -0.3367   25.2333 C.ar    1  UNL1        0.0191
      7 C           2.5426    0.5357   26.2564 C.ar    1  UNL1        0.0015
      8 C           1.5889    1.6086   25.8212 C.ar    1  UNL1        0.0001
      9 C           1.3003    1.8091   24.3630 C.ar    1  UNL1        0.0017
     10 C           1.9652    0.9367   23.3400 C.ar    1  UNL1        0.0251
     11 C           3.9602   -1.6805   20.2707 C.ar    1  UNL1        0.0206
     12 C           3.3322   -2.9837   19.8742 C.ar    1  UNL1        0.0016
     13 C           3.9972   -3.8561   18.8511 C.ar    1  UNL1        0.0000
     14 C           5.2902   -3.4252   18.2245 C.ar    1  UNL1        0.0000
     15 C           5.9181   -2.1219   18.6209 C.ar    1  UNL1        0.0000
     16 C           5.2531   -1.2496   19.6440 C.ar    1  UNL1        0.0016
     17 N          -0.6088    1.8390   20.8645 N.am    1  UNL1       -0.2205
     18 C           0.7229    2.2102   21.4466 C.2     1  UNL1        0.2650
     19 O           1.1009    3.6543   21.5935 O.2     1  UNL1       -0.2685
     20 H          -0.8569    0.8911   20.7680 H       1  UNL1        0.1738
     21 C          -1.4184    3.5389   19.0743 C.2     1  UNL1        0.4250
     22 O          -0.3207    3.0930   18.1544 O.2     1  UNL1       -0.2242
     23 N          -1.5625    2.9119   20.4293 N.am    1  UNL1       -0.1519
     24 C          -2.6602    3.3578   21.3493 C.ar    1  UNL1        0.0760
     25 C          -2.3252    4.0606   22.6313 C.ar    1  UNL1        0.0167
     26 C          -3.4228    4.5065   23.5512 C.ar    1  UNL1        0.0013
     27 C          -4.8555    4.2495   23.1891 C.ar    1  UNL1        0.0001
     28 C          -5.1906    3.5467   21.9070 C.ar    1  UNL1        0.0013
     29 C          -4.0929    3.1008   20.9871 C.ar    1  UNL1        0.0167
     30 C          -3.3728    4.3321   17.5573 C.3     1  UNL1        0.2574
     31 O          -2.3721    4.6118   18.6392 O.3     1  UNL1       -0.4292
     32 O           2.0528    0.4653   19.4004 O.3     1  UNL1       -0.4698
     33 C           2.8610    1.4464   18.6038 C.3     1  UNL1        0.2525
@<TRIPOS>BOND
     1    30    31    1
     2    31    21    1
     3    21    22    2
     4    21    23   am
     5    23    17    1
     6    17    18   am
     7    18    19    2
     8    18     1    1
     9     1     2   ar
    10     2    32    1
    11    32    33    1
    12     2     3   ar
    13     3    11    1
    14    11    12   ar
    15    12    13   ar
    16    13    14   ar
    17    14    15   ar
    18    15    16   ar
    19     3     4   ar
    20     4     5   ar
    21     5     6   ar
    22     6     7   ar
    23     7     8   ar
    24     8     9   ar
    25     9    10   ar
    26    23    24    1
    27    24    25   ar
    28    25    26   ar
    29    26    27   ar
    30    27    28   ar
    31    28    29   ar
    32    10     1   ar
    33    29    24   ar
    34    16    11   ar
    35    10     5   ar
    36    17    20    1
