@<TRIPOS>MOLECULE
*****
 22 24 0 0 0
SMALL
GASTEIGER

@<TRIPOS>ATOM
      1 C          -6.9706  -18.6808   21.8916 C.ar    1  UNL1        0.1647
      2 N          -7.4551  -17.3156   21.5027 N.ar    1  UNL1       -0.2123
      3 C          -8.8241  -16.8604   21.9133 C.ar    1  UNL1        0.1284
      4 N          -9.3086  -15.4951   21.5244 N.pl3   1  UNL1       -0.3425
      5 C          -9.7086  -17.7705   22.7129 C.ar    1  UNL1        0.0489
      6 C         -11.0776  -17.3154   23.1236 C.ar    1  UNL1        0.0043
      7 C         -11.9621  -18.2255   23.9231 C.ar    1  UNL1        0.0002
      8 C         -11.4776  -19.5908   24.3120 C.ar    1  UNL1        0.0015
      9 C         -10.1086  -20.0459   23.9014 C.ar    1  UNL1        0.0192
     10 C          -9.2241  -19.1358   23.1018 C.ar    1  UNL1        0.0856
     11 N          -7.8550  -19.5910   22.6912 N.ar    1  UNL1       -0.2264
     12 H          -8.7280  -14.8978   20.9996 H       1  UNL1        0.1437
     13 H         -10.2071  -15.1964   21.7939 H       1  UNL1        0.1437
     14 N          -4.5406  -17.4481   23.1469 N.pl3   1  UNL1       -0.3569
     15 C          -4.3866  -18.5196   22.1086 C.ar    1  UNL1        0.0445
     16 C          -3.0176  -18.9748   21.6979 C.ar    1  UNL1        0.0142
     17 C          -2.8636  -20.0463   20.6596 C.ar    1  UNL1        0.0013
     18 C          -4.0785  -20.6626   20.0319 C.ar    1  UNL1        0.0002
     19 C          -5.4475  -20.2075   20.4426 C.ar    1  UNL1        0.0043
     20 C          -5.6015  -19.1360   21.4809 C.ar    1  UNL1        0.0487
     21 H          -3.7432  -17.0436   23.5589 H       1  UNL1        0.1424
     22 H          -5.4391  -17.1494   23.4165 H       1  UNL1        0.1424
@<TRIPOS>BOND
     1    14    15    1
     2    15    16   ar
     3    16    17   ar
     4    17    18   ar
     5    18    19   ar
     6    19    20   ar
     7    20     1    1
     8     1     2   ar
     9     2     3   ar
    10     3     4    1
    11     3     5   ar
    12     5     6   ar
    13     6     7   ar
    14     7     8   ar
    15     8     9   ar
    16     9    10   ar
    17    10    11   ar
    18    20    15   ar
    19    11     1   ar
    20    10     5   ar
    21    14    21    1
    22    14    22    1
    23     4    12    1
    24     4    13    1
@<TRIPOS>MOLECULE
*****
 22 24 0 0 0
SMALL
GASTEIGER

@<TRIPOS>ATOM
      1 C          -8.7951  -16.7353   23.7224 C.ar    1  UNL1        0.1647
      2 N         -10.2080  -16.2866   23.4930 N.ar    1  UNL1       -0.2123
      3 C         -10.9739  -16.7969   22.3086 C.ar    1  UNL1        0.1284
      4 N         -12.3867  -16.3482   22.0791 N.pl3   1  UNL1       -0.3425
      5 C         -10.3271  -17.7559   21.3535 C.ar    1  UNL1        0.0489
      6 C         -11.0930  -18.2661   20.1691 C.ar    1  UNL1        0.0043
      7 C         -10.4462  -19.2250   19.2142 C.ar    1  UNL1        0.0002
      8 C          -9.0334  -19.6737   19.4436 C.ar    1  UNL1        0.0015
      9 C          -8.2674  -19.1635   20.6280 C.ar    1  UNL1        0.0192
     10 C          -8.9143  -18.2045   21.5830 C.ar    1  UNL1        0.0856
     11 N          -8.1483  -17.6942   22.7675 N.ar    1  UNL1       -0.2264
     12 H         -12.8113  -15.7188   22.7059 H       1  UNL1        0.1437
     13 H         -12.8895  -16.6831   21.3017 H       1  UNL1        0.1437
     14 N          -6.2190  -15.2523   23.3173 N.pl3   1  UNL1       -0.3569
     15 C          -6.7411  -15.4835   24.7044 C.ar    1  UNL1        0.0445
     16 C          -5.9752  -14.9732   25.8888 C.ar    1  UNL1        0.0142
     17 C          -6.4974  -15.2044   27.2759 C.ar    1  UNL1        0.0013
     18 C          -7.7855  -15.9459   27.4784 C.ar    1  UNL1        0.0002
     19 C          -8.5514  -16.4562   26.2940 C.ar    1  UNL1        0.0043
     20 C          -8.0292  -16.2250   24.9069 C.ar    1  UNL1        0.0487
     21 H          -5.3735  -14.7657   23.1844 H       1  UNL1        0.1424
     22 H          -6.7216  -15.5872   22.5399 H       1  UNL1        0.1424
@<TRIPOS>BOND
     1    14    15    1
     2    15    16   ar
     3    16    17   ar
     4    17    18   ar
     5    18    19   ar
     6    19    20   ar
     7    20     1    1
     8     1     2   ar
     9     2     3   ar
    10     3     4    1
    11     3     5   ar
    12     5     6   ar
    13     6     7   ar
    14     7     8   ar
    15     8     9   ar
    16     9    10   ar
    17    10    11   ar
    18    20    15   ar
    19    11     1   ar
    20    10     5   ar
    21    14    21    1
    22    14    22    1
    23     4    12    1
    24     4    13    1
@<TRIPOS>MOLECULE
*****
 22 24 0 0 0
SMALL
GASTEIGER

@<TRIPOS>ATOM
      1 C          -7.8156  -19.1677   21.9996 C.ar    1  UNL1        0.1647
      2 N          -8.4183  -20.0026   23.0904 N.ar    1  UNL1       -0.2123
      3 C          -9.8046  -19.7077   23.5814 C.ar    1  UNL1        0.1284
      4 N         -10.4074  -20.5425   24.6721 N.pl3   1  UNL1       -0.3425
      5 C         -10.5882  -18.5778   22.9817 C.ar    1  UNL1        0.0489
      6 C         -11.9745  -18.2829   23.4727 C.ar    1  UNL1        0.0043
      7 C         -12.7580  -17.1532   22.8730 C.ar    1  UNL1        0.0002
      8 C         -12.1552  -16.3183   21.7823 C.ar    1  UNL1        0.0015
      9 C         -10.7690  -16.6132   21.2913 C.ar    1  UNL1        0.0192
     10 C          -9.9854  -17.7430   21.8910 C.ar    1  UNL1        0.0856
     11 N          -8.5991  -18.0380   21.3999 N.ar    1  UNL1       -0.2264
     12 H          -9.8932  -21.2840   25.0657 H       1  UNL1        0.1437
     13 H         -11.3173  -20.3489   24.9944 H       1  UNL1        0.1437
     14 N          -5.5076  -17.4895   22.9253 N.pl3   1  UNL1       -0.3569
     15 C          -5.2752  -18.6236   21.9715 C.ar    1  UNL1        0.0445
     16 C          -3.8889  -18.9186   21.4804 C.ar    1  UNL1        0.0142
     17 C          -3.6566  -20.0527   20.5266 C.ar    1  UNL1        0.0013
     18 C          -4.8106  -20.8918   20.0637 C.ar    1  UNL1        0.0002
     19 C          -6.1968  -20.5968   20.5547 C.ar    1  UNL1        0.0043
     20 C          -6.4292  -19.4627   21.5086 C.ar    1  UNL1        0.0487
     21 H          -4.7502  -16.9388   23.2291 H       1  UNL1        0.1424
     22 H          -6.4174  -17.2959   23.2476 H       1  UNL1        0.1424
@<TRIPOS>BOND
     1    14    15    1
     2    15    16   ar
     3    16    17   ar
     4    17    18   ar
     5    18    19   ar
     6    19    20   ar
     7    20     1    1
     8     1     2   ar
     9     2     3   ar
    10     3     4    1
    11     3     5   ar
    12     5     6   ar
    13     6     7   ar
    14     7     8   ar
    15     8     9   ar
    16     9    10   ar
    17    10    11   ar
    18    20    15   ar
    19    11     1   ar
    20    10     5   ar
    21    14    21    1
    22    14    22    1
    23     4    12    1
    24     4    13    1
@<TRIPOS>MOLECULE
*****
 22 24 0 0 0
SMALL
GASTEIGER

@<TRIPOS>ATOM
      1 C          -6.9100  -18.6389   22.0132 C.ar    1  UNL1        0.1647
      2 N          -7.3839  -17.2740   21.6102 N.ar    1  UNL1       -0.2123
      3 C          -8.7702  -16.8257   21.9671 C.ar    1  UNL1        0.1284
      4 N          -9.2441  -15.4608   21.5641 N.pl3   1  UNL1       -0.3425
      5 C          -9.6825  -17.7424   22.7271 C.ar    1  UNL1        0.0489
      6 C         -11.0687  -17.2942   23.0840 C.ar    1  UNL1        0.0043
      7 C         -11.9810  -18.2108   23.8439 C.ar    1  UNL1        0.0002
      8 C         -11.5070  -19.5757   24.2468 C.ar    1  UNL1        0.0015
      9 C         -10.1208  -20.0240   23.8899 C.ar    1  UNL1        0.0192
     10 C          -9.2085  -19.1073   23.1301 C.ar    1  UNL1        0.0856
     11 N          -7.8222  -19.5556   22.7731 N.ar    1  UNL1       -0.2264
     12 H          -8.6453  -14.8592   21.0654 H       1  UNL1        0.1437
     13 H         -10.1539  -15.1666   21.7984 H       1  UNL1        0.1437
     14 N          -6.5060  -20.7166   19.8871 N.pl3   1  UNL1       -0.3569
     15 C          -5.3217  -20.1259   20.5932 C.ar    1  UNL1        0.0445
     16 C          -3.9355  -20.5741   20.2364 C.ar    1  UNL1        0.0142
     17 C          -2.7512  -19.9835   20.9425 C.ar    1  UNL1        0.0013
     18 C          -2.9531  -18.9447   22.0055 C.ar    1  UNL1        0.0002
     19 C          -4.3394  -18.4965   22.3624 C.ar    1  UNL1        0.0043
     20 C          -5.5237  -19.0871   21.6563 C.ar    1  UNL1        0.0487
     21 H          -6.3735  -21.3984   19.1894 H       1  UNL1        0.1424
     22 H          -7.4159  -20.4224   20.1214 H       1  UNL1        0.1424
@<TRIPOS>BOND
     1    14    15    1
     2    15    16   ar
     3    16    17   ar
     4    17    18   ar
     5    18    19   ar
     6    19    20   ar
     7    20     1    1
     8     1     2   ar
     9     2     3   ar
    10     3     4    1
    11     3     5   ar
    12     5     6   ar
    13     6     7   ar
    14     7     8   ar
    15     8     9   ar
    16     9    10   ar
    17    10    11   ar
    18    20    15   ar
    19    11     1   ar
    20    10     5   ar
    21    14    21    1
    22    14    22    1
    23     4    12    1
    24     4    13    1
@<TRIPOS>MOLECULE
*****
 22 24 0 0 0
SMALL
GASTEIGER

@<TRIPOS>ATOM
      1 C          -8.3695  -17.0819   22.7434 C.ar    1  UNL1        0.1647
      2 N          -6.9198  -16.7807   22.5028 N.ar    1  UNL1       -0.2123
      3 C          -6.0884  -16.1752   23.5945 C.ar    1  UNL1        0.1284
      4 N          -4.6388  -15.8740   23.3540 N.pl3   1  UNL1       -0.3425
      5 C          -6.7065  -15.8708   24.9270 C.ar    1  UNL1        0.0489
      6 C          -5.8751  -15.2653   26.0187 C.ar    1  UNL1        0.0043
      7 C          -6.4932  -14.9609   27.3511 C.ar    1  UNL1        0.0002
      8 C          -7.9429  -15.2621   27.5917 C.ar    1  UNL1        0.0015
      9 C          -8.7743  -15.8676   26.4999 C.ar    1  UNL1        0.0192
     10 C          -8.1562  -16.1720   25.1676 C.ar    1  UNL1        0.0856
     11 N          -8.9876  -16.7775   24.0757 N.ar    1  UNL1       -0.2264
     12 H          -4.2330  -16.0737   22.4795 H       1  UNL1        0.1437
     13 H          -4.0930  -15.4765   24.0705 H       1  UNL1        0.1437
     14 N         -10.9408  -15.7762   21.9165 N.pl3   1  UNL1       -0.3569
     15 C         -10.4865  -17.0346   21.2381 C.ar    1  UNL1        0.0445
     16 C         -11.3179  -17.6402   20.1463 C.ar    1  UNL1        0.0142
     17 C         -10.8637  -18.8986   19.4680 C.ar    1  UNL1        0.0013
     18 C          -9.5781  -19.5514   19.8814 C.ar    1  UNL1        0.0002
     19 C          -8.7467  -18.9458   20.9732 C.ar    1  UNL1        0.0043
     20 C          -9.2009  -17.6874   21.6515 C.ar    1  UNL1        0.0487
     21 H         -11.7846  -15.3478   21.6451 H       1  UNL1        0.1424
     22 H         -10.3951  -15.3788   22.6330 H       1  UNL1        0.1424
@<TRIPOS>BOND
     1    14    15    1
     2    15    16   ar
     3    16    17   ar
     4    17    18   ar
     5    18    19   ar
     6    19    20   ar
     7    20     1    1
     8     1     2   ar
     9     2     3   ar
    10     3     4    1
    11     3     5   ar
    12     5     6   ar
    13     6     7   ar
    14     7     8   ar
    15     8     9   ar
    16     9    10   ar
    17    10    11   ar
    18    20    15   ar
    19    11     1   ar
    20    10     5   ar
    21    14    21    1
    22    14    22    1
    23     4    12    1
    24     4    13    1
@<TRIPOS>MOLECULE
*****
 22 24 0 0 0
SMALL
GASTEIGER

@<TRIPOS>ATOM
      1 C          -8.6542  -18.3571   21.7031 C.ar    1  UNL1        0.1647
      2 N          -9.4746  -17.6918   20.6380 N.ar    1  UNL1       -0.2123
      3 C         -10.9328  -17.4277   20.8699 C.ar    1  UNL1        0.1284
      4 N         -11.7532  -16.7624   19.8049 N.pl3   1  UNL1       -0.3425
      5 C         -11.5707  -17.8290   22.1669 C.ar    1  UNL1        0.0489
      6 C         -13.0289  -17.5650   22.3988 C.ar    1  UNL1        0.0043
      7 C         -13.6668  -17.9663   23.6957 C.ar    1  UNL1        0.0002
      8 C         -12.8464  -18.6316   24.7608 C.ar    1  UNL1        0.0015
      9 C         -11.3882  -18.8957   24.5289 C.ar    1  UNL1        0.0192
     10 C         -10.7503  -18.4944   23.2320 C.ar    1  UNL1        0.0856
     11 N          -9.2920  -18.7584   23.0000 N.ar    1  UNL1       -0.2264
     12 H         -11.3345  -16.4990   18.9536 H       1  UNL1        0.1437
     13 H         -12.7103  -16.5891   19.9571 H       1  UNL1        0.1437
     14 N          -7.7086  -19.2955   19.0151 N.pl3   1  UNL1       -0.3569
     15 C          -6.7231  -19.0903   20.1272 C.ar    1  UNL1        0.0445
     16 C          -5.2649  -19.3543   19.8953 C.ar    1  UNL1        0.0142
     17 C          -4.2794  -19.1491   21.0074 C.ar    1  UNL1        0.0013
     18 C          -4.7522  -18.6800   22.3514 C.ar    1  UNL1        0.0002
     19 C          -6.2104  -18.4160   22.5832 C.ar    1  UNL1        0.0043
     20 C          -7.1959  -18.6211   21.4711 C.ar    1  UNL1        0.0487
     21 H          -7.3983  -19.6034   18.1330 H       1  UNL1        0.1424
     22 H          -8.6657  -19.1222   19.1673 H       1  UNL1        0.1424
@<TRIPOS>BOND
     1    14    15    1
     2    15    16   ar
     3    16    17   ar
     4    17    18   ar
     5    18    19   ar
     6    19    20   ar
     7    20     1    1
     8     1     2   ar
     9     2     3   ar
    10     3     4    1
    11     3     5   ar
    12     5     6   ar
    13     6     7   ar
    14     7     8   ar
    15     8     9   ar
    16     9    10   ar
    17    10    11   ar
    18    20    15   ar
    19    11     1   ar
    20    10     5   ar
    21    14    21    1
    22    14    22    1
    23     4    12    1
    24     4    13    1
@<TRIPOS>MOLECULE
*****
 22 24 0 0 0
SMALL
GASTEIGER

@<TRIPOS>ATOM
      1 C          -8.1973  -18.0296   22.2491 C.ar    1  UNL1        0.1647
      2 N          -7.1784  -17.1873   22.9578 N.ar    1  UNL1       -0.2123
      3 C          -5.7163  -17.4721   22.7815 C.ar    1  UNL1        0.1284
      4 N          -4.6973  -16.6298   23.4902 N.pl3   1  UNL1       -0.3425
      5 C          -5.2730  -18.5994   21.8966 C.ar    1  UNL1        0.0489
      6 C          -3.8110  -18.8842   21.7204 C.ar    1  UNL1        0.0043
      7 C          -3.3678  -20.0114   20.8355 C.ar    1  UNL1        0.0002
      8 C          -4.3868  -20.8537   20.1268 C.ar    1  UNL1        0.0015
      9 C          -5.8489  -20.5688   20.3030 C.ar    1  UNL1        0.0192
     10 C          -6.2920  -19.4417   21.1879 C.ar    1  UNL1        0.0856
     11 N          -7.7542  -19.1568   21.3642 N.ar    1  UNL1       -0.2264
     12 H          -4.9882  -15.8900   24.0710 H       1  UNL1        0.1437
     13 H          -3.7377  -16.8168   23.3746 H       1  UNL1        0.1437
     14 N          -9.3315  -15.3998   21.3558 N.pl3   1  UNL1       -0.3569
     15 C         -10.2265  -16.4298   21.9787 C.ar    1  UNL1        0.0445
     16 C         -11.6886  -16.1450   22.1550 C.ar    1  UNL1        0.0142
     17 C         -12.5836  -17.1750   22.7779 C.ar    1  UNL1        0.0013
     18 C         -12.0166  -18.4899   23.2245 C.ar    1  UNL1        0.0002
     19 C         -10.5545  -18.7747   23.0482 C.ar    1  UNL1        0.0043
     20 C          -9.6595  -17.7447   22.4253 C.ar    1  UNL1        0.0487
     21 H          -9.7037  -14.5368   21.0627 H       1  UNL1        0.1424
     22 H          -8.3719  -15.5868   21.2402 H       1  UNL1        0.1424
@<TRIPOS>BOND
     1    14    15    1
     2    15    16   ar
     3    16    17   ar
     4    17    18   ar
     5    18    19   ar
     6    19    20   ar
     7    20     1    1
     8     1     2   ar
     9     2     3   ar
    10     3     4    1
    11     3     5   ar
    12     5     6   ar
    13     6     7   ar
    14     7     8   ar
    15     8     9   ar
    16     9    10   ar
    17    10    11   ar
    18    20    15   ar
    19    11     1   ar
    20    10     5   ar
    21    14    21    1
    22    14    22    1
    23     4    12    1
    24     4    13    1
@<TRIPOS>MOLECULE
*****
 22 24 0 0 0
SMALL
GASTEIGER

@<TRIPOS>ATOM
      1 C          -7.6196  -18.4792   22.1678 C.ar    1  UNL1        0.1647
      2 N          -7.3455  -19.6628   21.2880 N.ar    1  UNL1       -0.2123
      3 C          -5.9317  -20.0826   21.0146 C.ar    1  UNL1        0.1284
      4 N          -5.6576  -21.2661   20.1348 N.pl3   1  UNL1       -0.3425
      5 C          -4.7919  -19.3189   21.6210 C.ar    1  UNL1        0.0489
      6 C          -3.3781  -19.7387   21.3476 C.ar    1  UNL1        0.0043
      7 C          -2.2384  -18.9750   21.9541 C.ar    1  UNL1        0.0002
      8 C          -2.5125  -17.7915   22.8339 C.ar    1  UNL1        0.0015
      9 C          -3.9263  -17.3717   23.1073 C.ar    1  UNL1        0.0192
     10 C          -5.0660  -18.1353   22.5009 C.ar    1  UNL1        0.0856
     11 N          -6.4799  -17.7155   22.7743 N.ar    1  UNL1       -0.2264
     12 H          -6.4056  -21.7674   19.7368 H       1  UNL1        0.1437
     13 H          -4.7296  -21.5417   19.9553 H       1  UNL1        0.1437
     14 N          -8.4612  -15.6402   21.6863 N.pl3   1  UNL1       -0.3569
     15 C          -9.4543  -16.6399   22.2004 C.ar    1  UNL1        0.0445
     16 C         -10.8682  -16.2202   22.4738 C.ar    1  UNL1        0.0142
     17 C         -11.8612  -17.2199   22.9880 C.ar    1  UNL1        0.0013
     18 C         -11.4405  -18.6393   23.2288 C.ar    1  UNL1        0.0002
     19 C         -10.0266  -19.0591   22.9554 C.ar    1  UNL1        0.0043
     20 C          -9.0335  -18.0594   22.4412 C.ar    1  UNL1        0.0487
     21 H          -8.7374  -14.7086   21.5282 H       1  UNL1        0.1424
     22 H          -7.5333  -15.9157   21.5068 H       1  UNL1        0.1424
@<TRIPOS>BOND
     1    14    15    1
     2    15    16   ar
     3    16    17   ar
     4    17    18   ar
     5    18    19   ar
     6    19    20   ar
     7    20     1    1
     8     1     2   ar
     9     2     3   ar
    10     3     4    1
    11     3     5   ar
    12     5     6   ar
    13     6     7   ar
    14     7     8   ar
    15     8     9   ar
    16     9    10   ar
    17    10    11   ar
    18    20    15   ar
    19    11     1   ar
    20    10     5   ar
    21    14    21    1
    22    14    22    1
    23     4    12    1
    24     4    13    1
@<TRIPOS>MOLECULE
*****
 22 24 0 0 0
SMALL
GASTEIGER

@<TRIPOS>ATOM
      1 C          -8.9185  -17.1705   23.5517 C.ar    1  UNL1        0.1647
      2 N          -8.3240  -16.0439   24.3437 N.ar    1  UNL1       -0.2123
      3 C          -6.8359  -15.8606   24.3863 C.ar    1  UNL1        0.1284
      4 N          -6.2414  -14.7340   25.1784 N.pl3   1  UNL1       -0.3425
      5 C          -5.9422  -16.8038   23.6368 C.ar    1  UNL1        0.0489
      6 C          -4.4541  -16.6205   23.6794 C.ar    1  UNL1        0.0043
      7 C          -3.5605  -17.5637   22.9300 C.ar    1  UNL1        0.0002
      8 C          -4.1550  -18.6903   22.1379 C.ar    1  UNL1        0.0015
      9 C          -5.6431  -18.8736   22.0953 C.ar    1  UNL1        0.0192
     10 C          -6.5367  -17.9304   22.8448 C.ar    1  UNL1        0.0856
     11 N          -8.0249  -18.1138   22.8022 N.ar    1  UNL1       -0.2264
     12 H          -6.8279  -14.1149   25.6703 H       1  UNL1        0.1437
     13 H          -5.2647  -14.6136   25.2063 H       1  UNL1        0.1437
     14 N         -10.2168  -19.2946   25.2259 N.pl3   1  UNL1       -0.3569
     15 C         -11.0558  -18.4159   24.3462 C.ar    1  UNL1        0.0445
     16 C         -12.5439  -18.5992   24.3036 C.ar    1  UNL1        0.0142
     17 C         -13.3829  -17.7204   23.4239 C.ar    1  UNL1        0.0013
     18 C         -12.7339  -16.6584   22.5868 C.ar    1  UNL1        0.0002
     19 C         -11.2457  -16.4751   22.6294 C.ar    1  UNL1        0.0043
     20 C         -10.4067  -17.3539   23.5091 C.ar    1  UNL1        0.0487
     21 H         -10.6428  -19.9916   25.7753 H       1  UNL1        0.1424
     22 H          -9.2400  -19.1743   25.2538 H       1  UNL1        0.1424
@<TRIPOS>BOND
     1    14    15    1
     2    15    16   ar
     3    16    17   ar
     4    17    18   ar
     5    18    19   ar
     6    19    20   ar
     7    20     1    1
     8     1     2   ar
     9     2     3   ar
    10     3     4    1
    11     3     5   ar
    12     5     6   ar
    13     6     7   ar
    14     7     8   ar
    15     8     9   ar
    16     9    10   ar
    17    10    11   ar
    18    20    15   ar
    19    11     1   ar
    20    10     5   ar
    21    14    21    1
    22    14    22    1
    23     4    12    1
    24     4    13    1
