@<TRIPOS>MOLECULE
*****
 31 34 0 0 0
SMALL
GASTEIGER

@<TRIPOS>ATOM
      1 C           8.1159   -8.6932   27.5457 C.ar    1  UNL1        0.0789
      2 C           7.4240   -8.1054   26.3517 C.ar    1  UNL1        0.0178
      3 C           7.6286   -6.6611   26.0018 C.ar    1  UNL1        0.0216
      4 C           8.5251   -5.8047   26.8461 C.ar    1  UNL1        0.1294
      5 C           9.2170   -6.3925   28.0402 C.ar    1  UNL1        0.1172
      6 N           9.0124   -7.8367   28.3900 N.ar    1  UNL1       -0.2451
      7 S           8.7297   -4.3605   26.4963 S.O2    1  UNL1        0.0291
      8 O           9.5354   -4.7650   25.2975 O.2     1  UNL1       -0.1642
      9 O           7.9240   -3.9560   27.6951 O.2     1  UNL1       -0.1642
     10 C           8.9343   -2.9163   26.1465 C.ar    1  UNL1        0.1148
     11 C           9.1066   -1.8982   27.2346 C.ar    1  UNL1        0.0485
     12 C           9.3113   -0.4540   26.8848 C.ar    1  UNL1        0.1437
     13 F           9.4836    0.5640   27.9728 F       1  UNL1       -0.2041
     14 C           9.3435   -0.0278   25.4470 C.ar    1  UNL1        0.0593
     15 C           9.1712   -1.0459   24.3589 C.ar    1  UNL1        0.1437
     16 F           9.2034   -0.6197   22.9211 F       1  UNL1       -0.2041
     17 C           8.9666   -2.4901   24.7087 C.ar    1  UNL1        0.0485
     18 C           7.9113  -10.1374   27.8955 C.3     1  UNL1        0.1361
     19 O           7.4927  -13.0011   28.6855 O.2     1  UNL1       -0.2668
     20 C           6.3184  -12.1482   28.3068 C.2     1  UNL1        0.2809
     21 N           6.5276  -10.7164   27.9118 N.am    1  UNL1       -0.2931
     22 H           5.7568  -10.1567   27.6632 H       1  UNL1        0.1502
     23 C           4.9347  -12.7272   28.3230 C.ar    1  UNL1        0.1984
     24 C           3.6644  -11.9688   28.5699 C.ar    1  UNL1        0.0453
     25 C           2.5230  -12.9391   28.4947 C.ar    1  UNL1        0.0409
     26 C           1.0423  -12.7615   28.6555 C.ar    1  UNL1        0.0238
     27 C           0.1265  -13.9420   28.5228 C.ar    1  UNL1        0.0991
     28 N           0.6914  -15.3002   28.2294 N.ar    1  UNL1       -0.2391
     29 C           2.1721  -15.4779   28.0686 C.ar    1  UNL1        0.1362
     30 C           3.0879  -14.2974   28.2013 C.ar    1  UNL1        0.1646
     31 O           4.5784  -14.1664   28.0952 O.2     1  UNL1       -0.4473
@<TRIPOS>BOND
     1    19    20    2
     2    20    21   am
     3    21    18    1
     4    18     1    1
     5     1     2   ar
     6     2     3   ar
     7     3     4   ar
     8     4     7    1
     9     7     8    2
    10     7     9    2
    11     7    10    1
    12    10    11   ar
    13    11    12   ar
    14    12    13    1
    15    12    14   ar
    16    14    15   ar
    17    15    16    1
    18    15    17   ar
    19     4     5   ar
    20     5     6   ar
    21    20    23    1
    22    23    24   ar
    23    24    25   ar
    24    25    26   ar
    25    26    27   ar
    26    27    28   ar
    27    28    29   ar
    28    29    30   ar
    29    30    31   ar
    30     6     1   ar
    31    31    23   ar
    32    17    10   ar
    33    30    25   ar
    34    21    22    1
@<TRIPOS>MOLECULE
*****
 31 34 0 0 0
SMALL
GASTEIGER

@<TRIPOS>ATOM
      1 C           8.1203   -8.6860   27.5579 C.ar    1  UNL1        0.0789
      2 C           7.4481   -8.1163   26.3441 C.ar    1  UNL1        0.0178
      3 C           7.6484   -6.6742   25.9830 C.ar    1  UNL1        0.0216
      4 C           8.5210   -5.8018   26.8360 C.ar    1  UNL1        0.1294
      5 C           9.1933   -6.3715   28.0499 C.ar    1  UNL1        0.1172
      6 N           8.9929   -7.8136   28.4109 N.ar    1  UNL1       -0.2451
      7 S           8.7214   -4.3598   26.4750 S.O2    1  UNL1        0.0291
      8 O           7.9717   -3.9473   27.7070 O.2     1  UNL1       -0.1642
      9 O           9.4710   -4.7723   25.2430 O.2     1  UNL1       -0.1642
     10 C           8.9217   -2.9177   26.1141 C.ar    1  UNL1        0.1148
     11 C           8.9170   -2.4973   24.6741 C.ar    1  UNL1        0.0485
     12 C           9.1174   -1.0553   24.3132 C.ar    1  UNL1        0.1437
     13 F           9.1126   -0.6350   22.8733 F       1  UNL1       -0.2041
     14 C           9.3225   -0.0336   25.3921 C.ar    1  UNL1        0.0593
     15 C           9.3272   -0.4539   26.8319 C.ar    1  UNL1        0.1437
     16 F           9.5323    0.5678   27.9109 F       1  UNL1       -0.2041
     17 C           9.1268   -1.8960   27.1930 C.ar    1  UNL1        0.0485
     18 C           7.9200  -10.1281   27.9190 C.3     1  UNL1        0.1361
     19 O           7.5140  -12.9983   28.6914 O.2     1  UNL1       -0.2668
     20 C           6.3355  -12.1474   28.3211 C.2     1  UNL1        0.2809
     21 N           6.5385  -10.7123   27.9349 N.am    1  UNL1       -0.2931
     22 H           5.7650  -10.1538   27.6919 H       1  UNL1        0.1502
     23 C           4.9540  -12.7316   28.3371 C.ar    1  UNL1        0.1984
     24 C           3.6826  -11.9816   28.6037 C.ar    1  UNL1        0.0453
     25 C           2.5442  -12.9549   28.5206 C.ar    1  UNL1        0.0409
     26 C           1.0639  -12.7850   28.6934 C.ar    1  UNL1        0.0238
     27 C           0.1515  -13.9667   28.5482 C.ar    1  UNL1        0.0991
     28 N           0.7193  -15.3181   28.2302 N.ar    1  UNL1       -0.2391
     29 C           2.1996  -15.4880   28.0574 C.ar    1  UNL1        0.1362
     30 C           3.1120  -14.3063   28.2026 C.ar    1  UNL1        0.1646
     31 O           4.6014  -14.1683   28.0892 O.2     1  UNL1       -0.4473
@<TRIPOS>BOND
     1    19    20    2
     2    20    21   am
     3    21    18    1
     4    18     1    1
     5     1     2   ar
     6     2     3   ar
     7     3     4   ar
     8     4     7    1
     9     7     8    2
    10     7     9    2
    11     7    10    1
    12    10    11   ar
    13    11    12   ar
    14    12    13    1
    15    12    14   ar
    16    14    15   ar
    17    15    16    1
    18    15    17   ar
    19     4     5   ar
    20     5     6   ar
    21    20    23    1
    22    23    24   ar
    23    24    25   ar
    24    25    26   ar
    25    26    27   ar
    26    27    28   ar
    27    28    29   ar
    28    29    30   ar
    29    30    31   ar
    30     6     1   ar
    31    31    23   ar
    32    17    10   ar
    33    30    25   ar
    34    21    22    1
@<TRIPOS>MOLECULE
*****
 31 34 0 0 0
SMALL
GASTEIGER

@<TRIPOS>ATOM
      1 C          -0.3028    2.8902   19.5959 C.ar    1  UNL1        0.0789
      2 C           0.8557    2.9801   18.6474 C.ar    1  UNL1        0.0178
      3 C           1.8013    1.8242   18.5067 C.ar    1  UNL1        0.0216
      4 C           1.5883    0.5784   19.3146 C.ar    1  UNL1        0.1294
      5 C           0.4297    0.4886   20.2632 C.ar    1  UNL1        0.1172
      6 N          -0.5158    1.6445   20.4038 N.ar    1  UNL1       -0.2451
      7 S           2.5339   -0.5775   19.1740 S.O2    1  UNL1        0.0291
      8 O           2.0362   -1.1424   20.4713 O.2     1  UNL1       -0.1642
      9 O           3.0315   -0.0125   17.8766 O.2     1  UNL1       -0.1642
     10 C           3.4794   -1.7334   19.0333 C.ar    1  UNL1        0.1148
     11 C           4.8379   -1.5224   18.4333 C.ar    1  UNL1        0.0485
     12 C           5.7835   -2.6783   18.2927 C.ar    1  UNL1        0.1437
     13 F           7.1419   -2.4672   17.6927 F       1  UNL1       -0.2041
     14 C           5.3705   -4.0452   18.7520 C.ar    1  UNL1        0.0593
     15 C           4.0121   -4.2562   19.3520 C.ar    1  UNL1        0.1437
     16 F           3.5991   -5.6232   19.8113 F       1  UNL1       -0.2041
     17 C           3.0665   -3.1003   19.4926 C.ar    1  UNL1        0.0485
     18 C          -1.2484    4.0462   19.7366 C.3     1  UNL1        0.1361
     19 O          -3.8261    2.8243   20.6652 O.2     1  UNL1       -0.2668
     20 C          -3.0929    3.7900   21.5483 C.2     1  UNL1        0.2809
     21 N          -1.8041    4.4009   21.0840 N.am    1  UNL1       -0.2931
     22 H          -1.3228    5.0347   21.6636 H       1  UNL1        0.1502
     23 C          -3.6485    4.1447   22.8957 C.ar    1  UNL1        0.1984
     24 C          -4.7864    5.0855   23.1603 C.ar    1  UNL1        0.0453
     25 C          -5.0050    5.1431   24.6432 C.ar    1  UNL1        0.0409
     26 C          -5.9876    5.9029   25.4841 C.ar    1  UNL1        0.0238
     27 C          -5.9674    5.7575   26.9769 C.ar    1  UNL1        0.0991
     28 N          -4.9646    4.8522   27.6287 N.ar    1  UNL1       -0.2391
     29 C          -3.9820    4.0924   26.7878 C.ar    1  UNL1        0.1362
     30 C          -4.0022    4.2379   25.2951 C.ar    1  UNL1        0.1646
     31 O          -3.1639    3.6208   24.2150 O.2     1  UNL1       -0.4473
@<TRIPOS>BOND
     1    19    20    2
     2    20    21   am
     3    21    18    1
     4    18     1    1
     5     1     2   ar
     6     2     3   ar
     7     3     4   ar
     8     4     7    1
     9     7     8    2
    10     7     9    2
    11     7    10    1
    12    10    11   ar
    13    11    12   ar
    14    12    13    1
    15    12    14   ar
    16    14    15   ar
    17    15    16    1
    18    15    17   ar
    19     4     5   ar
    20     5     6   ar
    21    20    23    1
    22    23    24   ar
    23    24    25   ar
    24    25    26   ar
    25    26    27   ar
    26    27    28   ar
    27    28    29   ar
    28    29    30   ar
    29    30    31   ar
    30     6     1   ar
    31    31    23   ar
    32    17    10   ar
    33    30    25   ar
    34    21    22    1
@<TRIPOS>MOLECULE
*****
 31 34 0 0 0
SMALL
GASTEIGER

@<TRIPOS>ATOM
      1 C          -0.5406    2.8470   19.5884 C.ar    1  UNL1        0.0789
      2 C           0.5153    2.9000   18.5244 C.ar    1  UNL1        0.0178
      3 C           1.5051    1.7805   18.3936 C.ar    1  UNL1        0.0216
      4 C           1.4389    0.6080   19.3269 C.ar    1  UNL1        0.1294
      5 C           0.3829    0.5551   20.3909 C.ar    1  UNL1        0.1172
      6 N          -0.6068    1.6746   20.5217 N.ar    1  UNL1       -0.2451
      7 S           2.4287   -0.5115   19.1961 S.O2    1  UNL1        0.0291
      8 O           3.0181    0.1510   17.9863 O.2     1  UNL1       -0.1642
      9 O           1.8392   -1.1739   20.4059 O.2     1  UNL1       -0.1642
     10 C           3.4184   -1.6309   19.0653 C.ar    1  UNL1        0.1148
     11 C           3.0553   -3.0110   19.5278 C.ar    1  UNL1        0.0485
     12 C           4.0450   -4.1304   19.3970 C.ar    1  UNL1        0.1437
     13 F           3.6818   -5.5104   19.8594 F       1  UNL1       -0.2041
     14 C           5.3979   -3.8700   18.8038 C.ar    1  UNL1        0.0593
     15 C           5.7610   -2.4901   18.3414 C.ar    1  UNL1        0.1437
     16 F           7.1139   -2.2296   17.7482 F       1  UNL1       -0.2041
     17 C           4.7713   -1.3705   18.4721 C.ar    1  UNL1        0.0485
     18 C          -1.5304    3.9665   19.7192 C.3     1  UNL1        0.1361
     19 O          -4.0925    2.7749   20.7269 O.2     1  UNL1       -0.2668
     20 C          -3.3360    3.7538   21.5751 C.2     1  UNL1        0.2809
     21 N          -2.0550    4.3496   21.0713 N.am    1  UNL1       -0.2931
     22 H          -1.5585    4.9922   21.6280 H       1  UNL1        0.1502
     23 C          -3.8606    4.1369   22.9272 C.ar    1  UNL1        0.1984
     24 C          -5.0653    4.9892   23.1965 C.ar    1  UNL1        0.0453
     25 C          -5.2219    5.1140   24.6831 C.ar    1  UNL1        0.0409
     26 C          -6.2301    5.8333   25.5292 C.ar    1  UNL1        0.0238
     27 C          -6.1305    5.7775   27.0248 C.ar    1  UNL1        0.0991
     28 N          -5.0226    5.0024   27.6743 N.ar    1  UNL1       -0.2391
     29 C          -4.0144    4.2831   26.8282 C.ar    1  UNL1        0.1362
     30 C          -4.1140    4.3389   25.3325 C.ar    1  UNL1        0.1646
     31 O          -3.2727    3.7350   24.2474 O.2     1  UNL1       -0.4473
@<TRIPOS>BOND
     1    19    20    2
     2    20    21   am
     3    21    18    1
     4    18     1    1
     5     1     2   ar
     6     2     3   ar
     7     3     4   ar
     8     4     7    1
     9     7     8    2
    10     7     9    2
    11     7    10    1
    12    10    11   ar
    13    11    12   ar
    14    12    13    1
    15    12    14   ar
    16    14    15   ar
    17    15    16    1
    18    15    17   ar
    19     4     5   ar
    20     5     6   ar
    21    20    23    1
    22    23    24   ar
    23    24    25   ar
    24    25    26   ar
    25    26    27   ar
    26    27    28   ar
    27    28    29   ar
    28    29    30   ar
    29    30    31   ar
    30     6     1   ar
    31    31    23   ar
    32    17    10   ar
    33    30    25   ar
    34    21    22    1
@<TRIPOS>MOLECULE
*****
 31 34 0 0 0
SMALL
GASTEIGER

@<TRIPOS>ATOM
      1 C           7.9411   -7.7439   26.2089 C.ar    1  UNL1        0.0789
      2 C           8.4500   -7.9558   24.8139 C.ar    1  UNL1        0.0178
      3 C           8.4407   -6.8220   23.8317 C.ar    1  UNL1        0.0216
      4 C           7.9224   -5.4763   24.2447 C.ar    1  UNL1        0.1294
      5 C           7.4135   -5.2644   25.6398 C.ar    1  UNL1        0.1172
      6 N           7.4229   -6.3982   26.6218 N.ar    1  UNL1       -0.2451
      7 S           7.9130   -4.3426   23.2626 S.O2    1  UNL1        0.0291
      8 O           7.5448   -5.2963   22.1651 O.2     1  UNL1       -0.1642
      9 O           8.2813   -3.3888   24.3602 O.2     1  UNL1       -0.1642
     10 C           7.9036   -3.2088   22.2806 C.ar    1  UNL1        0.1148
     11 C           8.1972   -1.8127   22.7440 C.ar    1  UNL1        0.0485
     12 C           8.1878   -0.6789   21.7620 C.ar    1  UNL1        0.1437
     13 F           8.4813    0.7171   22.2254 F       1  UNL1       -0.2041
     14 C           7.8849   -0.9412   20.3165 C.ar    1  UNL1        0.0593
     15 C           7.5914   -2.3373   19.8530 C.ar    1  UNL1        0.1437
     16 F           7.2885   -2.5996   18.4075 F       1  UNL1       -0.2041
     17 C           7.6007   -3.4711   20.8351 C.ar    1  UNL1        0.0485
     18 C           7.9505   -8.8777   27.1910 C.3     1  UNL1        0.1361
     19 O           8.1370  -11.7374   28.0781 O.2     1  UNL1       -0.2668
     20 C           6.7938  -11.1009   27.8760 C.2     1  UNL1        0.2809
     21 N           6.7006   -9.6711   27.4325 N.am    1  UNL1       -0.2931
     22 H           5.8191   -9.2533   27.2998 H       1  UNL1        0.1502
     23 C           5.5440  -11.8943   28.1175 C.ar    1  UNL1        0.1984
     24 C           5.1007  -13.0991   27.3416 C.ar    1  UNL1        0.0453
     25 C           3.8006  -13.5716   27.9218 C.ar    1  UNL1        0.0409
     26 C           2.8983  -14.7150   27.5637 C.ar    1  UNL1        0.0238
     27 C           1.6358  -14.9457   28.3401 C.ar    1  UNL1        0.0991
     28 N           1.2756  -14.0330   29.4746 N.ar    1  UNL1       -0.2391
     29 C           2.1780  -12.8895   29.8328 C.ar    1  UNL1        0.1362
     30 C           3.4405  -12.6588   29.0564 C.ar    1  UNL1        0.1646
     31 O           4.5179  -11.6222   29.1773 O.2     1  UNL1       -0.4473
@<TRIPOS>BOND
     1    19    20    2
     2    20    21   am
     3    21    18    1
     4    18     1    1
     5     1     2   ar
     6     2     3   ar
     7     3     4   ar
     8     4     7    1
     9     7     8    2
    10     7     9    2
    11     7    10    1
    12    10    11   ar
    13    11    12   ar
    14    12    13    1
    15    12    14   ar
    16    14    15   ar
    17    15    16    1
    18    15    17   ar
    19     4     5   ar
    20     5     6   ar
    21    20    23    1
    22    23    24   ar
    23    24    25   ar
    24    25    26   ar
    25    26    27   ar
    26    27    28   ar
    27    28    29   ar
    28    29    30   ar
    29    30    31   ar
    30     6     1   ar
    31    31    23   ar
    32    17    10   ar
    33    30    25   ar
    34    21    22    1
@<TRIPOS>MOLECULE
*****
 31 34 0 0 0
SMALL
GASTEIGER

@<TRIPOS>ATOM
      1 C           7.5034   -4.4959   26.8514 C.ar    1  UNL1        0.0789
      2 C           7.8770   -5.4927   25.7947 C.ar    1  UNL1        0.0178
      3 C           7.4324   -5.2853   24.3772 C.ar    1  UNL1        0.0216
      4 C           6.6142   -4.0810   24.0164 C.ar    1  UNL1        0.1294
      5 C           6.2405   -3.0842   25.0732 C.ar    1  UNL1        0.1172
      6 N           6.6851   -3.2916   26.4907 N.ar    1  UNL1       -0.2451
      7 S           6.1696   -3.8735   22.5990 S.O2    1  UNL1        0.0291
      8 O           4.9769   -3.1050   23.0856 O.2     1  UNL1       -0.1642
      9 O           7.3623   -4.6420   22.1124 O.2     1  UNL1       -0.1642
     10 C           5.7249   -3.6660   21.1815 C.ar    1  UNL1        0.1148
     11 C           4.3965   -4.1941   20.7272 C.ar    1  UNL1        0.0485
     12 C           3.9518   -3.9866   19.3098 C.ar    1  UNL1        0.1437
     13 F           2.6234   -4.5147   18.8555 F       1  UNL1       -0.2041
     14 C           4.8357   -3.2511   18.3465 C.ar    1  UNL1        0.0593
     15 C           6.1641   -2.7230   18.8008 C.ar    1  UNL1        0.1437
     16 F           7.0479   -1.9874   17.8375 F       1  UNL1       -0.2041
     17 C           6.6088   -2.9305   20.2183 C.ar    1  UNL1        0.0485
     18 C           7.9480   -4.7034   28.2690 C.3     1  UNL1        0.1361
     19 O           6.7626   -5.6144   30.8698 O.2     1  UNL1       -0.2668
     20 C           6.9959   -4.1534   30.6229 C.2     1  UNL1        0.2809
     21 N           7.5886   -3.6979   29.3225 N.am    1  UNL1       -0.2931
     22 H           7.7418   -2.7390   29.1604 H       1  UNL1        0.1502
     23 C           6.6365   -3.1479   31.6764 C.ar    1  UNL1        0.1984
     24 C           7.5485   -2.1005   32.2432 C.ar    1  UNL1        0.0453
     25 C           6.7777   -1.3185   33.2652 C.ar    1  UNL1        0.0409
     26 C           7.1606   -0.1657   34.1451 C.ar    1  UNL1        0.0238
     27 C           6.1552    0.4230   35.0898 C.ar    1  UNL1        0.0991
     28 N           4.7668   -0.1411   35.1546 N.ar    1  UNL1       -0.2391
     29 C           4.3839   -1.2939   34.2747 C.ar    1  UNL1        0.1362
     30 C           5.3893   -1.8826   33.3300 C.ar    1  UNL1        0.1646
     31 O           5.3021   -3.0132   32.3480 O.2     1  UNL1       -0.4473
@<TRIPOS>BOND
     1    19    20    2
     2    20    21   am
     3    21    18    1
     4    18     1    1
     5     1     2   ar
     6     2     3   ar
     7     3     4   ar
     8     4     7    1
     9     7     8    2
    10     7     9    2
    11     7    10    1
    12    10    11   ar
    13    11    12   ar
    14    12    13    1
    15    12    14   ar
    16    14    15   ar
    17    15    16    1
    18    15    17   ar
    19     4     5   ar
    20     5     6   ar
    21    20    23    1
    22    23    24   ar
    23    24    25   ar
    24    25    26   ar
    25    26    27   ar
    26    27    28   ar
    27    28    29   ar
    28    29    30   ar
    29    30    31   ar
    30     6     1   ar
    31    31    23   ar
    32    17    10   ar
    33    30    25   ar
    34    21    22    1
@<TRIPOS>MOLECULE
*****
 31 34 0 0 0
SMALL
GASTEIGER

@<TRIPOS>ATOM
      1 C           7.5723   -4.5945   26.7143 C.ar    1  UNL1        0.0789
      2 C           6.6694   -3.4402   26.3942 C.ar    1  UNL1        0.0178
      3 C           6.2071   -3.2180   24.9846 C.ar    1  UNL1        0.0216
      4 C           6.6478   -4.1500   23.8951 C.ar    1  UNL1        0.1294
      5 C           7.5507   -5.3043   24.2152 C.ar    1  UNL1        0.1172
      6 N           8.0130   -5.5265   25.6247 N.ar    1  UNL1       -0.2451
      7 S           6.1856   -3.9278   22.4855 S.O2    1  UNL1        0.0291
      8 O           7.4273   -4.5952   21.9731 O.2     1  UNL1       -0.1642
      9 O           4.9438   -3.2604   22.9979 O.2     1  UNL1       -0.1642
     10 C           5.7234   -3.7056   21.0759 C.ar    1  UNL1        0.1148
     11 C           6.5982   -2.9661   20.1075 C.ar    1  UNL1        0.0485
     12 C           6.1360   -2.7439   18.6979 C.ar    1  UNL1        0.1437
     13 F           7.0109   -2.0044   17.7296 F       1  UNL1       -0.2041
     14 C           4.7990   -3.2612   18.2567 C.ar    1  UNL1        0.0593
     15 C           3.9241   -4.0007   19.2250 C.ar    1  UNL1        0.1437
     16 F           2.5870   -4.5180   18.7838 F       1  UNL1       -0.2041
     17 C           4.3863   -4.2229   20.6347 C.ar    1  UNL1        0.0485
     18 C           8.0345   -4.8167   28.1239 C.3     1  UNL1        0.1361
     19 O           6.8279   -5.7516   30.7065 O.2     1  UNL1       -0.2668
     20 C           7.0839   -4.2905   30.4838 C.2     1  UNL1        0.2809
     21 N           7.6872   -3.8231   29.1925 N.am    1  UNL1       -0.2931
     22 H           7.8552   -2.8641   29.0464 H       1  UNL1        0.1502
     23 C           6.7366   -3.2969   31.5525 C.ar    1  UNL1        0.1984
     24 C           7.6868   -2.3396   32.2088 C.ar    1  UNL1        0.0453
     25 C           6.9156   -1.5371   33.2144 C.ar    1  UNL1        0.0409
     26 C           7.3282   -0.4459   34.1573 C.ar    1  UNL1        0.0238
     27 C           6.3140    0.1839   35.0653 C.ar    1  UNL1        0.0991
     28 N           4.8871   -0.2774   35.0305 N.ar    1  UNL1       -0.2391
     29 C           4.4744   -1.3685   34.0876 C.ar    1  UNL1        0.1362
     30 C           5.4887   -1.9984   33.1796 C.ar    1  UNL1        0.1646
     31 O           5.3781   -3.0860   32.1525 O.2     1  UNL1       -0.4473
@<TRIPOS>BOND
     1    19    20    2
     2    20    21   am
     3    21    18    1
     4    18     1    1
     5     1     2   ar
     6     2     3   ar
     7     3     4   ar
     8     4     7    1
     9     7     8    2
    10     7     9    2
    11     7    10    1
    12    10    11   ar
    13    11    12   ar
    14    12    13    1
    15    12    14   ar
    16    14    15   ar
    17    15    16    1
    18    15    17   ar
    19     4     5   ar
    20     5     6   ar
    21    20    23    1
    22    23    24   ar
    23    24    25   ar
    24    25    26   ar
    25    26    27   ar
    26    27    28   ar
    27    28    29   ar
    28    29    30   ar
    29    30    31   ar
    30     6     1   ar
    31    31    23   ar
    32    17    10   ar
    33    30    25   ar
    34    21    22    1
@<TRIPOS>MOLECULE
*****
 31 34 0 0 0
SMALL
GASTEIGER

@<TRIPOS>ATOM
      1 C           4.5839   -2.1308   19.0016 C.ar    1  UNL1        0.0789
      2 C           3.5132   -2.2109   20.0490 C.ar    1  UNL1        0.0178
      3 C           2.4366   -1.1678   20.1024 C.ar    1  UNL1        0.0216
      4 C           2.4308   -0.0445   19.1083 C.ar    1  UNL1        0.1294
      5 C           3.5015    0.0356   18.0608 C.ar    1  UNL1        0.1172
      6 N           4.5781   -1.0076   18.0075 N.ar    1  UNL1       -0.2451
      7 S           1.3542    0.9986   19.1616 S.O2    1  UNL1        0.0291
      8 O           0.5131    0.0874   20.0054 O.2     1  UNL1       -0.1642
      9 O           2.1954    1.9098   18.3178 O.2     1  UNL1       -0.1642
     10 C           0.2777    2.0417   19.2149 C.ar    1  UNL1        0.1148
     11 C           0.0704    2.9658   18.0516 C.ar    1  UNL1        0.0485
     12 C          -1.0062    4.0089   18.1049 C.ar    1  UNL1        0.1437
     13 F          -1.2134    4.9329   16.9417 F       1  UNL1       -0.2041
     14 C          -1.8755    4.1281   19.3215 C.ar    1  UNL1        0.0593
     15 C          -1.6682    3.2041   20.4848 C.ar    1  UNL1        0.1437
     16 F          -2.5375    3.3232   21.7014 F       1  UNL1       -0.2041
     17 C          -0.5916    2.1609   20.4315 C.ar    1  UNL1        0.0485
     18 C           5.6605   -3.1740   18.9482 C.3     1  UNL1        0.1361
     19 O           7.4614   -2.1390   21.1128 O.2     1  UNL1       -0.2668
     20 C           6.8467   -3.5017   21.2363 C.2     1  UNL1        0.2809
     21 N           5.9463   -4.0192   20.1540 N.am    1  UNL1       -0.2931
     22 H           5.5429   -4.9136   20.2351 H       1  UNL1        0.1502
     23 C           7.1325   -4.3469   22.4421 C.ar    1  UNL1        0.1984
     24 C           6.6830   -4.0627   23.8447 C.ar    1  UNL1        0.0453
     25 C           7.1906   -5.1649   24.7265 C.ar    1  UNL1        0.0409
     26 C           7.0565   -5.4141   26.1995 C.ar    1  UNL1        0.0238
     27 C           7.6856   -6.6287   26.8150 C.ar    1  UNL1        0.0991
     28 N           8.4489   -7.5941   25.9574 N.ar    1  UNL1       -0.2391
     29 C           8.5831   -7.3449   24.4844 C.ar    1  UNL1        0.1362
     30 C           7.9539   -6.1302   23.8689 C.ar    1  UNL1        0.1646
     31 O           7.9180   -5.6247   22.4571 O.2     1  UNL1       -0.4473
@<TRIPOS>BOND
     1    19    20    2
     2    20    21   am
     3    21    18    1
     4    18     1    1
     5     1     2   ar
     6     2     3   ar
     7     3     4   ar
     8     4     7    1
     9     7     8    2
    10     7     9    2
    11     7    10    1
    12    10    11   ar
    13    11    12   ar
    14    12    13    1
    15    12    14   ar
    16    14    15   ar
    17    15    16    1
    18    15    17   ar
    19     4     5   ar
    20     5     6   ar
    21    20    23    1
    22    23    24   ar
    23    24    25   ar
    24    25    26   ar
    25    26    27   ar
    26    27    28   ar
    27    28    29   ar
    28    29    30   ar
    29    30    31   ar
    30     6     1   ar
    31    31    23   ar
    32    17    10   ar
    33    30    25   ar
    34    21    22    1
@<TRIPOS>MOLECULE
*****
 31 34 0 0 0
SMALL
GASTEIGER

@<TRIPOS>ATOM
      1 C           7.5779   -3.8498   27.0379 C.ar    1  UNL1        0.0789
      2 C           7.6434   -4.9654   26.0375 C.ar    1  UNL1        0.0178
      3 C           6.9582   -4.8242   24.7106 C.ar    1  UNL1        0.0216
      4 C           6.2075   -3.5672   24.3842 C.ar    1  UNL1        0.1294
      5 C           6.1420   -2.4515   25.3847 C.ar    1  UNL1        0.1172
      6 N           6.8272   -2.5928   26.7115 N.ar    1  UNL1       -0.2451
      7 S           5.5224   -3.4259   23.0573 S.O2    1  UNL1        0.0291
      8 O           6.3687   -4.5331   22.5024 O.2     1  UNL1       -0.1642
      9 O           4.6761   -2.3188   23.6123 O.2     1  UNL1       -0.1642
     10 C           4.8372   -3.2846   21.7305 C.ar    1  UNL1        0.1148
     11 C           5.0914   -4.2877   20.6445 C.ar    1  UNL1        0.0485
     12 C           4.4063   -4.1464   19.3177 C.ar    1  UNL1        0.1437
     13 F           4.6605   -5.1494   18.2318 F       1  UNL1       -0.2041
     14 C           3.4668   -3.0021   19.0768 C.ar    1  UNL1        0.0593
     15 C           3.2126   -1.9991   20.1627 C.ar    1  UNL1        0.1437
     16 F           2.2731   -0.8548   19.9218 F       1  UNL1       -0.2041
     17 C           3.8978   -2.1404   21.4896 C.ar    1  UNL1        0.0485
     18 C           8.2631   -3.9910   28.3649 C.3     1  UNL1        0.1361
     19 O           6.5685   -5.0811   30.5873 O.2     1  UNL1       -0.2668
     20 C           7.0215   -3.6516   30.6217 C.2     1  UNL1        0.2809
     21 N           7.8688   -3.1066   29.5104 N.am    1  UNL1       -0.2931
     22 H           8.1662   -2.1683   29.5329 H       1  UNL1        0.1502
     23 C           6.6272   -2.7672   31.7672 C.ar    1  UNL1        0.1984
     24 C           5.3006   -2.7699   32.4672 C.ar    1  UNL1        0.0453
     25 C           5.3438   -1.7292   33.5466 C.ar    1  UNL1        0.0409
     26 C           4.3257   -1.2862   34.5551 C.ar    1  UNL1        0.0238
     27 C           4.6609   -0.1973   35.5307 C.ar    1  UNL1        0.0991
     28 N           6.0143    0.4486   35.4978 N.ar    1  UNL1       -0.2391
     29 C           7.0325    0.0057   34.4893 C.ar    1  UNL1        0.1362
     30 C           6.6972   -1.0832   33.5137 C.ar    1  UNL1        0.1646
     31 O           7.4904   -1.7248   32.4140 O.2     1  UNL1       -0.4473
@<TRIPOS>BOND
     1    19    20    2
     2    20    21   am
     3    21    18    1
     4    18     1    1
     5     1     2   ar
     6     2     3   ar
     7     3     4   ar
     8     4     7    1
     9     7     8    2
    10     7     9    2
    11     7    10    1
    12    10    11   ar
    13    11    12   ar
    14    12    13    1
    15    12    14   ar
    16    14    15   ar
    17    15    16    1
    18    15    17   ar
    19     4     5   ar
    20     5     6   ar
    21    20    23    1
    22    23    24   ar
    23    24    25   ar
    24    25    26   ar
    25    26    27   ar
    26    27    28   ar
    27    28    29   ar
    28    29    30   ar
    29    30    31   ar
    30     6     1   ar
    31    31    23   ar
    32    17    10   ar
    33    30    25   ar
    34    21    22    1
