@<TRIPOS>MOLECULE
*****
 41 46 0 0 0
SMALL
GASTEIGER

@<TRIPOS>ATOM
      1 C           3.8774    0.9134   33.1901 C.ar    1  UNL1        0.1669
      2 N           3.7858    1.6032   34.5189 N.ar    1  UNL1       -0.2221
      3 C           2.7708    2.7015   34.4019 C.ar    1  UNL1        0.1307
      4 C           2.2652    3.7102   35.3903 C.ar    1  UNL1        0.0777
      5 C           1.2239    4.7079   34.9774 C.ar    1  UNL1        0.0893
      6 CL          0.7182    5.7166   35.9658 Cl      1  UNL1       -0.0794
      7 C           0.6883    4.6968   33.5765 C.ar    1  UNL1        0.0863
      8 N           1.1940    3.6881   32.5881 N.ar    1  UNL1       -0.3354
      9 C           2.2352    2.6904   33.0009 C.ar    1  UNL1        0.1613
     10 N           2.9191    1.5853   32.2519 N.ar    1  UNL1       -0.2080
     11 H           0.8424    3.6809   31.6685 H       1  UNL1        0.1675
     12 C           6.1428    0.0007   32.3041 C.ar    1  UNL1        0.1413
     13 C           7.0359   -1.1578   31.9718 C.ar    1  UNL1        0.0341
     14 C           6.5568   -2.5619   32.1931 C.ar    1  UNL1       -0.0031
     15 C           5.1845   -2.8076   32.7468 C.ar    1  UNL1       -0.0026
     16 C           4.2914   -1.6491   33.0791 C.ar    1  UNL1        0.0058
     17 C           4.7706   -0.2450   32.8577 C.ar    1  UNL1        0.0697
     18 C           7.4432    2.0914   33.1335 C.3     1  UNL1        0.2525
     19 O           6.6220    1.4047   32.0828 O.3     1  UNL1       -0.4713
     20 C           7.4499   -3.7203   31.8608 C.3     1  UNL1        0.0993
     21 N           7.3151   -4.4160   30.5388 N.3     1  UNL1       -0.2665
     22 C           6.5764   -3.7530   29.4142 C.3     1  UNL1        0.0899
     23 C           6.4417   -4.4488   28.0922 C.3     1  UNL1        0.0897
     24 N           7.0457   -5.8075   27.8946 N.3     1  UNL1       -0.2691
     25 C           6.9109   -6.5032   26.5726 C.3     1  UNL1        0.0897
     26 C           7.7844   -6.4705   29.0192 C.3     1  UNL1        0.0897
     27 C           7.9192   -5.7747   30.3413 C.3     1  UNL1        0.0899
     28 N           2.8007    3.7212   36.7914 N.pl3   1  UNL1       -0.3313
     29 H           3.4720    4.3909   37.0565 H       1  UNL1        0.1469
     30 C           2.3136    2.7121   37.7885 C.3     1  UNL1        0.0819
     31 C           3.0300    1.4589   38.1964 C.3     1  UNL1        0.0983
     32 C           2.1837    0.7512   39.2128 C.3     1  UNL1        0.0323
     33 C           0.8948    0.8180   39.9771 C.2     1  UNL1       -0.0304
     34 C           0.1785    2.0712   39.5692 C.2     1  UNL1       -0.0294
     35 C           1.0247    2.7789   38.5528 C.3     1  UNL1        0.0404
     36 C           2.2640    1.9631   38.3325 C.3     1  UNL1        0.0109
     37 C           4.3592    0.9949   37.6788 C.2     1  UNL1        0.2208
     38 N           4.4359   -0.1956   36.7695 N.am    1  UNL1       -0.3288
     39 O           5.6117    1.7214   38.0705 O.2     1  UNL1       -0.2753
     40 H           3.6138   -0.6725   36.5125 H       1  UNL1        0.1449
     41 H           5.3083   -0.5002   36.4298 H       1  UNL1        0.1449
@<TRIPOS>BOND
     1    18    19    1
     2    19    12    1
     3    12    13   ar
     4    13    14   ar
     5    14    20    1
     6    20    21    1
     7    21    22    1
     8    22    23    1
     9    23    24    1
    10    24    25    1
    11    24    26    1
    12    26    27    1
    13    14    15   ar
    14    15    16   ar
    15    16    17   ar
    16    17     1    1
    17     1     2   ar
    18     2     3   ar
    19     3     4   ar
    20     4    28    1
    21    30    28    1
    22    30    31    1
    23    31    37    1
    24    37    38   am
    25    37    39    2
    26    31    32    1
    27    32    33    1
    28    33    34    2
    29    35    34    1
    30    35    36    1
    31     4     5   ar
    32     5     6    1
    33     5     7   ar
    34     7     8   ar
    35     8     9   ar
    36     9    10   ar
    37    17    12   ar
    38    10     1   ar
    39    27    21    1
    40     9     3    1
    41    35    30    1
    42    36    32    1
    43    28    29    1
    44    38    40    1
    45    38    41    1
    46     8    11    1
@<TRIPOS>MOLECULE
*****
 41 46 0 0 0
SMALL
GASTEIGER

@<TRIPOS>ATOM
      1 C           0.8263    3.0234   18.7960 C.ar    1  UNL1        0.1669
      2 N           1.3238    1.6645   18.4012 N.ar    1  UNL1       -0.2221
      3 C           2.8124    1.7457   18.2362 C.ar    1  UNL1        0.1307
      4 C           3.8378    0.7186   17.8572 C.ar    1  UNL1        0.0777
      5 C           5.2858    1.1007   17.7709 C.ar    1  UNL1        0.0893
      6 CL          6.3112    0.0735   17.3918 Cl      1  UNL1       -0.0794
      7 C           5.7083    2.5098   18.0636 C.ar    1  UNL1        0.0863
      8 N           4.6830    3.5369   18.4427 N.ar    1  UNL1       -0.3354
      9 C           3.2351    3.1549   18.5290 C.ar    1  UNL1        0.1613
     10 N           2.0076    3.9445   18.8749 N.ar    1  UNL1       -0.2080
     11 H           4.9604    4.4618   18.6348 H       1  UNL1        0.1675
     12 C          -1.3092    2.8384   20.2641 C.ar    1  UNL1        0.1413
     13 C          -2.7372    3.2110   20.5326 C.ar    1  UNL1        0.0341
     14 C          -3.4576    4.1408   19.6019 C.ar    1  UNL1       -0.0031
     15 C          -2.7500    4.6983   18.4025 C.ar    1  UNL1       -0.0026
     16 C          -1.3220    4.3257   18.1339 C.ar    1  UNL1        0.0058
     17 C          -0.6016    3.3959   19.0646 C.ar    1  UNL1        0.0697
     18 C           0.0984    2.4505   22.4130 C.3     1  UNL1        0.2525
     19 O          -0.5889    1.9086   21.1949 O.3     1  UNL1       -0.4713
     20 C          -4.8856    4.5133   19.8705 C.3     1  UNL1        0.0993
     21 N          -5.3241    4.8456   21.2659 N.3     1  UNL1       -0.2665
     22 C          -6.3624    4.0036   21.9464 C.3     1  UNL1        0.0899
     23 C          -6.8008    4.3360   23.3419 C.3     1  UNL1        0.0897
     24 N          -6.2011    5.5103   24.0569 N.3     1  UNL1       -0.2691
     25 C          -6.6396    5.8426   25.4523 C.3     1  UNL1        0.0897
     26 C          -5.1629    6.3523   23.3764 C.3     1  UNL1        0.0897
     27 C          -4.7244    6.0200   21.9809 C.3     1  UNL1        0.0899
     28 N           3.4152   -0.6906   17.5644 N.pl3   1  UNL1       -0.3313
     29 H           2.9780   -0.9057   16.7089 H       1  UNL1        0.1469
     30 C           3.6588   -1.7719   18.5750 C.3     1  UNL1        0.0819
     31 C           3.0725   -1.8381   19.9541 C.3     1  UNL1        0.0983
     32 C           3.5828   -3.0840   20.6154 C.3     1  UNL1        0.0323
     33 C           4.4554   -4.2890   20.4244 C.2     1  UNL1       -0.0304
     34 C           5.0417   -4.2229   19.0453 C.2     1  UNL1       -0.0294
     35 C           4.5314   -2.9769   18.3840 C.3     1  UNL1        0.0404
     36 C           3.6298   -2.2730   19.3543 C.3     1  UNL1        0.0109
     37 C           2.1397   -0.8345   20.5647 C.2     1  UNL1        0.2208
     38 N           0.7131   -0.7610   20.1071 N.am    1  UNL1       -0.3288
     39 O           2.6336    0.0956   21.6328 O.2     1  UNL1       -0.2753
     40 H           0.3890   -1.3715   19.4061 H       1  UNL1        0.1449
     41 H           0.1009   -0.1024   20.5079 H       1  UNL1        0.1449
@<TRIPOS>BOND
     1    18    19    1
     2    19    12    1
     3    12    13   ar
     4    13    14   ar
     5    14    20    1
     6    20    21    1
     7    21    22    1
     8    22    23    1
     9    23    24    1
    10    24    25    1
    11    24    26    1
    12    26    27    1
    13    14    15   ar
    14    15    16   ar
    15    16    17   ar
    16    17     1    1
    17     1     2   ar
    18     2     3   ar
    19     3     4   ar
    20     4    28    1
    21    30    28    1
    22    30    31    1
    23    31    37    1
    24    37    38   am
    25    37    39    2
    26    31    32    1
    27    32    33    1
    28    33    34    2
    29    35    34    1
    30    35    36    1
    31     4     5   ar
    32     5     6    1
    33     5     7   ar
    34     7     8   ar
    35     8     9   ar
    36     9    10   ar
    37    17    12   ar
    38    10     1   ar
    39    27    21    1
    40     9     3    1
    41    35    30    1
    42    36    32    1
    43    28    29    1
    44    38    40    1
    45    38    41    1
    46     8    11    1
@<TRIPOS>MOLECULE
*****
 41 46 0 0 0
SMALL
GASTEIGER

@<TRIPOS>ATOM
      1 C           1.2683    1.2600   23.3735 C.ar    1  UNL1        0.1669
      2 N           2.4233    0.5972   22.6830 N.ar    1  UNL1       -0.2221
      3 C           2.1741    0.6538   21.2050 C.ar    1  UNL1        0.1307
      4 C           2.9700    0.1601   20.0334 C.ar    1  UNL1        0.0777
      5 C           2.4569    0.3641   18.6386 C.ar    1  UNL1        0.0893
      6 CL          3.2529   -0.1297   17.4669 Cl      1  UNL1       -0.0794
      7 C           1.1480    1.0617   18.4156 C.ar    1  UNL1        0.0863
      8 N           0.3520    1.5554   19.5872 N.ar    1  UNL1       -0.3354
      9 C           0.8651    1.3515   20.9819 C.ar    1  UNL1        0.1613
     10 N           0.3053    1.7261   22.3221 N.ar    1  UNL1       -0.2080
     11 H          -0.5071    2.0134   19.4408 H       1  UNL1        0.1675
     12 C           2.2563    1.9097   25.6869 C.ar    1  UNL1        0.1413
     13 C           2.0928    2.0769   27.1686 C.ar    1  UNL1        0.0341
     14 C           0.7782    1.7618   27.8185 C.ar    1  UNL1       -0.0031
     15 C          -0.3731    1.2794   26.9868 C.ar    1  UNL1       -0.0026
     16 C          -0.2097    1.1122   25.5051 C.ar    1  UNL1        0.0058
     17 C           1.1050    1.4273   24.8551 C.ar    1  UNL1        0.0697
     18 C           4.8263    2.2502   25.8577 C.3     1  UNL1        0.2525
     19 O           3.5709    2.2248   25.0370 O.3     1  UNL1       -0.4713
     20 C           0.6149    1.9291   29.3002 C.3     1  UNL1        0.0993
     21 N           1.4917    1.1595   30.2429 N.3     1  UNL1       -0.2665
     22 C           1.8890    1.7613   31.5582 C.3     1  UNL1        0.0899
     23 C           2.7658    0.9915   32.5008 C.3     1  UNL1        0.0897
     24 N           3.2453   -0.3801   32.1284 N.3     1  UNL1       -0.2691
     25 C           4.1221   -1.1498   33.0711 C.3     1  UNL1        0.0897
     26 C           2.8480   -0.9820   30.8131 C.3     1  UNL1        0.0897
     27 C           1.9711   -0.2122   29.8703 C.3     1  UNL1        0.0899
     28 N           4.2791   -0.5377   20.2563 N.pl3   1  UNL1       -0.3313
     29 H           4.9964   -0.0892   20.7600 H       1  UNL1        0.1469
     30 C           4.4952   -1.9186   19.7120 C.3     1  UNL1        0.0819
     31 C           5.6423   -2.3571   18.8507 C.3     1  UNL1        0.0983
     32 C           5.4583   -3.8130   18.5397 C.3     1  UNL1        0.0323
     33 C           4.5653   -4.9977   18.7610 C.2     1  UNL1       -0.0304
     34 C           3.4182   -4.5591   19.6222 C.2     1  UNL1       -0.0294
     35 C           3.6022   -3.1033   19.9333 C.3     1  UNL1        0.0404
     36 C           4.8631   -2.6421   19.2642 C.3     1  UNL1        0.0109
     37 C           6.7747   -1.4918   18.3826 C.2     1  UNL1        0.2208
     38 N           8.0260   -1.3856   19.2028 N.am    1  UNL1       -0.3288
     39 O           6.6556   -0.7328   17.0943 O.2     1  UNL1       -0.2753
     40 H           8.1042   -1.8838   20.0484 H       1  UNL1        0.1449
     41 H           8.7692   -0.8177   18.8956 H       1  UNL1        0.1449
@<TRIPOS>BOND
     1    18    19    1
     2    19    12    1
     3    12    13   ar
     4    13    14   ar
     5    14    20    1
     6    20    21    1
     7    21    22    1
     8    22    23    1
     9    23    24    1
    10    24    25    1
    11    24    26    1
    12    26    27    1
    13    14    15   ar
    14    15    16   ar
    15    16    17   ar
    16    17     1    1
    17     1     2   ar
    18     2     3   ar
    19     3     4   ar
    20     4    28    1
    21    30    28    1
    22    30    31    1
    23    31    37    1
    24    37    38   am
    25    37    39    2
    26    31    32    1
    27    32    33    1
    28    33    34    2
    29    35    34    1
    30    35    36    1
    31     4     5   ar
    32     5     6    1
    33     5     7   ar
    34     7     8   ar
    35     8     9   ar
    36     9    10   ar
    37    17    12   ar
    38    10     1   ar
    39    27    21    1
    40     9     3    1
    41    35    30    1
    42    36    32    1
    43    28    29    1
    44    38    40    1
    45    38    41    1
    46     8    11    1
@<TRIPOS>MOLECULE
*****
 41 46 0 0 0
SMALL
GASTEIGER

@<TRIPOS>ATOM
      1 C           1.0586    1.5332   23.7599 C.ar    1  UNL1        0.1669
      2 N           2.1838    0.8735   23.0193 N.ar    1  UNL1       -0.2221
      3 C           1.9058    0.9946   21.5502 C.ar    1  UNL1        0.1307
      4 C           2.6661    0.5309   20.3433 C.ar    1  UNL1        0.0777
      5 C           2.1293    0.8017   18.9690 C.ar    1  UNL1        0.0893
      6 CL          2.8897    0.3380   17.7620 Cl      1  UNL1       -0.0794
      7 C           0.8323    1.5362   18.8018 C.ar    1  UNL1        0.0863
      8 N           0.0719    1.9999   20.0087 N.ar    1  UNL1       -0.3354
      9 C           0.6086    1.7291   21.3830 C.ar    1  UNL1        0.1613
     10 N           0.0850    2.0620   22.7486 N.ar    1  UNL1       -0.2080
     11 H          -0.7794    2.4820   19.8989 H       1  UNL1        0.1675
     12 C           2.0374    2.2563   26.0553 C.ar    1  UNL1        0.1413
     13 C           1.9082    2.3677   27.5456 C.ar    1  UNL1        0.0341
     14 C           0.6711    1.8674   28.2307 C.ar    1  UNL1       -0.0031
     15 C          -0.4368    1.2557   27.4256 C.ar    1  UNL1       -0.0026
     16 C          -0.3076    1.1443   25.9353 C.ar    1  UNL1        0.0058
     17 C           0.9295    1.6446   25.2502 C.ar    1  UNL1        0.0697
     18 C           4.5661    2.0076   25.5134 C.3     1  UNL1        0.2525
     19 O           3.2744    2.7567   25.3703 O.3     1  UNL1       -0.4713
     20 C           0.5420    1.9788   29.7210 C.3     1  UNL1        0.0993
     21 N           1.4718    1.2116   30.6137 N.3     1  UNL1       -0.2665
     22 C           2.0190   -0.1116   30.1670 C.3     1  UNL1        0.0899
     23 C           2.9488   -0.8786   31.0597 C.3     1  UNL1        0.0897
     24 N           3.3314   -0.3226   32.3993 N.3     1  UNL1       -0.2691
     25 C           4.2612   -1.0897   33.2920 C.3     1  UNL1        0.0897
     26 C           2.7842    1.0007   32.8461 C.3     1  UNL1        0.0897
     27 C           1.8543    1.7678   31.9533 C.3     1  UNL1        0.0899
     28 N           3.9633   -0.2037   20.5105 N.pl3   1  UNL1       -0.3313
     29 H           4.8064    0.2983   20.5913 H       1  UNL1        0.1469
     30 C           3.9759   -1.7029   20.5545 C.3     1  UNL1        0.0819
     31 C           4.3578   -2.5471   21.7342 C.3     1  UNL1        0.0983
     32 C           4.2268   -3.9872   21.3354 C.3     1  UNL1        0.0323
     33 C           3.8597   -4.9056   20.2077 C.2     1  UNL1       -0.0304
     34 C           3.4778   -4.0614   19.0280 C.2     1  UNL1       -0.0294
     35 C           3.6089   -2.6213   19.4268 C.3     1  UNL1        0.0404
     36 C           4.0717   -2.5754   20.8528 C.3     1  UNL1        0.0109
     37 C           4.7941   -2.0402   23.0769 C.2     1  UNL1        0.2208
     38 N           3.8025   -1.3786   23.9872 N.am    1  UNL1       -0.3288
     39 O           6.2221   -2.1949   23.5091 O.2     1  UNL1       -0.2753
     40 H           2.8652   -1.2770   23.7035 H       1  UNL1        0.1449
     41 H           4.0888   -1.0459   24.8684 H       1  UNL1        0.1449
@<TRIPOS>BOND
     1    18    19    1
     2    19    12    1
     3    12    13   ar
     4    13    14   ar
     5    14    20    1
     6    20    21    1
     7    21    22    1
     8    22    23    1
     9    23    24    1
    10    24    25    1
    11    24    26    1
    12    26    27    1
    13    14    15   ar
    14    15    16   ar
    15    16    17   ar
    16    17     1    1
    17     1     2   ar
    18     2     3   ar
    19     3     4   ar
    20     4    28    1
    21    30    28    1
    22    30    31    1
    23    31    37    1
    24    37    38   am
    25    37    39    2
    26    31    32    1
    27    32    33    1
    28    33    34    2
    29    35    34    1
    30    35    36    1
    31     4     5   ar
    32     5     6    1
    33     5     7   ar
    34     7     8   ar
    35     8     9   ar
    36     9    10   ar
    37    17    12   ar
    38    10     1   ar
    39    27    21    1
    40     9     3    1
    41    35    30    1
    42    36    32    1
    43    28    29    1
    44    38    40    1
    45    38    41    1
    46     8    11    1
@<TRIPOS>MOLECULE
*****
 41 46 0 0 0
SMALL
GASTEIGER

@<TRIPOS>ATOM
      1 C           6.7231   -3.6963   22.2982 C.ar    1  UNL1        0.1669
      2 N           5.3547   -3.3332   21.8026 N.ar    1  UNL1       -0.2221
      3 C           5.5017   -2.7258   20.4390 C.ar    1  UNL1        0.1307
      4 C           4.4953   -2.1823   19.4686 C.ar    1  UNL1        0.0777
      5 C           4.9482   -1.6265   18.1509 C.ar    1  UNL1        0.0893
      6 CL          3.9417   -1.0830   17.1804 Cl      1  UNL1       -0.0794
      7 C           6.4073   -1.6142   17.8038 C.ar    1  UNL1        0.0863
      8 N           7.4138   -2.1576   18.7743 N.ar    1  UNL1       -0.3354
      9 C           6.9609   -2.7134   20.0918 C.ar    1  UNL1        0.1613
     10 N           7.7158   -3.3132   21.2409 N.ar    1  UNL1       -0.2080
     11 H           8.3715   -2.1495   18.5464 H       1  UNL1        0.1675
     12 C           6.6377   -3.6531   24.8945 C.ar    1  UNL1        0.1413
     13 C           6.9574   -4.2878   26.2155 C.ar    1  UNL1        0.0341
     14 C           7.6821   -5.6004   26.2612 C.ar    1  UNL1       -0.0031
     15 C           8.0871   -6.2782   24.9859 C.ar    1  UNL1       -0.0026
     16 C           7.7674   -5.6434   23.6649 C.ar    1  UNL1        0.0058
     17 C           7.0428   -4.3309   23.6192 C.ar    1  UNL1        0.0697
     18 C           6.5209   -1.1257   25.4850 C.3     1  UNL1        0.2525
     19 O           5.9130   -2.3406   24.8489 O.3     1  UNL1       -0.4713
     20 C           8.0017   -6.2350   27.5822 C.3     1  UNL1        0.0993
     21 N           8.0945   -5.3894   28.8176 N.3     1  UNL1       -0.2665
     22 C           9.3328   -4.5862   29.0855 C.3     1  UNL1        0.0899
     23 C           9.4255   -3.7406   30.3209 C.3     1  UNL1        0.0897
     24 N           8.2800   -3.6980   31.2885 N.3     1  UNL1       -0.2691
     25 C           8.3728   -2.8523   32.5238 C.3     1  UNL1        0.0897
     26 C           7.0418   -4.5011   31.0206 C.3     1  UNL1        0.0897
     27 C           6.9490   -5.3468   29.7851 C.3     1  UNL1        0.0899
     28 N           3.0360   -2.1946   19.8156 N.pl3   1  UNL1       -0.3313
     29 H           2.5204   -3.0304   19.7456 H       1  UNL1        0.1469
     30 C           2.3624   -0.9336   20.2695 C.3     1  UNL1        0.0819
     31 C           2.6787   -0.1654   21.5184 C.3     1  UNL1        0.0983
     32 C           1.7660    1.0236   21.5749 C.3     1  UNL1        0.0323
     33 C           0.6578    1.7378   20.8595 C.2     1  UNL1       -0.0304
     34 C           0.3415    0.9696   19.6106 C.2     1  UNL1       -0.0294
     35 C           1.2542   -0.2194   19.5541 C.3     1  UNL1        0.0404
     36 C           2.1346   -0.1861   20.7681 C.3     1  UNL1        0.0109
     37 C           3.7242   -0.5234   22.5327 C.2     1  UNL1        0.2208
     38 N           3.4155   -1.5237   23.6070 N.am    1  UNL1       -0.3288
     39 O           5.0783    0.1190   22.4728 O.2     1  UNL1       -0.2753
     40 H           2.5268   -1.9453   23.6463 H       1  UNL1        0.1449
     41 H           4.1017   -1.7587   24.2727 H       1  UNL1        0.1449
@<TRIPOS>BOND
     1    18    19    1
     2    19    12    1
     3    12    13   ar
     4    13    14   ar
     5    14    20    1
     6    20    21    1
     7    21    22    1
     8    22    23    1
     9    23    24    1
    10    24    25    1
    11    24    26    1
    12    26    27    1
    13    14    15   ar
    14    15    16   ar
    15    16    17   ar
    16    17     1    1
    17     1     2   ar
    18     2     3   ar
    19     3     4   ar
    20     4    28    1
    21    30    28    1
    22    30    31    1
    23    31    37    1
    24    37    38   am
    25    37    39    2
    26    31    32    1
    27    32    33    1
    28    33    34    2
    29    35    34    1
    30    35    36    1
    31     4     5   ar
    32     5     6    1
    33     5     7   ar
    34     7     8   ar
    35     8     9   ar
    36     9    10   ar
    37    17    12   ar
    38    10     1   ar
    39    27    21    1
    40     9     3    1
    41    35    30    1
    42    36    32    1
    43    28    29    1
    44    38    40    1
    45    38    41    1
    46     8    11    1
@<TRIPOS>MOLECULE
*****
 41 46 0 0 0
SMALL
GASTEIGER

@<TRIPOS>ATOM
      1 C           6.7321   -4.0296   23.0122 C.ar    1  UNL1        0.1669
      2 N           6.2502   -4.3684   24.3917 N.ar    1  UNL1       -0.2221
      3 C           7.0707   -5.5164   24.9004 C.ar    1  UNL1        0.1307
      4 C           7.0451   -6.2720   26.1959 C.ar    1  UNL1        0.0777
      5 C           8.0085   -7.3985   26.4263 C.ar    1  UNL1        0.0893
      6 CL          7.9828   -8.1542   27.7218 Cl      1  UNL1       -0.0794
      7 C           8.9974   -7.7693   25.3612 C.ar    1  UNL1        0.0863
      8 N           9.0230   -7.0136   24.0657 N.ar    1  UNL1       -0.3354
      9 C           8.0597   -5.8872   23.8353 C.ar    1  UNL1        0.1613
     10 N           7.8504   -4.9683   22.6683 N.ar    1  UNL1       -0.2080
     11 H           9.6721   -7.2570   23.3667 H       1  UNL1        0.1675
     12 C           5.1321   -3.2580   21.1163 C.ar    1  UNL1        0.1413
     13 C           4.5908   -2.1712   20.2353 C.ar    1  UNL1        0.0341
     14 C           5.1081   -0.7696   20.3693 C.ar    1  UNL1       -0.0031
     15 C           6.1667   -0.4547   21.3842 C.ar    1  UNL1       -0.0026
     16 C           6.7080   -1.5414   22.2652 C.ar    1  UNL1        0.0058
     17 C           6.1907   -2.9430   22.1312 C.ar    1  UNL1        0.0697
     18 C           3.7159   -5.0210   19.8372 C.3     1  UNL1        0.2525
     19 O           4.6148   -4.6595   20.9823 O.3     1  UNL1       -0.4713
     20 C           4.5667    0.3170   19.4883 C.3     1  UNL1        0.0993
     21 N           3.1992    0.8780   19.7437 N.3     1  UNL1       -0.2665
     22 C           2.2872    1.1844   18.5929 C.3     1  UNL1        0.0899
     23 C           0.9198    1.7454   18.8484 C.3     1  UNL1        0.0897
     24 N           0.4642    2.0000   20.2548 N.3     1  UNL1       -0.2691
     25 C          -0.9032    2.5610   20.5102 C.3     1  UNL1        0.0897
     26 C           1.3762    1.6936   21.4056 C.3     1  UNL1        0.0897
     27 C           2.7438    1.1326   21.1500 C.3     1  UNL1        0.0899
     28 N           6.0561   -5.9013   27.2611 N.pl3   1  UNL1       -0.3313
     29 H           5.1163   -6.1832   27.1799 H       1  UNL1        0.1469
     30 C           6.4990   -5.1011   28.4500 C.3     1  UNL1        0.0819
     31 C           6.7017   -3.6153   28.4867 C.3     1  UNL1        0.0983
     32 C           7.1449   -3.2421   29.8703 C.3     1  UNL1        0.0323
     33 C           7.4629   -3.7871   31.2311 C.2     1  UNL1       -0.0304
     34 C           7.2602   -5.2729   31.1944 C.2     1  UNL1       -0.0294
     35 C           6.8169   -5.6461   29.8108 C.3     1  UNL1        0.0404
     36 C           6.7457   -4.3911   28.9924 C.3     1  UNL1        0.0109
     37 C           6.4971   -2.6689   27.3411 C.2     1  UNL1        0.2208
     38 N           5.1241   -2.4651   26.7726 N.am    1  UNL1       -0.3288
     39 O           7.6656   -1.9263   26.7639 O.2     1  UNL1       -0.2753
     40 H           4.3571   -2.9525   27.1515 H       1  UNL1        0.1449
     41 H           4.9898   -1.8439   26.0207 H       1  UNL1        0.1449
@<TRIPOS>BOND
     1    18    19    1
     2    19    12    1
     3    12    13   ar
     4    13    14   ar
     5    14    20    1
     6    20    21    1
     7    21    22    1
     8    22    23    1
     9    23    24    1
    10    24    25    1
    11    24    26    1
    12    26    27    1
    13    14    15   ar
    14    15    16   ar
    15    16    17   ar
    16    17     1    1
    17     1     2   ar
    18     2     3   ar
    19     3     4   ar
    20     4    28    1
    21    30    28    1
    22    30    31    1
    23    31    37    1
    24    37    38   am
    25    37    39    2
    26    31    32    1
    27    32    33    1
    28    33    34    2
    29    35    34    1
    30    35    36    1
    31     4     5   ar
    32     5     6    1
    33     5     7   ar
    34     7     8   ar
    35     8     9   ar
    36     9    10   ar
    37    17    12   ar
    38    10     1   ar
    39    27    21    1
    40     9     3    1
    41    35    30    1
    42    36    32    1
    43    28    29    1
    44    38    40    1
    45    38    41    1
    46     8    11    1
@<TRIPOS>MOLECULE
*****
 41 46 0 0 0
SMALL
GASTEIGER

@<TRIPOS>ATOM
      1 C          -1.0252    3.0361   20.1311 C.ar    1  UNL1        0.1669
      2 N          -2.2495    2.8095   20.9676 N.ar    1  UNL1       -0.2221
      3 C          -3.3261    3.7289   20.4720 C.ar    1  UNL1        0.1307
      4 C          -4.7432    3.9450   20.9137 C.ar    1  UNL1        0.0777
      5 C          -5.6014    4.9560   20.2126 C.ar    1  UNL1        0.0893
      6 CL         -7.0186    5.1721   20.6543 Cl      1  UNL1       -0.0794
      7 C          -5.0425    5.7508   19.0699 C.ar    1  UNL1        0.0863
      8 N          -3.6254    5.5347   18.6282 N.ar    1  UNL1       -0.3354
      9 C          -2.7672    4.5237   19.3293 C.ar    1  UNL1        0.1613
     10 N          -1.3451    4.0956   19.1186 N.ar    1  UNL1       -0.2080
     11 H          -3.2585    6.0564   17.8782 H       1  UNL1        0.1675
     12 C           1.3921    2.9550   21.0799 C.ar    1  UNL1        0.1413
     13 C           2.7058    2.2465   21.2296 C.ar    1  UNL1        0.0341
     14 C           2.9158    0.9107   20.5803 C.ar    1  UNL1       -0.0031
     15 C           1.8122    0.2834   19.7813 C.ar    1  UNL1       -0.0026
     16 C           0.4985    0.9919   19.6316 C.ar    1  UNL1        0.0058
     17 C           0.2885    2.3277   20.2809 C.ar    1  UNL1        0.0697
     18 C           1.5771    5.5455   21.0083 C.3     1  UNL1        0.2525
     19 O           1.1822    4.2908   21.7292 O.3     1  UNL1       -0.4713
     20 C           4.2295    0.2023   20.7300 C.3     1  UNL1        0.0993
     21 N           4.3868   -1.2008   20.2235 N.3     1  UNL1       -0.2665
     22 C           4.0626   -2.3615   21.1166 C.3     1  UNL1        0.0899
     23 C           4.2200   -3.7645   20.6099 C.3     1  UNL1        0.0897
     24 N           4.7017   -4.0069   19.2102 N.3     1  UNL1       -0.2691
     25 C           4.8590   -5.4100   18.7036 C.3     1  UNL1        0.0897
     26 C           5.0259   -2.8462   18.3171 C.3     1  UNL1        0.0897
     27 C           4.8684   -1.4431   18.8237 C.3     1  UNL1        0.0899
     28 N          -5.3022    3.1501   22.0565 N.pl3   1  UNL1       -0.3313
     29 H          -5.8230    2.3336   21.8799 H       1  UNL1        0.1469
     30 C          -5.0677    3.5995   23.4682 C.3     1  UNL1        0.0819
     31 C          -6.0499    4.3290   24.3359 C.3     1  UNL1        0.0983
     32 C          -5.3991    4.5786   25.6641 C.3     1  UNL1        0.0323
     33 C          -4.1412    4.3773   26.4560 C.2     1  UNL1       -0.0304
     34 C          -3.1589    3.6478   25.5883 C.2     1  UNL1       -0.0294
     35 C          -3.8097    3.3982   24.2601 C.3     1  UNL1        0.0404
     36 C          -5.1943    3.9734   24.3069 C.3     1  UNL1        0.0109
     37 C          -7.4392    4.7372   23.9442 C.2     1  UNL1        0.2208
     38 N          -8.4617    3.6921   23.6095 N.am    1  UNL1       -0.3288
     39 O          -7.8058    6.1906   23.8873 O.2     1  UNL1       -0.2753
     40 H          -8.2211    2.7382   23.6469 H       1  UNL1        0.1449
     41 H          -9.3735    3.9601   23.3524 H       1  UNL1        0.1449
@<TRIPOS>BOND
     1    18    19    1
     2    19    12    1
     3    12    13   ar
     4    13    14   ar
     5    14    20    1
     6    20    21    1
     7    21    22    1
     8    22    23    1
     9    23    24    1
    10    24    25    1
    11    24    26    1
    12    26    27    1
    13    14    15   ar
    14    15    16   ar
    15    16    17   ar
    16    17     1    1
    17     1     2   ar
    18     2     3   ar
    19     3     4   ar
    20     4    28    1
    21    30    28    1
    22    30    31    1
    23    31    37    1
    24    37    38   am
    25    37    39    2
    26    31    32    1
    27    32    33    1
    28    33    34    2
    29    35    34    1
    30    35    36    1
    31     4     5   ar
    32     5     6    1
    33     5     7   ar
    34     7     8   ar
    35     8     9   ar
    36     9    10   ar
    37    17    12   ar
    38    10     1   ar
    39    27    21    1
    40     9     3    1
    41    35    30    1
    42    36    32    1
    43    28    29    1
    44    38    40    1
    45    38    41    1
    46     8    11    1
@<TRIPOS>MOLECULE
*****
 41 46 0 0 0
SMALL
GASTEIGER

@<TRIPOS>ATOM
      1 C           0.3224    1.8842   20.4533 C.ar    1  UNL1        0.1669
      2 N          -1.1151    1.9766   20.8718 N.ar    1  UNL1       -0.2221
      3 C          -1.6955    3.2194   20.2648 C.ar    1  UNL1        0.1307
      4 C          -3.0669    3.8232   20.3322 C.ar    1  UNL1        0.0777
      5 C          -3.3596    5.1026   19.6059 C.ar    1  UNL1        0.0893
      6 CL         -4.7312    5.7064   19.6733 Cl      1  UNL1       -0.0794
      7 C          -2.2809    5.7783   18.8124 C.ar    1  UNL1        0.0863
      8 N          -0.9094    5.1745   18.7450 N.ar    1  UNL1       -0.3354
      9 C          -0.6167    3.8951   19.4712 C.ar    1  UNL1        0.1613
     10 N           0.6304    3.0699   19.5877 N.ar    1  UNL1       -0.2080
     11 H          -0.2014    5.6180   18.2241 H       1  UNL1        0.1675
     12 C           1.9408    0.8149   22.1818 C.ar    1  UNL1        0.1413
     13 C           2.9016   -0.2725   22.5621 C.ar    1  UNL1        0.0341
     14 C           3.2049   -1.3777   21.5944 C.ar    1  UNL1       -0.0031
     15 C           2.5474   -1.3956   20.2463 C.ar    1  UNL1       -0.0026
     16 C           1.5866   -0.3083   19.8660 C.ar    1  UNL1        0.0058
     17 C           1.2833    0.7969   20.8337 C.ar    1  UNL1        0.0697
     18 C           0.7527    1.6594   24.3324 C.3     1  UNL1        0.2525
     19 O           1.6375    1.9200   23.1496 O.3     1  UNL1       -0.4713
     20 C           4.1658   -2.4649   21.9748 C.3     1  UNL1        0.0993
     21 N           5.5083   -2.5455   21.3105 N.3     1  UNL1       -0.2665
     22 C           6.2597   -3.8436   21.2929 C.3     1  UNL1        0.0899
     23 C           7.6022   -3.9241   20.6287 C.3     1  UNL1        0.0897
     24 N           8.1933   -2.7065   19.9820 N.3     1  UNL1       -0.2691
     25 C           9.5358   -2.7871   19.3178 C.3     1  UNL1        0.0897
     26 C           7.4419   -1.4084   19.9996 C.3     1  UNL1        0.0897
     27 C           6.0993   -1.3279   20.6639 C.3     1  UNL1        0.0899
     28 N          -4.1458    3.1475   21.1257 N.pl3   1  UNL1       -0.3313
     29 H          -4.7602    2.5175   20.6845 H       1  UNL1        0.1469
     30 C          -4.2883    3.4318   22.5916 C.3     1  UNL1        0.0819
     31 C          -5.5520    3.8332   23.2930 C.3     1  UNL1        0.0983
     32 C          -5.2370    4.0141   24.7484 C.3     1  UNL1        0.0323
     33 C          -4.1409    3.9469   25.7702 C.2     1  UNL1       -0.0304
     34 C          -2.8773    3.5455   25.0688 C.2     1  UNL1       -0.0294
     35 C          -3.1923    3.3646   23.6134 C.3     1  UNL1        0.0404
     36 C          -4.6507    3.6542   23.4154 C.3     1  UNL1        0.0109
     37 C          -6.8950    4.0208   22.6516 C.2     1  UNL1        0.2208
     38 N          -8.1446    3.8432   23.4622 N.am    1  UNL1       -0.3288
     39 O          -6.9883    4.3859   21.1998 O.2     1  UNL1       -0.2753
     40 H          -8.0833    3.6035   24.4151 H       1  UNL1        0.1449
     41 H          -9.0260    3.9663   23.0412 H       1  UNL1        0.1449
@<TRIPOS>BOND
     1    18    19    1
     2    19    12    1
     3    12    13   ar
     4    13    14   ar
     5    14    20    1
     6    20    21    1
     7    21    22    1
     8    22    23    1
     9    23    24    1
    10    24    25    1
    11    24    26    1
    12    26    27    1
    13    14    15   ar
    14    15    16   ar
    15    16    17   ar
    16    17     1    1
    17     1     2   ar
    18     2     3   ar
    19     3     4   ar
    20     4    28    1
    21    30    28    1
    22    30    31    1
    23    31    37    1
    24    37    38   am
    25    37    39    2
    26    31    32    1
    27    32    33    1
    28    33    34    2
    29    35    34    1
    30    35    36    1
    31     4     5   ar
    32     5     6    1
    33     5     7   ar
    34     7     8   ar
    35     8     9   ar
    36     9    10   ar
    37    17    12   ar
    38    10     1   ar
    39    27    21    1
    40     9     3    1
    41    35    30    1
    42    36    32    1
    43    28    29    1
    44    38    40    1
    45    38    41    1
    46     8    11    1
@<TRIPOS>MOLECULE
*****
 41 46 0 0 0
SMALL
GASTEIGER

@<TRIPOS>ATOM
      1 C           4.3580   -1.0780   24.1828 C.ar    1  UNL1        0.1669
      2 N           3.6504   -1.4101   22.9026 N.ar    1  UNL1       -0.2221
      3 C           4.6795   -1.8554   21.9063 C.ar    1  UNL1        0.1307
      4 C           4.5667   -2.3053   20.4798 C.ar    1  UNL1        0.0777
      5 C           5.7976   -2.6983   19.7178 C.ar    1  UNL1        0.0893
      6 CL          5.6848   -3.1483   18.2913 Cl      1  UNL1       -0.0794
      7 C           7.1411   -2.6414   20.3823 C.ar    1  UNL1        0.0863
      8 N           7.2539   -2.1914   21.8087 N.ar    1  UNL1       -0.3354
      9 C           6.0231   -1.7984   22.5707 C.ar    1  UNL1        0.1613
     10 N           5.8244   -1.3180   23.9778 N.ar    1  UNL1       -0.2080
     11 H           8.1358   -2.1541   22.2448 H       1  UNL1        0.1675
     12 C           3.0183    0.7381   25.4701 C.ar    1  UNL1        0.1413
     13 C           2.3728    1.2247   26.7337 C.ar    1  UNL1        0.0341
     14 C           2.4216    0.3819   27.9736 C.ar    1  UNL1       -0.0031
     15 C           3.1158   -0.9476   27.9499 C.ar    1  UNL1       -0.0026
     16 C           3.7613   -1.4342   26.6863 C.ar    1  UNL1        0.0058
     17 C           3.7125   -0.5914   25.4464 C.ar    1  UNL1        0.0697
     18 C           1.6957    1.6873   23.4453 C.3     1  UNL1        0.2525
     19 O           2.9694    1.5809   24.2302 O.3     1  UNL1       -0.4713
     20 C           1.7761    0.8685   29.2371 C.3     1  UNL1        0.0993
     21 N           2.6127    1.1283   30.4547 N.3     1  UNL1       -0.2665
     22 C           2.8341    0.0367   31.4594 C.3     1  UNL1        0.0899
     23 C           3.6708    0.2965   32.6770 C.3     1  UNL1        0.0897
     24 N           4.2861    1.6478   32.8899 N.3     1  UNL1       -0.2691
     25 C           5.1227    1.9076   34.1075 C.3     1  UNL1        0.0897
     26 C           4.0647    2.7394   31.8852 C.3     1  UNL1        0.0897
     27 C           3.2280    2.4796   30.6676 C.3     1  UNL1        0.0899
     28 N           3.2231   -2.3623   19.8153 N.pl3   1  UNL1       -0.3313
     29 H           2.8275   -3.2322   19.5786 H       1  UNL1        0.1469
     30 C           2.4823   -1.0939   19.5114 C.3     1  UNL1        0.0819
     31 C           2.8312   -0.1044   18.4395 C.3     1  UNL1        0.0983
     32 C           1.8271    1.0088   18.4916 C.3     1  UNL1        0.0323
     33 C           0.6074    1.5103   19.2062 C.2     1  UNL1       -0.0304
     34 C           0.2585    0.5208   20.2781 C.2     1  UNL1       -0.0294
     35 C           1.2626   -0.5923   20.2260 C.3     1  UNL1        0.0404
     36 C           2.2321   -0.2908   19.1219 C.3     1  UNL1        0.0109
     37 C           3.9822   -0.2095   17.4832 C.2     1  UNL1        0.2208
     38 N           5.2667    0.5086   17.7738 N.am    1  UNL1       -0.3288
     39 O           3.8486   -1.0327   16.2364 O.2     1  UNL1       -0.2753
     40 H           5.3543    1.0488   18.5922 H       1  UNL1        0.1449
     41 H           6.0220    0.4396   17.1462 H       1  UNL1        0.1449
@<TRIPOS>BOND
     1    18    19    1
     2    19    12    1
     3    12    13   ar
     4    13    14   ar
     5    14    20    1
     6    20    21    1
     7    21    22    1
     8    22    23    1
     9    23    24    1
    10    24    25    1
    11    24    26    1
    12    26    27    1
    13    14    15   ar
    14    15    16   ar
    15    16    17   ar
    16    17     1    1
    17     1     2   ar
    18     2     3   ar
    19     3     4   ar
    20     4    28    1
    21    30    28    1
    22    30    31    1
    23    31    37    1
    24    37    38   am
    25    37    39    2
    26    31    32    1
    27    32    33    1
    28    33    34    2
    29    35    34    1
    30    35    36    1
    31     4     5   ar
    32     5     6    1
    33     5     7   ar
    34     7     8   ar
    35     8     9   ar
    36     9    10   ar
    37    17    12   ar
    38    10     1   ar
    39    27    21    1
    40     9     3    1
    41    35    30    1
    42    36    32    1
    43    28    29    1
    44    38    40    1
    45    38    41    1
    46     8    11    1
