@<TRIPOS>MOLECULE
*****
 30 32 0 0 0
SMALL
GASTEIGER

@<TRIPOS>ATOM
      1 C          -5.6042  -16.2827   24.1499 C.ar    1  UNL1        0.0201
      2 C          -5.5935  -15.6525   25.5111 C.ar    1  UNL1        0.0760
      3 N          -7.0139  -15.5355   25.9788 N.ar    1  UNL1       -0.3240
      4 C          -7.4664  -14.9615   27.2887 C.3     1  UNL1        0.1305
      5 C          -7.9024  -16.0933   24.9067 C.ar    1  UNL1        0.0601
      6 C          -9.3923  -16.2404   24.8137 C.ar    1  UNL1        0.0217
      7 C         -10.0108  -16.8493   23.5904 C.ar    1  UNL1        0.0563
      8 C          -9.1395  -17.3111   22.4601 C.ar    1  UNL1        0.0047
      9 C          -7.6497  -17.1640   22.5531 C.ar    1  UNL1        0.0016
     10 C          -7.0311  -16.5551   23.7764 C.ar    1  UNL1        0.0173
     11 C          -1.9898  -17.1957   21.6294 C.ar    1  UNL1        0.2357
     12 N          -2.4430  -15.7766   21.8045 N.ar    1  UNL1       -0.2094
     13 C          -3.6478  -15.4723   22.6447 C.ar    1  UNL1        0.1021
     14 C          -4.3994  -16.5870   23.3097 C.ar    1  UNL1        0.0217
     15 C          -3.9461  -18.0062   23.1346 C.ar    1  UNL1        0.0177
     16 C          -2.7414  -18.3105   22.2945 C.ar    1  UNL1        0.1107
     17 CL         -2.2882  -19.7296   22.1194 Cl      1  UNL1       -0.0774
     18 O          -0.7850  -17.5000   20.7892 O.3     1  UNL1       -0.4597
     19 C          -0.9544  -17.9179   19.3586 C.3     1  UNL1        0.2070
     20 C          -2.8384  -16.8088   17.9549 C.3     1  UNL1        0.0038
     21 C          -2.3245  -17.9720   18.7504 C.3     1  UNL1        0.0438
     22 C          -3.1807  -19.1894   18.9376 C.3     1  UNL1        0.0038
     23 C         -11.5007  -16.9965   23.4973 C.2     1  UNL1        0.2640
     24 O         -12.3069  -15.9924   22.7281 O.2     1  UNL1       -0.2686
     25 N         -12.1844  -18.1477   24.1736 N.am    1  UNL1       -0.1852
     26 H         -11.6552  -18.8067   24.6785 H       1  UNL1        0.1765
     27 S         -13.6742  -18.2949   24.0806 S.O2    1  UNL1        0.0581
     28 C         -15.1641  -18.4421   23.9875 C.3     1  UNL1        0.1997
     29 O         -13.5928  -18.1748   22.5876 O.2     1  UNL1       -0.1543
     30 O         -13.7555  -18.4150   25.5735 O.2     1  UNL1       -0.1543
@<TRIPOS>BOND
     1    20    21    1
     2    21    22    1
     3    21    19    1
     4    19    18    1
     5    18    11    1
     6    11    12   ar
     7    12    13   ar
     8    13    14   ar
     9    14     1    1
    10     1     2   ar
    11     2     3   ar
    12     3     4    1
    13     3     5   ar
    14     5     6   ar
    15     6     7   ar
    16     7    23    1
    17    23    24    2
    18    23    25   am
    19    25    27    1
    20    27    28    1
    21    27    29    2
    22    27    30    2
    23     7     8   ar
    24     8     9   ar
    25     9    10   ar
    26    14    15   ar
    27    15    16   ar
    28    16    17    1
    29    16    11   ar
    30    10     1   ar
    31    10     5   ar
    32    25    26    1
@<TRIPOS>MOLECULE
*****
 30 32 0 0 0
SMALL
GASTEIGER

@<TRIPOS>ATOM
      1 C           2.9911   -1.6760   20.1995 C.ar    1  UNL1        0.0201
      2 C           3.2630   -2.6976   19.1354 C.ar    1  UNL1        0.0760
      3 N           4.2381   -3.6944   19.6882 N.ar    1  UNL1       -0.3240
      4 C           4.7863   -4.8873   18.9627 C.3     1  UNL1        0.1305
      5 C           4.5688   -3.2889   21.0940 C.ar    1  UNL1        0.0601
      6 C           5.4721   -3.8943   22.1271 C.ar    1  UNL1        0.0217
      7 C           5.6047   -3.2523   23.4763 C.ar    1  UNL1        0.0563
      8 C           4.8340   -2.0048   23.7922 C.ar    1  UNL1        0.0047
      9 C           3.9307   -1.3994   22.7591 C.ar    1  UNL1        0.0016
     10 C           3.7981   -2.0414   21.4100 C.ar    1  UNL1        0.0173
     11 C           0.2376    1.8637   19.8260 C.ar    1  UNL1        0.2357
     12 N          -0.2054    0.6451   20.5802 N.ar    1  UNL1       -0.2094
     13 C           0.7124   -0.5347   20.7047 C.ar    1  UNL1        0.1021
     14 C           2.0732   -0.4962   20.0750 C.ar    1  UNL1        0.0217
     15 C           2.5163    0.7225   19.3207 C.ar    1  UNL1        0.0177
     16 C           1.5985    1.9023   19.1963 C.ar    1  UNL1        0.1107
     17 CL          2.0416    3.1208   18.4420 Cl      1  UNL1       -0.0774
     18 O          -0.6802    3.0435   19.7015 O.3     1  UNL1       -0.4597
     19 C          -1.8051    3.2249   20.6770 C.3     1  UNL1        0.2070
     20 C          -4.3719    3.1319   21.0683 C.3     1  UNL1        0.0038
     21 C          -3.2038    3.4365   20.1780 C.3     1  UNL1        0.0438
     22 C          -3.4343    3.9528   18.7886 C.3     1  UNL1        0.0038
     23 C           6.5081   -3.8577   24.5095 C.2     1  UNL1        0.2640
     24 O           7.8675   -4.3560   24.1177 O.2     1  UNL1       -0.2686
     25 N           6.0519   -3.9647   25.9344 N.am    1  UNL1       -0.1852
     26 H           5.1596   -3.6377   26.1915 H       1  UNL1        0.1765
     27 S           6.9552   -4.5701   26.9676 S.O2    1  UNL1        0.0581
     28 C           7.8585   -5.1756   28.0009 C.3     1  UNL1        0.1997
     29 O           6.3865   -5.9259   26.6704 O.2     1  UNL1       -0.1543
     30 O           7.5238   -3.2143   27.2649 O.2     1  UNL1       -0.1543
@<TRIPOS>BOND
     1    20    21    1
     2    21    22    1
     3    21    19    1
     4    19    18    1
     5    18    11    1
     6    11    12   ar
     7    12    13   ar
     8    13    14   ar
     9    14     1    1
    10     1     2   ar
    11     2     3   ar
    12     3     4    1
    13     3     5   ar
    14     5     6   ar
    15     6     7   ar
    16     7    23    1
    17    23    24    2
    18    23    25   am
    19    25    27    1
    20    27    28    1
    21    27    29    2
    22    27    30    2
    23     7     8   ar
    24     8     9   ar
    25     9    10   ar
    26    14    15   ar
    27    15    16   ar
    28    16    17    1
    29    16    11   ar
    30    10     1   ar
    31    10     5   ar
    32    25    26    1
@<TRIPOS>MOLECULE
*****
 30 32 0 0 0
SMALL
GASTEIGER

@<TRIPOS>ATOM
      1 C           0.4146    1.7890   25.0935 C.ar    1  UNL1        0.0201
      2 C          -0.4598    2.6958   24.2791 C.ar    1  UNL1        0.0760
      3 N          -0.1386    2.4718   22.8311 N.ar    1  UNL1       -0.3240
      4 C          -0.7781    3.1704   21.6679 C.3     1  UNL1        0.1305
      5 C           0.9343    1.4266   22.7506 C.ar    1  UNL1        0.0601
      6 C           1.6440    0.8046   21.5847 C.ar    1  UNL1        0.0217
      7 C           2.6957   -0.2394   21.8170 C.ar    1  UNL1        0.0563
      8 C           3.0376   -0.6614   23.2152 C.ar    1  UNL1        0.0047
      9 C           2.3278   -0.0394   24.3811 C.ar    1  UNL1        0.0016
     10 C           1.2762    1.0046   24.1488 C.ar    1  UNL1        0.0173
     11 C           0.4473    1.4764   29.5825 C.ar    1  UNL1        0.2357
     12 N           1.5354    2.2284   28.8751 N.ar    1  UNL1       -0.2094
     13 C           1.5245    2.3326   27.3787 C.ar    1  UNL1        0.1021
     14 C           0.4255    1.6848   26.5898 C.ar    1  UNL1        0.0217
     15 C          -0.6627    0.9328   27.2973 C.ar    1  UNL1        0.0177
     16 C          -0.6518    0.8286   28.7936 C.ar    1  UNL1        0.1107
     17 CL         -1.7399    0.0766   29.5010 Cl      1  UNL1       -0.0774
     18 O           0.4582    1.3723   31.0789 O.3     1  UNL1       -0.4597
     19 C           1.6778    1.7817   31.8503 C.3     1  UNL1        0.2070
     20 C           2.2492    2.4458   34.2962 C.3     1  UNL1        0.0038
     21 C           1.5522    2.7367   33.0002 C.3     1  UNL1        0.0438
     22 C           0.7297    3.9825   32.8541 C.3     1  UNL1        0.0038
     23 C           3.4055   -0.8614   20.6511 C.2     1  UNL1        0.2640
     24 O           3.6165   -0.0718   19.3933 O.2     1  UNL1       -0.2686
     25 N           3.9043   -2.2730   20.7430 N.am    1  UNL1       -0.1852
     26 H           3.7658   -2.7913   21.5685 H       1  UNL1        0.1765
     27 S           4.6141   -2.8951   19.5771 S.O2    1  UNL1        0.0581
     28 C           5.3239   -3.5172   18.4112 C.3     1  UNL1        0.1997
     29 O           3.3114   -3.4465   19.0782 O.2     1  UNL1       -0.1543
     30 O           5.9168   -2.3437   20.0760 O.2     1  UNL1       -0.1543
@<TRIPOS>BOND
     1    20    21    1
     2    21    22    1
     3    21    19    1
     4    19    18    1
     5    18    11    1
     6    11    12   ar
     7    12    13   ar
     8    13    14   ar
     9    14     1    1
    10     1     2   ar
    11     2     3   ar
    12     3     4    1
    13     3     5   ar
    14     5     6   ar
    15     6     7   ar
    16     7    23    1
    17    23    24    2
    18    23    25   am
    19    25    27    1
    20    27    28    1
    21    27    29    2
    22    27    30    2
    23     7     8   ar
    24     8     9   ar
    25     9    10   ar
    26    14    15   ar
    27    15    16   ar
    28    16    17    1
    29    16    11   ar
    30    10     1   ar
    31    10     5   ar
    32    25    26    1
@<TRIPOS>MOLECULE
*****
 30 32 0 0 0
SMALL
GASTEIGER

@<TRIPOS>ATOM
      1 C           7.2275   -4.9204   25.7730 C.ar    1  UNL1        0.0201
      2 C           7.8227   -6.2572   26.1030 C.ar    1  UNL1        0.0760
      3 N           7.8586   -6.3926   27.5964 N.ar    1  UNL1       -0.3240
      4 C           8.3765   -7.5738   28.3624 C.3     1  UNL1        0.1305
      5 C           7.2856   -5.1396   28.1895 C.ar    1  UNL1        0.0601
      6 C           7.0687   -4.7096   29.6100 C.ar    1  UNL1        0.0217
      7 C           6.4617   -3.3697   29.9036 C.ar    1  UNL1        0.0563
      8 C           6.0717   -2.4598   28.7767 C.ar    1  UNL1        0.0047
      9 C           6.2887   -2.8898   27.3561 C.ar    1  UNL1        0.0016
     10 C           6.8956   -4.2297   27.0625 C.ar    1  UNL1        0.0173
     11 C           6.5557   -3.2716   21.6402 C.ar    1  UNL1        0.2357
     12 N           7.7826   -4.0831   21.9336 N.ar    1  UNL1       -0.2094
     13 C           8.0065   -4.6327   23.3113 C.ar    1  UNL1        0.1021
     14 C           7.0036   -4.3708   24.3954 C.ar    1  UNL1        0.0217
     15 C           5.7767   -3.5592   24.1020 C.ar    1  UNL1        0.0177
     16 C           5.5527   -3.0096   22.7244 C.ar    1  UNL1        0.1107
     17 CL          4.3258   -2.1981   22.4310 Cl      1  UNL1       -0.0774
     18 O           6.3318   -2.7220   20.2626 O.3     1  UNL1       -0.4597
     19 C           5.5840   -3.5311   19.2447 C.3     1  UNL1        0.2070
     20 C           3.2117   -4.5837   19.1269 C.3     1  UNL1        0.0038
     21 C           4.0987   -3.3743   19.1061 C.3     1  UNL1        0.0438
     22 C           3.5004   -2.0081   18.9466 C.3     1  UNL1        0.0038
     23 C           6.2447   -2.9396   31.3242 C.2     1  UNL1        0.2640
     24 O           7.1573   -3.4365   32.4060 O.2     1  UNL1       -0.2686
     25 N           5.1151   -2.0128   31.6630 N.am    1  UNL1       -0.1852
     26 H           4.5161   -1.6867   30.9530 H       1  UNL1        0.1765
     27 S           4.8980   -1.5827   33.0835 S.O2    1  UNL1        0.0581
     28 C           4.6810   -1.1526   34.5041 C.3     1  UNL1        0.1997
     29 O           3.9821   -2.7511   33.2973 O.2     1  UNL1       -0.1543
     30 O           5.8140   -0.4142   32.8697 O.2     1  UNL1       -0.1543
@<TRIPOS>BOND
     1    20    21    1
     2    21    22    1
     3    21    19    1
     4    19    18    1
     5    18    11    1
     6    11    12   ar
     7    12    13   ar
     8    13    14   ar
     9    14     1    1
    10     1     2   ar
    11     2     3   ar
    12     3     4    1
    13     3     5   ar
    14     5     6   ar
    15     6     7   ar
    16     7    23    1
    17    23    24    2
    18    23    25   am
    19    25    27    1
    20    27    28    1
    21    27    29    2
    22    27    30    2
    23     7     8   ar
    24     8     9   ar
    25     9    10   ar
    26    14    15   ar
    27    15    16   ar
    28    16    17    1
    29    16    11   ar
    30    10     1   ar
    31    10     5   ar
    32    25    26    1
@<TRIPOS>MOLECULE
*****
 30 32 0 0 0
SMALL
GASTEIGER

@<TRIPOS>ATOM
      1 C           1.4284    0.8923   20.8349 C.ar    1  UNL1        0.0201
      2 C           0.3396    1.7498   20.2610 C.ar    1  UNL1        0.0760
      3 N          -0.4338    2.3419   21.4018 N.ar    1  UNL1       -0.3240
      4 C          -1.6113    3.2637   21.2843 C.3     1  UNL1        0.1305
      5 C           0.1770    1.8504   22.6806 C.ar    1  UNL1        0.0601
      6 C          -0.1661    2.1028   24.1188 C.ar    1  UNL1        0.0217
      7 C           0.6417    1.4594   25.2066 C.ar    1  UNL1        0.0563
      8 C           1.7926    0.5636   24.8563 C.ar    1  UNL1        0.0047
      9 C           2.1357    0.3111   23.4181 C.ar    1  UNL1        0.0016
     10 C           1.3279    0.9545   22.3302 C.ar    1  UNL1        0.0173
     11 C           4.4635   -1.4546   18.4832 C.ar    1  UNL1        0.2357
     12 N           4.4756    0.0446   18.4378 N.ar    1  UNL1       -0.2094
     13 C           3.4639    0.8269   19.2216 C.ar    1  UNL1        0.1021
     14 C           2.4401    0.1100   20.0510 C.ar    1  UNL1        0.0217
     15 C           2.4281   -1.3893   20.0965 C.ar    1  UNL1        0.0177
     16 C           3.4398   -2.1716   19.3126 C.ar    1  UNL1        0.1107
     17 CL          3.4276   -3.6708   19.3582 Cl      1  UNL1       -0.0774
     18 O           5.4753   -2.2369   17.6994 O.3     1  UNL1       -0.4597
     19 C           6.8652   -2.4139   18.2347 C.3     1  UNL1        0.2070
     20 C           7.5709   -1.2180   20.4306 C.3     1  UNL1        0.0038
     21 C           7.0995   -2.4497   19.7159 C.3     1  UNL1        0.0438
     22 C           6.8623   -3.7171   20.4823 C.3     1  UNL1        0.0038
     23 C           0.2986    1.7119   26.6449 C.2     1  UNL1        0.2640
     24 O          -0.9684    2.4329   26.9983 O.2     1  UNL1       -0.2686
     25 N           1.2225    1.2433   27.7297 N.am    1  UNL1       -0.1852
     26 H           2.0541    0.7701   27.4978 H       1  UNL1        0.1765
     27 S           0.8794    1.4958   29.1680 S.O2    1  UNL1        0.0581
     28 C           0.5364    1.7482   30.6063 C.3     1  UNL1        0.1997
     29 O           1.5423    2.8391   29.0903 O.2     1  UNL1       -0.1543
     30 O           0.2166    0.1525   29.2456 O.2     1  UNL1       -0.1543
@<TRIPOS>BOND
     1    20    21    1
     2    21    22    1
     3    21    19    1
     4    19    18    1
     5    18    11    1
     6    11    12   ar
     7    12    13   ar
     8    13    14   ar
     9    14     1    1
    10     1     2   ar
    11     2     3   ar
    12     3     4    1
    13     3     5   ar
    14     5     6   ar
    15     6     7   ar
    16     7    23    1
    17    23    24    2
    18    23    25   am
    19    25    27    1
    20    27    28    1
    21    27    29    2
    22    27    30    2
    23     7     8   ar
    24     8     9   ar
    25     9    10   ar
    26    14    15   ar
    27    15    16   ar
    28    16    17    1
    29    16    11   ar
    30    10     1   ar
    31    10     5   ar
    32    25    26    1
@<TRIPOS>MOLECULE
*****
 30 32 0 0 0
SMALL
GASTEIGER

@<TRIPOS>ATOM
      1 C           5.6176   -2.6628   23.3875 C.ar    1  UNL1        0.0201
      2 C           6.6120   -3.5738   24.0441 C.ar    1  UNL1        0.0760
      3 N           6.4721   -3.4191   25.5295 N.ar    1  UNL1       -0.3240
      4 C           7.2725   -4.1438   26.5707 C.3     1  UNL1        0.1305
      5 C           5.3911   -2.4125   25.7909 C.ar    1  UNL1        0.0601
      6 C           4.8195   -1.8613   27.0634 C.ar    1  UNL1        0.0217
      7 C           3.7198   -0.8425   27.0121 C.ar    1  UNL1        0.0563
      8 C           3.1917   -0.3750   25.6882 C.ar    1  UNL1        0.0047
      9 C           3.7633   -0.9263   24.4158 C.ar    1  UNL1        0.0016
     10 C           4.8630   -1.9451   24.4671 C.ar    1  UNL1        0.0173
     11 C           5.0053   -2.1693   18.9567 C.ar    1  UNL1        0.2357
     12 N           6.0293   -1.3369   19.6696 N.ar    1  UNL1       -0.2094
     13 C           6.2334   -1.5014   21.1465 C.ar    1  UNL1        0.1021
     14 C           5.4135   -2.4983   21.9106 C.ar    1  UNL1        0.0217
     15 C           4.3894   -3.3308   21.1976 C.ar    1  UNL1        0.0177
     16 C           4.1853   -3.1663   19.7207 C.ar    1  UNL1        0.1107
     17 CL          3.1612   -3.9988   19.0079 Cl      1  UNL1       -0.0774
     18 O           4.8012   -2.0049   17.4798 O.3     1  UNL1       -0.4597
     19 C           3.9110   -0.9140   16.9625 C.3     1  UNL1        0.2070
     20 C           2.1145    0.0612   18.5661 C.3     1  UNL1        0.0038
     21 C           3.4456    0.1744   17.8840 C.3     1  UNL1        0.0438
     22 C           4.3113    1.3757   18.1233 C.3     1  UNL1        0.0038
     23 C           3.1481   -0.2912   28.2846 C.2     1  UNL1        0.2640
     24 O           3.8137   -0.5869   29.5959 O.2     1  UNL1       -0.2686
     25 N           1.9108    0.5559   28.2458 N.am    1  UNL1       -0.1852
     26 H           1.4739    0.7500   27.3852 H       1  UNL1        0.1765
     27 S           1.3391    1.1073   29.5183 S.O2    1  UNL1        0.0581
     28 C           0.7674    1.6586   30.7908 C.3     1  UNL1        0.1997
     29 O           0.5512   -0.1544   29.7109 O.2     1  UNL1       -0.1543
     30 O           2.1271    2.3690   29.3256 O.2     1  UNL1       -0.1543
@<TRIPOS>BOND
     1    20    21    1
     2    21    22    1
     3    21    19    1
     4    19    18    1
     5    18    11    1
     6    11    12   ar
     7    12    13   ar
     8    13    14   ar
     9    14     1    1
    10     1     2   ar
    11     2     3   ar
    12     3     4    1
    13     3     5   ar
    14     5     6   ar
    15     6     7   ar
    16     7    23    1
    17    23    24    2
    18    23    25   am
    19    25    27    1
    20    27    28    1
    21    27    29    2
    22    27    30    2
    23     7     8   ar
    24     8     9   ar
    25     9    10   ar
    26    14    15   ar
    27    15    16   ar
    28    16    17    1
    29    16    11   ar
    30    10     1   ar
    31    10     5   ar
    32    25    26    1
@<TRIPOS>MOLECULE
*****
 30 32 0 0 0
SMALL
GASTEIGER

@<TRIPOS>ATOM
      1 C           3.8216   -0.5906   24.5375 C.ar    1  UNL1        0.0201
      2 C           2.9249    0.1410   25.4917 C.ar    1  UNL1        0.0760
      3 N           3.3009   -0.2659   26.8856 N.ar    1  UNL1       -0.3240
      4 C           2.6603    0.2242   28.1503 C.3     1  UNL1        0.1305
      5 C           4.4300   -1.2491   26.7929 C.ar    1  UNL1        0.0601
      6 C           5.2066   -1.9875   27.8424 C.ar    1  UNL1        0.0217
      7 C           6.3051   -2.9266   27.4407 C.ar    1  UNL1        0.0563
      8 C           6.6269   -3.1273   25.9894 C.ar    1  UNL1        0.0047
      9 C           5.8503   -2.3889   24.9399 C.ar    1  UNL1        0.0016
     10 C           4.7518   -1.4498   25.3416 C.ar    1  UNL1        0.0173
     11 C           3.7362   -0.2654   20.0500 C.ar    1  UNL1        0.2357
     12 N           5.0060    0.0136   20.7982 N.ar    1  UNL1       -0.2094
     13 C           5.0344   -0.0949   22.2940 C.ar    1  UNL1        0.1021
     14 C           3.7932   -0.4822   23.0417 C.ar    1  UNL1        0.0217
     15 C           2.5233   -0.7612   22.2935 C.ar    1  UNL1        0.0177
     16 C           2.4949   -0.6528   20.7977 C.ar    1  UNL1        0.1107
     17 CL          1.2250   -0.9318   20.0496 Cl      1  UNL1       -0.0774
     18 O           3.7078   -0.1570   18.5542 O.3     1  UNL1       -0.4597
     19 C           4.0240   -1.3553   17.7092 C.3     1  UNL1        0.2070
     20 C           6.1963   -2.6454   18.3146 C.3     1  UNL1        0.0038
     21 C           4.6996   -2.5469   18.3206 C.3     1  UNL1        0.0438
     22 C           3.8785   -3.6398   18.9380 C.3     1  UNL1        0.0038
     23 C           7.0818   -3.6651   28.4902 C.2     1  UNL1        0.2640
     24 O           8.4737   -3.2285   28.8393 O.2     1  UNL1       -0.2686
     25 N           6.4665   -4.8402   29.1906 N.am    1  UNL1       -0.1852
     26 H           5.5529   -5.1268   28.9614 H       1  UNL1        0.1765
     27 S           7.2431   -5.5787   30.2401 S.O2    1  UNL1        0.0581
     28 C           8.0198   -6.3172   31.2896 C.3     1  UNL1        0.1997
     29 O           7.7578   -6.5232   29.1946 O.2     1  UNL1       -0.1543
     30 O           6.7284   -4.6342   31.2855 O.2     1  UNL1       -0.1543
@<TRIPOS>BOND
     1    20    21    1
     2    21    22    1
     3    21    19    1
     4    19    18    1
     5    18    11    1
     6    11    12   ar
     7    12    13   ar
     8    13    14   ar
     9    14     1    1
    10     1     2   ar
    11     2     3   ar
    12     3     4    1
    13     3     5   ar
    14     5     6   ar
    15     6     7   ar
    16     7    23    1
    17    23    24    2
    18    23    25   am
    19    25    27    1
    20    27    28    1
    21    27    29    2
    22    27    30    2
    23     7     8   ar
    24     8     9   ar
    25     9    10   ar
    26    14    15   ar
    27    15    16   ar
    28    16    17    1
    29    16    11   ar
    30    10     1   ar
    31    10     5   ar
    32    25    26    1
@<TRIPOS>MOLECULE
*****
 30 32 0 0 0
SMALL
GASTEIGER

@<TRIPOS>ATOM
      1 C           5.3560   -0.2648   32.4734 C.ar    1  UNL1        0.0201
      2 C           4.6216    0.6746   31.5635 C.ar    1  UNL1        0.0760
      3 N           3.7389    1.5439   32.4092 N.ar    1  UNL1       -0.3240
      4 C           2.8274    2.6254   31.9100 C.3     1  UNL1        0.1305
      5 C           3.9278    1.1416   33.8419 C.ar    1  UNL1        0.0601
      6 C           3.3189    1.6488   35.1154 C.ar    1  UNL1        0.0217
      7 C           3.7094    1.0382   36.4287 C.ar    1  UNL1        0.0563
      8 C           4.7089   -0.0797   36.4683 C.ar    1  UNL1        0.0047
      9 C           5.3178   -0.5868   35.1948 C.ar    1  UNL1        0.0016
     10 C           4.9273    0.0238   33.8816 C.ar    1  UNL1        0.0173
     11 C           8.3245   -3.3989   31.2022 C.ar    1  UNL1        0.2357
     12 N           8.6866   -1.9456   31.1198 N.ar    1  UNL1       -0.2094
     13 C           7.6971   -0.9009   31.5436 C.ar    1  UNL1        0.1021
     14 C           6.3455   -1.3095   32.0497 C.ar    1  UNL1        0.0217
     15 C           5.9834   -2.7628   32.1321 C.ar    1  UNL1        0.0177
     16 C           6.9729   -3.8075   31.7083 C.ar    1  UNL1        0.1107
     17 CL          6.6107   -5.2608   31.7907 Cl      1  UNL1       -0.0774
     18 O           9.3140   -4.4436   30.7784 O.3     1  UNL1       -0.4597
     19 C           9.5308   -4.7239   29.3209 C.3     1  UNL1        0.2070
     20 C           8.3997   -7.0338   28.9540 C.3     1  UNL1        0.0038
     21 C           8.5638   -5.5925   28.5723 C.3     1  UNL1        0.0438
     22 C           7.7610   -5.0199   27.4421 C.3     1  UNL1        0.0038
     23 C           3.1005    1.5454   37.7023 C.2     1  UNL1        0.2640
     24 O           3.8940    2.4384   38.6093 O.2     1  UNL1       -0.2686
     25 N           1.6981    1.1594   38.0688 N.am    1  UNL1       -0.1852
     26 H           1.1773    0.5733   37.4734 H       1  UNL1        0.1765
     27 S           1.0892    1.6666   39.3423 S.O2    1  UNL1        0.0581
     28 C           0.4802    2.1737   40.6160 C.3     1  UNL1        0.1997
     29 O           1.7229    0.5350   40.0959 O.2     1  UNL1       -0.1543
     30 O           0.4554    2.7981   38.5887 O.2     1  UNL1       -0.1543
@<TRIPOS>BOND
     1    20    21    1
     2    21    22    1
     3    21    19    1
     4    19    18    1
     5    18    11    1
     6    11    12   ar
     7    12    13   ar
     8    13    14   ar
     9    14     1    1
    10     1     2   ar
    11     2     3   ar
    12     3     4    1
    13     3     5   ar
    14     5     6   ar
    15     6     7   ar
    16     7    23    1
    17    23    24    2
    18    23    25   am
    19    25    27    1
    20    27    28    1
    21    27    29    2
    22    27    30    2
    23     7     8   ar
    24     8     9   ar
    25     9    10   ar
    26    14    15   ar
    27    15    16   ar
    28    16    17    1
    29    16    11   ar
    30    10     1   ar
    31    10     5   ar
    32    25    26    1
@<TRIPOS>MOLECULE
*****
 30 32 0 0 0
SMALL
GASTEIGER

@<TRIPOS>ATOM
      1 C          -0.7701    3.3631   19.9488 C.ar    1  UNL1        0.0201
      2 C          -0.1584    4.4506   19.1161 C.ar    1  UNL1        0.0760
      3 N           1.1363    3.9360   18.5603 N.ar    1  UNL1       -0.3240
      4 C           2.0774    4.6938   17.6714 C.3     1  UNL1        0.1305
      5 C           1.3247    2.5305   19.0494 C.ar    1  UNL1        0.0601
      6 C           2.4170    1.5274   18.8242 C.ar    1  UNL1        0.0217
      7 C           2.3310    0.1703   19.4572 C.ar    1  UNL1        0.0563
      8 C           1.1527   -0.1838   20.3153 C.ar    1  UNL1        0.0047
      9 C           0.0605    0.8193   20.5405 C.ar    1  UNL1        0.0016
     10 C           0.1465    2.1765   19.9075 C.ar    1  UNL1        0.0173
     11 C          -4.6705    3.6162   22.1789 C.ar    1  UNL1        0.2357
     12 N          -3.3738    3.6214   22.9328 N.ar    1  UNL1       -0.2094
     13 C          -2.0737    3.5371   22.1894 C.ar    1  UNL1        0.1021
     14 C          -2.0702    3.4475   20.6921 C.ar    1  UNL1        0.0217
     15 C          -3.3670    3.4423   19.9382 C.ar    1  UNL1        0.0177
     16 C          -4.6671    3.5267   20.6815 C.ar    1  UNL1        0.1107
     17 CL         -5.9638    3.5215   19.9275 Cl      1  UNL1       -0.0774
     18 O          -5.9706    3.7006   22.9222 O.3     1  UNL1       -0.4597
     19 C          -5.9949    4.2000   24.3364 C.3     1  UNL1        0.2070
     20 C          -6.6820    6.2218   25.8164 C.3     1  UNL1        0.0038
     21 C          -7.0165    5.2152   24.7558 C.3     1  UNL1        0.0438
     22 C          -8.3725    5.2237   24.1146 C.3     1  UNL1        0.0038
     23 C           3.4232   -0.8329   19.2320 C.2     1  UNL1        0.2640
     24 O           3.1688   -2.2888   19.4880 O.2     1  UNL1       -0.2686
     25 N           4.7699   -0.3801   18.7509 N.am    1  UNL1       -0.1852
     26 H           4.9369    0.5755   18.5829 H       1  UNL1        0.1765
     27 S           5.8622   -1.3832   18.5258 S.O2    1  UNL1        0.0581
     28 C           6.9544   -2.3864   18.3006 C.3     1  UNL1        0.1997
     29 O           5.3795   -1.5936   17.1213 O.2     1  UNL1       -0.1543
     30 O           6.3448   -1.1729   19.9303 O.2     1  UNL1       -0.1543
@<TRIPOS>BOND
     1    20    21    1
     2    21    22    1
     3    21    19    1
     4    19    18    1
     5    18    11    1
     6    11    12   ar
     7    12    13   ar
     8    13    14   ar
     9    14     1    1
    10     1     2   ar
    11     2     3   ar
    12     3     4    1
    13     3     5   ar
    14     5     6   ar
    15     6     7   ar
    16     7    23    1
    17    23    24    2
    18    23    25   am
    19    25    27    1
    20    27    28    1
    21    27    29    2
    22    27    30    2
    23     7     8   ar
    24     8     9   ar
    25     9    10   ar
    26    14    15   ar
    27    15    16   ar
    28    16    17    1
    29    16    11   ar
    30    10     1   ar
    31    10     5   ar
    32    25    26    1
