@<TRIPOS>MOLECULE
*****
 18 19 0 0 0
SMALL
GASTEIGER

@<TRIPOS>ATOM
      1 C          -7.2018  -19.6529   21.3284 C.2     1  UNL1        0.0421
      2 C          -7.9464  -20.1260   22.5415 C.2     1  UNL1        0.0033
      3 C          -9.3054  -19.5715   22.8511 C.ar    1  UNL1        0.0010
      4 C          -9.8466  -19.6488   24.2479 C.ar    1  UNL1        0.0009
      5 C         -11.2055  -19.0942   24.5574 C.ar    1  UNL1        0.0122
      6 C         -12.0232  -18.4625   23.4701 C.ar    1  UNL1        0.0682
      7 CL        -13.3822  -17.9080   23.7797 Cl      1  UNL1       -0.0814
      8 C         -11.4821  -18.3853   22.0733 C.ar    1  UNL1        0.0682
      9 CL        -12.2998  -17.7535   20.9860 Cl      1  UNL1       -0.0814
     10 C         -10.1231  -18.9398   21.7638 C.ar    1  UNL1        0.0122
     11 O          -5.7108  -21.4458   20.1828 O.2     1  UNL1       -0.2865
     12 C          -5.8429  -20.2074   21.0189 C.2     1  UNL1        0.1971
     13 C          -4.6160  -19.5235   21.5453 C.ar    1  UNL1        0.0581
     14 C          -4.7403  -18.4777   22.6134 C.ar    1  UNL1        0.0063
     15 C          -3.5135  -17.7939   23.1399 C.ar    1  UNL1        0.0208
     16 C          -2.1623  -18.1558   22.5983 C.ar    1  UNL1        0.0989
     17 N          -2.0380  -19.2016   21.5302 N.ar    1  UNL1       -0.2422
     18 C          -3.2649  -19.8855   21.0037 C.ar    1  UNL1        0.1020
@<TRIPOS>BOND
     1    11    12    2
     2    12     1    1
     3     1     2    2
     4     2     3    1
     5     3     4   ar
     6     4     5   ar
     7     5     6   ar
     8     6     7    1
     9     6     8   ar
    10     8     9    1
    11     8    10   ar
    12    12    13    1
    13    13    14   ar
    14    14    15   ar
    15    15    16   ar
    16    16    17   ar
    17    17    18   ar
    18    10     3   ar
    19    18    13   ar
@<TRIPOS>MOLECULE
*****
 18 19 0 0 0
SMALL
GASTEIGER

@<TRIPOS>ATOM
      1 C          -7.8532  -19.2086   22.4396 C.2     1  UNL1        0.0421
      2 C          -6.7950  -20.2380   22.1742 C.2     1  UNL1        0.0033
      3 C          -5.4626  -19.8201   21.6264 C.ar    1  UNL1        0.0010
      4 C          -5.0032  -20.3372   20.2955 C.ar    1  UNL1        0.0009
      5 C          -3.6708  -19.9192   19.7478 C.ar    1  UNL1        0.0122
      6 C          -2.7979  -18.9841   20.5310 C.ar    1  UNL1        0.0682
      7 CL         -1.4654  -18.5661   19.9832 Cl      1  UNL1       -0.0814
      8 C          -3.2573  -18.4669   21.8619 C.ar    1  UNL1        0.0682
      9 CL         -2.3843  -17.5318   22.6452 Cl      1  UNL1       -0.0814
     10 C          -4.5896  -18.8849   22.4096 C.ar    1  UNL1        0.0122
     11 O          -9.2663  -20.7219   24.0091 O.2     1  UNL1       -0.2865
     12 C          -9.1856  -19.6266   22.9874 C.2     1  UNL1        0.1971
     13 C         -10.4373  -18.9493   22.5136 C.ar    1  UNL1        0.0581
     14 C         -11.5008  -18.5644   23.4989 C.ar    1  UNL1        0.0063
     15 C         -12.7525  -17.8871   23.0250 C.ar    1  UNL1        0.0208
     16 C         -12.9406  -17.5945   21.5658 C.ar    1  UNL1        0.0989
     17 N         -11.8770  -17.9794   20.5806 N.ar    1  UNL1       -0.2422
     18 C         -10.6253  -18.6567   21.0545 C.ar    1  UNL1        0.1020
@<TRIPOS>BOND
     1    11    12    2
     2    12     1    1
     3     1     2    2
     4     2     3    1
     5     3     4   ar
     6     4     5   ar
     7     5     6   ar
     8     6     7    1
     9     6     8   ar
    10     8     9    1
    11     8    10   ar
    12    12    13    1
    13    13    14   ar
    14    14    15   ar
    15    15    16   ar
    16    16    17   ar
    17    17    18   ar
    18    10     3   ar
    19    18    13   ar
@<TRIPOS>MOLECULE
*****
 18 19 0 0 0
SMALL
GASTEIGER

@<TRIPOS>ATOM
      1 C          -6.5892  -19.4276   21.0916 C.2     1  UNL1        0.0421
      2 C          -7.9004  -19.4220   20.3632 C.2     1  UNL1        0.0033
      3 C          -9.0544  -18.6297   20.9022 C.ar    1  UNL1        0.0010
      4 C         -10.3691  -18.6335   20.1801 C.ar    1  UNL1        0.0009
      5 C         -11.5231  -17.8413   20.7191 C.ar    1  UNL1        0.0122
      6 C         -11.3624  -17.0452   21.9802 C.ar    1  UNL1        0.0682
      7 CL        -12.5165  -16.2529   22.5193 Cl      1  UNL1       -0.0814
      8 C         -10.0477  -17.0414   22.7024 C.ar    1  UNL1        0.0682
      9 CL         -9.8870  -16.2454   23.9635 Cl      1  UNL1       -0.0814
     10 C          -8.8937  -17.8337   22.1633 C.ar    1  UNL1        0.0122
     11 O          -5.6449  -21.6318   20.0915 O.2     1  UNL1       -0.2865
     12 C          -5.4351  -20.2199   20.5526 C.2     1  UNL1        0.1971
     13 C          -4.0713  -19.6003   20.4746 C.ar    1  UNL1        0.0581
     14 C          -3.7007  -18.7485   19.2969 C.ar    1  UNL1        0.0063
     15 C          -2.3369  -18.1289   19.2190 C.ar    1  UNL1        0.0208
     16 C          -1.3436  -18.3611   20.3189 C.ar    1  UNL1        0.0989
     17 N          -1.7142  -19.2129   21.4966 N.ar    1  UNL1       -0.2422
     18 C          -3.0781  -19.8326   21.5744 C.ar    1  UNL1        0.1020
@<TRIPOS>BOND
     1    11    12    2
     2    12     1    1
     3     1     2    2
     4     2     3    1
     5     3     4   ar
     6     4     5   ar
     7     5     6   ar
     8     6     7    1
     9     6     8   ar
    10     8     9    1
    11     8    10   ar
    12    12    13    1
    13    13    14   ar
    14    14    15   ar
    15    15    16   ar
    16    16    17   ar
    17    17    18   ar
    18    10     3   ar
    19    18    13   ar
@<TRIPOS>MOLECULE
*****
 18 19 0 0 0
SMALL
GASTEIGER

@<TRIPOS>ATOM
      1 C          -7.5022  -18.7805   22.4565 C.2     1  UNL1        0.0421
      2 C          -6.2956  -19.6286   22.1830 C.2     1  UNL1        0.0033
      3 C          -4.9870  -18.9819   21.8372 C.ar    1  UNL1        0.0010
      4 C          -4.2647  -18.1566   22.8606 C.ar    1  UNL1        0.0009
      5 C          -2.9562  -17.5100   22.5148 C.ar    1  UNL1        0.0122
      6 C          -2.3700  -17.6886   21.1457 C.ar    1  UNL1        0.0682
      7 CL         -1.0614  -17.0420   20.7999 Cl      1  UNL1       -0.0814
      8 C          -3.0923  -18.5139   20.1224 C.ar    1  UNL1        0.0682
      9 CL         -2.5060  -18.6925   18.7533 Cl      1  UNL1       -0.0814
     10 C          -4.4008  -19.1605   20.4681 C.ar    1  UNL1        0.0122
     11 O          -8.8331  -20.6844   23.6201 O.2     1  UNL1       -0.2865
     12 C          -8.8108  -19.4271   22.8023 C.2     1  UNL1        0.1971
     13 C         -10.0970  -18.8166   22.3302 C.ar    1  UNL1        0.0581
     14 C         -11.2274  -18.6099   23.2942 C.ar    1  UNL1        0.0063
     15 C         -12.5136  -17.9993   22.8221 C.ar    1  UNL1        0.0208
     16 C         -12.6694  -17.5955   21.3859 C.ar    1  UNL1        0.0989
     17 N         -11.5389  -17.8022   20.4218 N.ar    1  UNL1       -0.2422
     18 C         -10.2527  -18.4128   20.8940 C.ar    1  UNL1        0.1020
@<TRIPOS>BOND
     1    11    12    2
     2    12     1    1
     3     1     2    2
     4     2     3    1
     5     3     4   ar
     6     4     5   ar
     7     5     6   ar
     8     6     7    1
     9     6     8   ar
    10     8     9    1
    11     8    10   ar
    12    12    13    1
    13    13    14   ar
    14    14    15   ar
    15    15    16   ar
    16    16    17   ar
    17    17    18   ar
    18    10     3   ar
    19    18    13   ar
@<TRIPOS>MOLECULE
*****
 18 19 0 0 0
SMALL
GASTEIGER

@<TRIPOS>ATOM
      1 C          -7.6474  -16.6604   23.3545 C.2     1  UNL1        0.0421
      2 C          -7.4257  -18.0078   22.7338 C.2     1  UNL1        0.0033
      3 C          -6.0426  -18.4329   22.3383 C.ar    1  UNL1        0.0010
      4 C          -4.8500  -17.8452   23.0327 C.ar    1  UNL1        0.0009
      5 C          -3.4669  -18.2704   22.6372 C.ar    1  UNL1        0.0122
      6 C          -3.2766  -19.2833   21.5473 C.ar    1  UNL1        0.0682
      7 CL         -1.8934  -19.7084   21.1518 Cl      1  UNL1       -0.0814
      8 C          -4.4692  -19.8710   20.8529 C.ar    1  UNL1        0.0682
      9 CL         -4.2788  -20.8839   19.7631 Cl      1  UNL1       -0.0814
     10 C          -5.8522  -19.4458   21.2484 C.ar    1  UNL1        0.0122
     11 O          -9.2325  -15.3709   24.9592 O.2     1  UNL1       -0.2865
     12 C          -9.0305  -16.2352   23.7500 C.2     1  UNL1        0.1971
     13 C         -10.2116  -16.6743   22.9362 C.ar    1  UNL1        0.0581
     14 C         -11.2028  -17.6407   23.5139 C.ar    1  UNL1        0.0063
     15 C         -12.3839  -18.0798   22.7002 C.ar    1  UNL1        0.0208
     16 C         -12.5738  -17.5526   21.3087 C.ar    1  UNL1        0.0989
     17 N         -11.5826  -16.5863   20.7311 N.ar    1  UNL1       -0.2422
     18 C         -10.4015  -16.1471   21.5449 C.ar    1  UNL1        0.1020
@<TRIPOS>BOND
     1    11    12    2
     2    12     1    1
     3     1     2    2
     4     2     3    1
     5     3     4   ar
     6     4     5   ar
     7     5     6   ar
     8     6     7    1
     9     6     8   ar
    10     8     9    1
    11     8    10   ar
    12    12    13    1
    13    13    14   ar
    14    14    15   ar
    15    15    16   ar
    16    16    17   ar
    17    17    18   ar
    18    10     3   ar
    19    18    13   ar
@<TRIPOS>MOLECULE
*****
 18 19 0 0 0
SMALL
GASTEIGER

@<TRIPOS>ATOM
      1 C          -7.7511  -16.7831   23.1377 C.2     1  UNL1        0.0421
      2 C          -7.5415  -18.1920   22.6676 C.2     1  UNL1        0.0033
      3 C          -6.1926  -18.6253   22.1747 C.ar    1  UNL1        0.0010
      4 C          -6.0864  -19.6330   21.0688 C.ar    1  UNL1        0.0009
      5 C          -4.7376  -20.0663   20.5759 C.ar    1  UNL1        0.0122
      6 C          -3.4950  -19.4918   21.1890 C.ar    1  UNL1        0.0682
      7 CL         -2.1461  -19.9251   20.6961 Cl      1  UNL1       -0.0814
      8 C          -3.6012  -18.4840   22.2949 C.ar    1  UNL1        0.0682
      9 CL         -2.3586  -17.9095   22.9080 Cl      1  UNL1       -0.0814
     10 C          -4.9500  -18.0508   22.7878 C.ar    1  UNL1        0.0122
     11 O          -9.2102  -15.4846   24.8510 O.2     1  UNL1       -0.2865
     12 C          -9.1000  -16.3498   23.6306 C.2     1  UNL1        0.1971
     13 C         -10.3386  -16.7817   22.9031 C.ar    1  UNL1        0.0581
     14 C         -10.6314  -16.2418   21.5346 C.ar    1  UNL1        0.0063
     15 C         -11.8700  -16.6736   20.8071 C.ar    1  UNL1        0.0208
     16 C         -12.8159  -17.6454   21.4481 C.ar    1  UNL1        0.0989
     17 N         -12.5232  -18.1853   22.8166 N.ar    1  UNL1       -0.2422
     18 C         -11.2845  -17.7534   23.5441 C.ar    1  UNL1        0.1020
@<TRIPOS>BOND
     1    11    12    2
     2    12     1    1
     3     1     2    2
     4     2     3    1
     5     3     4   ar
     6     4     5   ar
     7     5     6   ar
     8     6     7    1
     9     6     8   ar
    10     8     9    1
    11     8    10   ar
    12    12    13    1
    13    13    14   ar
    14    14    15   ar
    15    15    16   ar
    16    16    17   ar
    17    17    18   ar
    18    10     3   ar
    19    18    13   ar
@<TRIPOS>MOLECULE
*****
 18 19 0 0 0
SMALL
GASTEIGER

@<TRIPOS>ATOM
      1 C         -12.2725   -6.8112   19.0050 C.2     1  UNL1        0.0421
      2 C         -13.1461   -7.6211   18.0935 C.2     1  UNL1        0.0033
      3 C         -14.5425   -7.9749   18.5119 C.ar    1  UNL1        0.0010
      4 C         -15.4250   -6.9345   19.1353 C.ar    1  UNL1        0.0009
      5 C         -16.8213   -7.2884   19.5537 C.ar    1  UNL1        0.0122
      6 C         -17.3351   -8.6826   19.3487 C.ar    1  UNL1        0.0682
      7 CL        -18.7315   -9.0365   19.7671 Cl      1  UNL1       -0.0814
      8 C         -16.4526   -9.7231   18.7253 C.ar    1  UNL1        0.0682
      9 CL        -16.9664  -11.1174   18.5204 Cl      1  UNL1       -0.0814
     10 C         -15.0563   -9.3692   18.3069 C.ar    1  UNL1        0.0122
     11 O          -9.7346   -7.3636   18.9412 O.2     1  UNL1       -0.2865
     12 C         -10.8761   -6.4574   18.5865 C.2     1  UNL1        0.1971
     13 C         -10.6214   -5.1975   17.8135 C.ar    1  UNL1        0.0581
     14 C          -9.2940   -4.9805   17.1494 C.ar    1  UNL1        0.0063
     15 C          -9.0392   -3.7206   16.3764 C.ar    1  UNL1        0.0208
     16 C         -10.1118   -2.6775   16.2674 C.ar    1  UNL1        0.0989
     17 N         -11.4391   -2.8946   16.9316 N.ar    1  UNL1       -0.2422
     18 C         -11.6939   -4.1546   17.7046 C.ar    1  UNL1        0.1020
@<TRIPOS>BOND
     1    11    12    2
     2    12     1    1
     3     1     2    2
     4     2     3    1
     5     3     4   ar
     6     4     5   ar
     7     5     6   ar
     8     6     7    1
     9     6     8   ar
    10     8     9    1
    11     8    10   ar
    12    12    13    1
    13    13    14   ar
    14    14    15   ar
    15    15    16   ar
    16    16    17   ar
    17    17    18   ar
    18    10     3   ar
    19    18    13   ar
@<TRIPOS>MOLECULE
*****
 18 19 0 0 0
SMALL
GASTEIGER

@<TRIPOS>ATOM
      1 C         -11.3121   -6.1892   18.8092 C.2     1  UNL1        0.0421
      2 C         -12.7591   -5.8041   18.8981 C.2     1  UNL1        0.0033
      3 C         -13.8241   -6.8502   18.7511 C.ar    1  UNL1        0.0010
      4 C         -13.5715   -8.0641   17.9069 C.ar    1  UNL1        0.0009
      5 C         -14.6365   -9.1101   17.7599 C.ar    1  UNL1        0.0122
      6 C         -15.9539   -8.9423   18.4571 C.ar    1  UNL1        0.0682
      7 CL        -17.0189   -9.9885   18.3101 Cl      1  UNL1       -0.0814
      8 C         -16.2065   -7.7285   19.3013 C.ar    1  UNL1        0.0682
      9 CL        -17.5239   -7.5607   19.9985 Cl      1  UNL1       -0.0814
     10 C         -15.1415   -6.6824   19.4483 C.ar    1  UNL1        0.0122
     11 O          -9.0776   -5.3858   19.8636 O.2     1  UNL1       -0.2865
     12 C         -10.2472   -5.1431   18.9563 C.2     1  UNL1        0.1971
     13 C         -10.3518   -3.8543   18.1960 C.ar    1  UNL1        0.0581
     14 C         -11.0490   -2.6762   18.8093 C.ar    1  UNL1        0.0063
     15 C         -11.1536   -1.3874   18.0491 C.ar    1  UNL1        0.0208
     16 C         -10.5611   -1.2766   16.6755 C.ar    1  UNL1        0.0989
     17 N          -9.8639   -2.4547   16.0622 N.ar    1  UNL1       -0.2422
     18 C          -9.7593   -3.7436   16.8225 C.ar    1  UNL1        0.1020
@<TRIPOS>BOND
     1    11    12    2
     2    12     1    1
     3     1     2    2
     4     2     3    1
     5     3     4   ar
     6     4     5   ar
     7     5     6   ar
     8     6     7    1
     9     6     8   ar
    10     8     9    1
    11     8    10   ar
    12    12    13    1
    13    13    14   ar
    14    14    15   ar
    15    15    16   ar
    16    16    17   ar
    17    17    18   ar
    18    10     3   ar
    19    18    13   ar
@<TRIPOS>MOLECULE
*****
 18 19 0 0 0
SMALL
GASTEIGER

@<TRIPOS>ATOM
      1 C         -14.3330   -8.8596   17.5570 C.2     1  UNL1        0.0421
      2 C         -13.7196   -7.8276   18.4563 C.2     1  UNL1        0.0033
      3 C         -12.6064   -6.9585   17.9507 C.ar    1  UNL1        0.0010
      4 C         -12.5054   -6.6446   16.4875 C.ar    1  UNL1        0.0009
      5 C         -11.3922   -5.7755   15.9820 C.ar    1  UNL1        0.0122
      6 C         -10.3800   -5.2205   16.9398 C.ar    1  UNL1        0.0682
      7 CL         -9.2668   -4.3514   16.4343 Cl      1  UNL1       -0.0814
      8 C         -10.4810   -5.5344   18.4031 C.ar    1  UNL1        0.0682
      9 CL         -9.4688   -4.9793   19.3609 Cl      1  UNL1       -0.0814
     10 C         -11.5942   -6.4035   18.9085 C.ar    1  UNL1        0.0122
     11 O         -15.2545  -11.2133   18.1577 O.2     1  UNL1       -0.2865
     12 C         -15.4462   -9.7286   18.0625 C.2     1  UNL1        0.1971
     13 C         -16.7511   -9.1131   18.4728 C.ar    1  UNL1        0.0581
     14 C         -17.0031   -8.7800   19.9135 C.ar    1  UNL1        0.0063
     15 C         -18.3079   -8.1644   20.3238 C.ar    1  UNL1        0.0208
     16 C         -19.3609   -7.8819   19.2934 C.ar    1  UNL1        0.0989
     17 N         -19.1088   -8.2150   17.8527 N.ar    1  UNL1       -0.2422
     18 C         -17.8039   -8.8306   17.4424 C.ar    1  UNL1        0.1020
@<TRIPOS>BOND
     1    11    12    2
     2    12     1    1
     3     1     2    2
     4     2     3    1
     5     3     4   ar
     6     4     5   ar
     7     5     6   ar
     8     6     7    1
     9     6     8   ar
    10     8     9    1
    11     8    10   ar
    12    12    13    1
    13    13    14   ar
    14    14    15   ar
    15    15    16   ar
    16    16    17   ar
    17    17    18   ar
    18    10     3   ar
    19    18    13   ar
