@<TRIPOS>MOLECULE
*****
 43 48 0 0 0
SMALL
GASTEIGER

@<TRIPOS>ATOM
      1 C          -0.3730    3.5779   21.9649 C.3     1  UNL1        0.1631
      2 N          -1.8357    3.5743   22.2973 N.ar    1  UNL1       -0.3047
      3 C          -2.4264    3.5403   23.6757 C.ar    1  UNL1        0.1441
      4 N          -3.9203    3.5491   23.5401 N.ar    1  UNL1       -0.2267
      5 C          -4.2527    3.5885   22.0779 C.ar    1  UNL1        0.1010
      6 C          -5.5621    3.6122   21.3466 C.ar    1  UNL1        0.0526
      7 C          -5.5832    3.6514   19.8472 C.ar    1  UNL1        0.1690
      8 F          -6.8927    3.6751   19.1159 F       1  UNL1       -0.2017
      9 C          -4.2948    3.6670   19.0792 C.ar    1  UNL1        0.1689
     10 F          -4.3159    3.7063   17.5798 F       1  UNL1       -0.2017
     11 C          -2.9854    3.6433   19.8105 C.ar    1  UNL1        0.0507
     12 C          -2.9644    3.6041   21.3098 C.ar    1  UNL1        0.0816
     13 C          -1.6583    3.5040   24.9635 C.ar    1  UNL1        0.0342
     14 C          -0.9613    2.2447   25.3858 C.ar    1  UNL1        0.0039
     15 C          -0.1931    2.2083   26.6736 C.ar    1  UNL1        0.0115
     16 C          -0.1219    3.4312   27.5392 C.ar    1  UNL1        0.0577
     17 CL          0.6464    3.3948   28.8271 Cl      1  UNL1       -0.0822
     18 C          -0.8188    4.6906   27.1169 C.ar    1  UNL1        0.0115
     19 C          -1.5870    4.7270   25.8291 C.ar    1  UNL1        0.0039
     20 C           0.4838    4.7429   22.3629 C.3     1  UNL1        0.0297
     21 C           0.4343    6.0157   21.5706 C.3     1  UNL1        0.0024
     22 C           1.2911    7.1807   21.9687 C.3     1  UNL1        0.0001
     23 C           2.1975    7.0731   23.1590 C.3     1  UNL1        0.0000
     24 C           2.2470    5.8004   23.9514 C.3     1  UNL1        0.0001
     25 C           1.3902    4.6354   23.5533 C.3     1  UNL1        0.0024
     26 O          -0.6084    1.2213   20.8966 O.2     1  UNL1       -0.2727
     27 C           0.2330    2.4163   21.2344 C.2     1  UNL1        0.2469
     28 N           1.6803    2.4497   20.8417 N.am    1  UNL1       -0.2806
     29 H           2.2325    3.2340   21.0634 H       1  UNL1        0.1550
     30 C           2.2862    1.2881   20.1112 C.ar    1  UNL1        0.0784
     31 C           2.5145    1.3697   18.6310 C.ar    1  UNL1        0.0201
     32 C           3.1204    0.2081   17.9004 C.ar    1  UNL1        0.0383
     33 C           3.4979   -1.0350   18.6501 C.ar    1  UNL1        0.1411
     34 C           3.2696   -1.1165   20.1304 C.ar    1  UNL1        0.0678
     35 C           2.6637    0.0450   20.8610 C.ar    1  UNL1        0.1565
     36 F           2.4354   -0.0366   22.3412 F       1  UNL1       -0.2028
     37 O           4.1038   -2.1966   17.9196 O.3     1  UNL1       -0.4773
     38 C           4.8233   -3.2693   18.6823 C.3     1  UNL1        0.1646
     39 C           5.0622   -4.5424   19.4387 C.3     1  UNL1        0.0495
     40 C           3.6889   -4.2190   18.9291 C.3     1  UNL1        0.0495
     41 C           6.2077   -2.6921   18.7003 C.2     1  UNL1        0.0863
     42 O           6.8481   -2.2391   17.4217 O.co2   1  UNL1       -0.5457
     43 O           6.9517   -2.5678   19.9969 O.co2   1  UNL1       -0.5457
@<TRIPOS>UNITY_ATOM_ATTR
42 1
charge -1
@<TRIPOS>BOND
     1    26    27    2
     2    27    28   am
     3    28    30    1
     4    30    31   ar
     5    31    32   ar
     6    32    33   ar
     7    33    37    1
     8    37    38    1
     9    38    41    1
    10    41    42   ar
    11    41    43   ar
    12    38    39    1
    13    39    40    1
    14    33    34   ar
    15    34    35   ar
    16    35    36    1
    17    27     1    1
    18     1    20    1
    19    20    21    1
    20    21    22    1
    21    22    23    1
    22    23    24    1
    23    24    25    1
    24     1     2    1
    25     2     3   ar
    26     3    13    1
    27    13    14   ar
    28    14    15   ar
    29    15    16   ar
    30    16    17    1
    31    16    18   ar
    32    18    19   ar
    33     3     4   ar
    34     4     5   ar
    35     5     6   ar
    36     6     7   ar
    37     7     8    1
    38     7     9   ar
    39     9    10    1
    40     9    11   ar
    41    11    12   ar
    42    35    30   ar
    43    25    20    1
    44    12     2   ar
    45    40    38    1
    46    19    13   ar
    47    12     5   ar
    48    28    29    1
@<TRIPOS>MOLECULE
*****
 43 48 0 0 0
SMALL
GASTEIGER

@<TRIPOS>ATOM
      1 C          -0.9065    3.4000   20.1787 C.3     1  UNL1        0.1631
      2 N          -1.8249    3.6262   21.3428 N.ar    1  UNL1       -0.3047
      3 C          -3.2228    4.1655   21.2712 C.ar    1  UNL1        0.1441
      4 N          -3.7685    4.2256   22.6671 N.ar    1  UNL1       -0.2267
      5 C          -2.7079    3.7234   23.6014 C.ar    1  UNL1        0.1010
      6 C          -2.6808    3.5555   25.0917 C.ar    1  UNL1        0.0526
      7 C          -1.4524    3.0172   25.7636 C.ar    1  UNL1        0.1690
      8 F          -1.4253    2.8493   27.2540 F       1  UNL1       -0.2017
      9 C          -0.2512    2.6468   24.9452 C.ar    1  UNL1        0.1689
     10 F           0.9772    2.1085   25.6171 F       1  UNL1       -0.2017
     11 C          -0.2783    2.8147   23.4549 C.ar    1  UNL1        0.0507
     12 C          -1.5067    3.3529   22.7830 C.ar    1  UNL1        0.0816
     13 C          -3.9476    4.5732   20.0228 C.ar    1  UNL1        0.0342
     14 C          -4.0002    6.0183   19.6242 C.ar    1  UNL1        0.0039
     15 C          -4.7250    6.4260   18.3758 C.ar    1  UNL1        0.0115
     16 C          -5.3972    5.3886   17.5262 C.ar    1  UNL1        0.0577
     17 CL         -6.1220    5.7964   16.2778 Cl      1  UNL1       -0.0822
     18 C          -5.3446    3.9436   17.9248 C.ar    1  UNL1        0.0115
     19 C          -4.6198    3.5358   19.1731 C.ar    1  UNL1        0.0039
     20 C          -0.8696    4.3866   19.0495 C.3     1  UNL1        0.0297
     21 C          -1.2774    3.9630   17.6696 C.3     1  UNL1        0.0024
     22 C          -1.2405    4.9497   16.5405 C.3     1  UNL1        0.0001
     23 C          -0.7959    6.3602   16.7912 C.3     1  UNL1        0.0000
     24 C          -0.3881    6.7839   18.1712 C.3     1  UNL1        0.0001
     25 C          -0.4250    5.7972   19.3003 C.3     1  UNL1        0.0024
     26 O          -0.5858    0.8415   20.4977 O.2     1  UNL1       -0.2727
     27 C          -0.0248    2.1868   20.1436 C.2     1  UNL1        0.2469
     28 N           1.4178    2.3191   19.7545 N.am    1  UNL1       -0.2806
     29 H           1.7860    3.2021   19.5221 H       1  UNL1        0.1550
     30 C           2.2994    1.1061   19.7195 C.ar    1  UNL1        0.0784
     31 C           2.7034    0.5104   18.4035 C.ar    1  UNL1        0.0201
     32 C           3.5850   -0.7028   18.3684 C.ar    1  UNL1        0.0383
     33 C           4.0625   -1.3202   19.6493 C.ar    1  UNL1        0.1411
     34 C           3.6585   -0.7244   20.9653 C.ar    1  UNL1        0.0678
     35 C           2.7769    0.4887   21.0004 C.ar    1  UNL1        0.1565
     36 F           2.3729    1.0844   22.3164 F       1  UNL1       -0.2028
     37 O           4.9441   -2.5332   19.6143 O.3     1  UNL1       -0.4773
     38 C           4.4097   -3.8618   20.0608 C.3     1  UNL1        0.1646
     39 C           3.6343   -5.1458   20.0476 C.3     1  UNL1        0.0495
     40 C           3.5301   -4.1948   18.8922 C.3     1  UNL1        0.0495
     41 C           5.1036   -3.9902   21.3844 C.2     1  UNL1        0.0863
     42 O           4.3408   -3.7646   22.6561 O.co2   1  UNL1       -0.5457
     43 O           6.5603   -4.3443   21.4363 O.co2   1  UNL1       -0.5457
@<TRIPOS>UNITY_ATOM_ATTR
42 1
charge -1
@<TRIPOS>BOND
     1    26    27    2
     2    27    28   am
     3    28    30    1
     4    30    31   ar
     5    31    32   ar
     6    32    33   ar
     7    33    37    1
     8    37    38    1
     9    38    41    1
    10    41    42   ar
    11    41    43   ar
    12    38    39    1
    13    39    40    1
    14    33    34   ar
    15    34    35   ar
    16    35    36    1
    17    27     1    1
    18     1    20    1
    19    20    21    1
    20    21    22    1
    21    22    23    1
    22    23    24    1
    23    24    25    1
    24     1     2    1
    25     2     3   ar
    26     3    13    1
    27    13    14   ar
    28    14    15   ar
    29    15    16   ar
    30    16    17    1
    31    16    18   ar
    32    18    19   ar
    33     3     4   ar
    34     4     5   ar
    35     5     6   ar
    36     6     7   ar
    37     7     8    1
    38     7     9   ar
    39     9    10    1
    40     9    11   ar
    41    11    12   ar
    42    35    30   ar
    43    25    20    1
    44    12     2   ar
    45    40    38    1
    46    19    13   ar
    47    12     5   ar
    48    28    29    1
@<TRIPOS>MOLECULE
*****
 43 48 0 0 0
SMALL
GASTEIGER

@<TRIPOS>ATOM
      1 C           3.2786   -0.0374   27.8166 C.3     1  UNL1        0.1631
      2 N           4.1069   -0.1872   29.0581 N.ar    1  UNL1       -0.3047
      3 C           3.9961    0.6495   30.2982 C.ar    1  UNL1        0.1441
      4 N           5.0121    0.1538   31.2841 N.ar    1  UNL1       -0.2267
      5 C           5.7508   -0.9892   30.6534 C.ar    1  UNL1        0.1010
      6 C           6.8606   -1.8654   31.1541 C.ar    1  UNL1        0.0526
      7 C           7.4110   -2.9523   30.2790 C.ar    1  UNL1        0.1690
      8 F           8.5208   -3.8285   30.7797 F       1  UNL1       -0.2017
      9 C           6.8516   -3.1630   28.9033 C.ar    1  UNL1        0.1689
     10 F           7.4020   -4.2500   28.0282 F       1  UNL1       -0.2017
     11 C           5.7418   -2.2869   28.4026 C.ar    1  UNL1        0.0507
     12 C           5.1914   -1.2000   29.2777 C.ar    1  UNL1        0.0816
     13 C           3.0375    1.7828   30.5143 C.ar    1  UNL1        0.0342
     14 C           1.8147    1.5801   31.3590 C.ar    1  UNL1        0.0039
     15 C           0.8562    2.7135   31.5752 C.ar    1  UNL1        0.0115
     16 C           1.1205    4.0495   30.9466 C.ar    1  UNL1        0.0577
     17 CL          0.1619    5.1828   31.1627 Cl      1  UNL1       -0.0822
     18 C           2.3433    4.2522   30.1019 C.ar    1  UNL1        0.0115
     19 C           3.3018    3.1189   29.8857 C.ar    1  UNL1        0.0039
     20 C           1.8316    0.3430   27.9216 C.3     1  UNL1        0.0297
     21 C           0.8858   -0.5147   28.7091 C.3     1  UNL1        0.0024
     22 C          -0.5613   -0.1342   28.8141 C.3     1  UNL1        0.0001
     23 C          -1.0628    1.1039   28.1318 C.3     1  UNL1        0.0000
     24 C          -0.1171    1.9616   27.3443 C.3     1  UNL1        0.0001
     25 C           1.3300    1.5811   27.2393 C.3     1  UNL1        0.0024
     26 O           4.8272    0.7545   25.8865 O.2     1  UNL1       -0.2727
     27 C           3.8976   -0.2680   26.4697 C.2     1  UNL1        0.2469
     28 N           3.5868   -1.5211   25.7061 N.am    1  UNL1       -0.2806
     29 H           2.9766   -2.1923   26.0889 H       1  UNL1        0.1550
     30 C           4.2057   -1.7517   24.3594 C.ar    1  UNL1        0.0784
     31 C           5.4524   -2.5769   24.2383 C.ar    1  UNL1        0.0201
     32 C           6.0715   -2.8075   22.8915 C.ar    1  UNL1        0.0383
     33 C           5.4437   -2.2128   21.6659 C.ar    1  UNL1        0.1411
     34 C           4.1970   -1.3876   21.7870 C.ar    1  UNL1        0.0678
     35 C           3.5780   -1.1570   23.1337 C.ar    1  UNL1        0.1565
     36 F           2.3312   -0.3317   23.2547 F       1  UNL1       -0.2028
     37 O           6.0626   -2.4433   20.3191 O.3     1  UNL1       -0.4773
     38 C           5.3251   -3.2352   19.2805 C.3     1  UNL1        0.1646
     39 C           4.4860   -4.3150   18.6639 C.3     1  UNL1        0.0495
     40 C           4.7766   -4.3390   20.1353 C.3     1  UNL1        0.0495
     41 C           5.6174   -2.4066   18.0648 C.2     1  UNL1        0.0863
     42 O           7.0195   -2.3136   17.5400 O.co2   1  UNL1       -0.5457
     43 O           4.5077   -1.6709   17.3740 O.co2   1  UNL1       -0.5457
@<TRIPOS>UNITY_ATOM_ATTR
42 1
charge -1
@<TRIPOS>BOND
     1    26    27    2
     2    27    28   am
     3    28    30    1
     4    30    31   ar
     5    31    32   ar
     6    32    33   ar
     7    33    37    1
     8    37    38    1
     9    38    41    1
    10    41    42   ar
    11    41    43   ar
    12    38    39    1
    13    39    40    1
    14    33    34   ar
    15    34    35   ar
    16    35    36    1
    17    27     1    1
    18     1    20    1
    19    20    21    1
    20    21    22    1
    21    22    23    1
    22    23    24    1
    23    24    25    1
    24     1     2    1
    25     2     3   ar
    26     3    13    1
    27    13    14   ar
    28    14    15   ar
    29    15    16   ar
    30    16    17    1
    31    16    18   ar
    32    18    19   ar
    33     3     4   ar
    34     4     5   ar
    35     5     6   ar
    36     6     7   ar
    37     7     8    1
    38     7     9   ar
    39     9    10    1
    40     9    11   ar
    41    11    12   ar
    42    35    30   ar
    43    25    20    1
    44    12     2   ar
    45    40    38    1
    46    19    13   ar
    47    12     5   ar
    48    28    29    1
@<TRIPOS>MOLECULE
*****
 43 48 0 0 0
SMALL
GASTEIGER

@<TRIPOS>ATOM
      1 C          -1.2208    3.8492   21.3604 C.3     1  UNL1        0.1631
      2 N          -1.8957    3.6819   22.6895 N.ar    1  UNL1       -0.3047
      3 C          -3.3700    3.7795   22.9481 C.ar    1  UNL1        0.1441
      4 N          -3.6003    3.5455   24.4117 N.ar    1  UNL1       -0.2267
      5 C          -2.2684    3.3033   25.0576 C.ar    1  UNL1        0.1010
      6 C          -1.8787    3.0168   26.4775 C.ar    1  UNL1        0.0526
      7 C          -0.4355    2.8147   26.8330 C.ar    1  UNL1        0.1690
      8 F          -0.0458    2.5282   28.2530 F       1  UNL1       -0.2017
      9 C           0.6180    2.8990   25.7686 C.ar    1  UNL1        0.1689
     10 F           2.0612    2.6969   26.1241 F       1  UNL1       -0.2017
     11 C           0.2284    3.1854   24.3487 C.ar    1  UNL1        0.0507
     12 C          -1.2148    3.3876   23.9932 C.ar    1  UNL1        0.0816
     13 C          -4.4282    4.0616   21.9231 C.ar    1  UNL1        0.0342
     14 C          -5.1013    5.4016   21.8893 C.ar    1  UNL1        0.0039
     15 C          -6.1595    5.6837   20.8643 C.ar    1  UNL1        0.0115
     16 C          -6.5445    4.6258   19.8731 C.ar    1  UNL1        0.0577
     17 CL         -7.6028    4.9079   18.8480 Cl      1  UNL1       -0.0822
     18 C          -5.8714    3.2857   19.9069 C.ar    1  UNL1        0.0115
     19 C          -4.8132    3.0036   20.9319 C.ar    1  UNL1        0.0039
     20 C          -1.7080    4.8911   20.3977 C.3     1  UNL1        0.0297
     21 C          -2.2156    4.4846   19.0459 C.3     1  UNL1        0.0024
     22 C          -2.7028    5.5265   18.0832 C.3     1  UNL1        0.0001
     23 C          -2.6826    6.9751   18.4721 C.3     1  UNL1        0.0000
     24 C          -2.1751    7.3817   19.8239 C.3     1  UNL1        0.0001
     25 C          -1.6878    6.3397   20.7866 C.3     1  UNL1        0.0024
     26 O           1.3143    3.5657   20.8670 O.2     1  UNL1       -0.2727
     27 C          -0.0585    2.9746   20.9940 C.2     1  UNL1        0.2469
     28 N          -0.2690    1.5089   20.7546 N.am    1  UNL1       -0.2806
     29 H          -1.1699    1.1208   20.8380 H       1  UNL1        0.1550
     30 C           0.8933    0.6343   20.3883 C.ar    1  UNL1        0.0784
     31 C           1.5997   -0.1573   21.4487 C.ar    1  UNL1        0.0201
     32 C           2.7621   -1.0319   21.0824 C.ar    1  UNL1        0.0383
     33 C           3.2180   -1.1148   19.6557 C.ar    1  UNL1        0.1411
     34 C           2.5116   -0.3231   18.5954 C.ar    1  UNL1        0.0678
     35 C           1.3493    0.5514   18.9617 C.ar    1  UNL1        0.1565
     36 F           0.6429    1.3431   17.9013 F       1  UNL1       -0.2028
     37 O           4.3803   -1.9894   19.2894 O.3     1  UNL1       -0.4773
     38 C           4.4082   -3.4230   19.7297 C.3     1  UNL1        0.1646
     39 C           4.0099   -4.8623   19.8705 C.3     1  UNL1        0.0495
     40 C           3.1906   -3.9371   19.0203 C.3     1  UNL1        0.0495
     41 C           5.6354   -3.4069   20.5920 C.2     1  UNL1        0.0863
     42 O           5.7346   -4.3270   21.7725 O.co2   1  UNL1       -0.5457
     43 O           6.7634   -2.4708   20.2739 O.co2   1  UNL1       -0.5457
@<TRIPOS>UNITY_ATOM_ATTR
42 1
charge -1
@<TRIPOS>BOND
     1    26    27    2
     2    27    28   am
     3    28    30    1
     4    30    31   ar
     5    31    32   ar
     6    32    33   ar
     7    33    37    1
     8    37    38    1
     9    38    41    1
    10    41    42   ar
    11    41    43   ar
    12    38    39    1
    13    39    40    1
    14    33    34   ar
    15    34    35   ar
    16    35    36    1
    17    27     1    1
    18     1    20    1
    19    20    21    1
    20    21    22    1
    21    22    23    1
    22    23    24    1
    23    24    25    1
    24     1     2    1
    25     2     3   ar
    26     3    13    1
    27    13    14   ar
    28    14    15   ar
    29    15    16   ar
    30    16    17    1
    31    16    18   ar
    32    18    19   ar
    33     3     4   ar
    34     4     5   ar
    35     5     6   ar
    36     6     7   ar
    37     7     8    1
    38     7     9   ar
    39     9    10    1
    40     9    11   ar
    41    11    12   ar
    42    35    30   ar
    43    25    20    1
    44    12     2   ar
    45    40    38    1
    46    19    13   ar
    47    12     5   ar
    48    28    29    1
@<TRIPOS>MOLECULE
*****
 43 48 0 0 0
SMALL
GASTEIGER

@<TRIPOS>ATOM
      1 C           0.5639    3.5659   23.7072 C.3     1  UNL1        0.1631
      2 N          -0.9128    3.4809   23.9569 N.ar    1  UNL1       -0.3047
      3 C          -1.5755    3.3767   25.2986 C.ar    1  UNL1        0.1441
      4 N          -3.0582    3.3166   25.0797 N.ar    1  UNL1       -0.2267
      5 C          -3.3118    3.3836   23.6028 C.ar    1  UNL1        0.1010
      6 C          -4.5789    3.3653   22.8002 C.ar    1  UNL1        0.0526
      7 C          -4.5200    3.4485   21.3037 C.ar    1  UNL1        0.1690
      8 F          -5.7872    3.4301   20.5011 F       1  UNL1       -0.2017
      9 C          -3.1941    3.5501   20.6097 C.ar    1  UNL1        0.1689
     10 F          -3.1352    3.6333   19.1132 F       1  UNL1       -0.2017
     11 C          -1.9270    3.5684   21.4123 C.ar    1  UNL1        0.0507
     12 C          -1.9859    3.4852   22.9089 C.ar    1  UNL1        0.0816
     13 C          -0.8779    3.3393   26.6260 C.ar    1  UNL1        0.0342
     14 C          -0.4688    2.0247   27.2213 C.ar    1  UNL1        0.0039
     15 C           0.2288    1.9872   28.5487 C.ar    1  UNL1        0.0115
     16 C           0.5172    3.2643   29.2807 C.ar    1  UNL1        0.0577
     17 CL          1.2148    3.2267   30.6081 Cl      1  UNL1       -0.0822
     18 C           0.1081    4.5788   28.6853 C.ar    1  UNL1        0.0115
     19 C          -0.5894    4.6164   27.3580 C.ar    1  UNL1        0.0039
     20 C           1.4122    4.4876   24.5322 C.3     1  UNL1        0.0297
     21 C           2.5051    3.9298   25.3952 C.3     1  UNL1        0.0024
     22 C           3.3534    4.8515   26.2202 C.3     1  UNL1        0.0001
     23 C           3.1091    6.3310   26.1823 C.3     1  UNL1        0.0000
     24 C           2.0162    6.8888   25.3194 C.3     1  UNL1        0.0001
     25 C           1.1679    5.9671   24.4943 C.3     1  UNL1        0.0024
     26 O           1.7883    3.3861   21.4227 O.2     1  UNL1       -0.2727
     27 C           1.1921    2.7292   22.6323 C.2     1  UNL1        0.2469
     28 N           1.2243    1.2356   22.7671 N.am    1  UNL1       -0.2806
     29 H           0.8330    0.8044   23.5610 H       1  UNL1        0.1550
     30 C           1.8525    0.3990   21.6922 C.ar    1  UNL1        0.0784
     31 C           3.2108   -0.2005   21.9062 C.ar    1  UNL1        0.0201
     32 C           3.8392   -1.0372   20.8314 C.ar    1  UNL1        0.0383
     33 C           3.1093   -1.2743   19.5426 C.ar    1  UNL1        0.1411
     34 C           1.7510   -0.6748   19.3287 C.ar    1  UNL1        0.0678
     35 C           1.1226    0.1619   20.4035 C.ar    1  UNL1        0.1565
     36 F          -0.2356    0.7614   20.1895 F       1  UNL1       -0.2028
     37 O           3.7375   -2.1109   18.4677 O.3     1  UNL1       -0.4773
     38 C           4.4811   -3.3623   18.8298 C.3     1  UNL1        0.1646
     39 C           4.7344   -4.7806   19.2471 C.3     1  UNL1        0.0495
     40 C           3.3274   -4.2777   19.1144 C.3     1  UNL1        0.0495
     41 C           5.8930   -2.8815   18.6710 C.2     1  UNL1        0.0863
     42 O           6.8363   -2.9269   19.8365 O.co2   1  UNL1       -0.5457
     43 O           6.3618   -2.3553   17.3469 O.co2   1  UNL1       -0.5457
@<TRIPOS>UNITY_ATOM_ATTR
42 1
charge -1
@<TRIPOS>BOND
     1    26    27    2
     2    27    28   am
     3    28    30    1
     4    30    31   ar
     5    31    32   ar
     6    32    33   ar
     7    33    37    1
     8    37    38    1
     9    38    41    1
    10    41    42   ar
    11    41    43   ar
    12    38    39    1
    13    39    40    1
    14    33    34   ar
    15    34    35   ar
    16    35    36    1
    17    27     1    1
    18     1    20    1
    19    20    21    1
    20    21    22    1
    21    22    23    1
    22    23    24    1
    23    24    25    1
    24     1     2    1
    25     2     3   ar
    26     3    13    1
    27    13    14   ar
    28    14    15   ar
    29    15    16   ar
    30    16    17    1
    31    16    18   ar
    32    18    19   ar
    33     3     4   ar
    34     4     5   ar
    35     5     6   ar
    36     6     7   ar
    37     7     8    1
    38     7     9   ar
    39     9    10    1
    40     9    11   ar
    41    11    12   ar
    42    35    30   ar
    43    25    20    1
    44    12     2   ar
    45    40    38    1
    46    19    13   ar
    47    12     5   ar
    48    28    29    1
@<TRIPOS>MOLECULE
*****
 43 48 0 0 0
SMALL
GASTEIGER

@<TRIPOS>ATOM
      1 C           5.7707   -1.6075   28.7110 C.3     1  UNL1        0.1631
      2 N           6.2638   -2.9191   29.2462 N.ar    1  UNL1       -0.3047
      3 C           6.4039   -3.2838   30.6944 C.ar    1  UNL1        0.1441
      4 N           6.9301   -4.6864   30.7705 N.ar    1  UNL1       -0.2267
      5 C           7.1152   -5.1886   29.3692 C.ar    1  UNL1        0.1010
      6 C           7.6055   -6.4993   28.8293 C.ar    1  UNL1        0.0526
      7 C           7.6841   -6.7179   27.3474 C.ar    1  UNL1        0.1690
      8 F           8.1745   -8.0287   26.8075 F       1  UNL1       -0.2017
      9 C           7.2724   -5.6257   26.4053 C.ar    1  UNL1        0.1689
     10 F           7.3509   -5.8442   24.9234 F       1  UNL1       -0.2017
     11 C           6.7820   -4.3149   26.9452 C.ar    1  UNL1        0.0507
     12 C           6.7035   -4.0964   28.4271 C.ar    1  UNL1        0.0816
     13 C           6.0754   -2.4008   31.8617 C.ar    1  UNL1        0.0342
     14 C           4.6631   -2.3089   32.3584 C.ar    1  UNL1        0.0039
     15 C           4.3346   -1.4259   33.5257 C.ar    1  UNL1        0.0115
     16 C           5.4184   -0.6350   34.1961 C.ar    1  UNL1        0.0577
     17 CL          5.0899    0.2480   35.3634 Cl      1  UNL1       -0.0822
     18 C           6.8308   -0.7269   33.6994 C.ar    1  UNL1        0.0115
     19 C           7.1593   -1.6098   32.5322 C.ar    1  UNL1        0.0039
     20 C           6.1130   -0.3314   29.4210 C.3     1  UNL1        0.0297
     21 C           5.0362    0.4601   30.1022 C.3     1  UNL1        0.0024
     22 C           5.3786    1.7363   30.8122 C.3     1  UNL1        0.0001
     23 C           6.7977    2.2211   30.8410 C.3     1  UNL1        0.0000
     24 C           7.8746    1.4297   30.1598 C.3     1  UNL1        0.0001
     25 C           7.5323    0.1535   29.4498 C.3     1  UNL1        0.0024
     26 O           3.4692   -1.8812   27.5370 O.2     1  UNL1       -0.2727
     27 C           4.9352   -1.5720   27.4656 C.2     1  UNL1        0.2469
     28 N           5.5658   -1.2274   26.1490 N.am    1  UNL1       -0.2806
     29 H           6.5281   -1.0245   26.1021 H       1  UNL1        0.1550
     30 C           4.7303   -1.1920   24.9037 C.ar    1  UNL1        0.0784
     31 C           3.7617   -0.0682   24.6823 C.ar    1  UNL1        0.0201
     32 C           2.9261   -0.0327   23.4370 C.ar    1  UNL1        0.0383
     33 C           3.0592   -1.1209   22.4132 C.ar    1  UNL1        0.1411
     34 C           4.0278   -2.2446   22.6348 C.ar    1  UNL1        0.0678
     35 C           4.8634   -2.2802   23.8800 C.ar    1  UNL1        0.1565
     36 F           5.8320   -3.4039   24.1014 F       1  UNL1       -0.2028
     37 O           2.2237   -1.0855   21.1680 O.3     1  UNL1       -0.4773
     38 C           2.4805   -0.0414   20.1221 C.3     1  UNL1        0.1646
     39 C           3.2265    0.8972   19.2206 C.3     1  UNL1        0.0495
     40 C           3.9784    0.0174   20.1749 C.3     1  UNL1        0.0495
     41 C           1.0718    0.2625   19.7060 C.2     1  UNL1        0.0863
     42 O           0.7835    0.7057   18.3022 O.co2   1  UNL1       -0.5457
     43 O          -0.0486    0.1233   20.6935 O.co2   1  UNL1       -0.5457
@<TRIPOS>UNITY_ATOM_ATTR
42 1
charge -1
@<TRIPOS>BOND
     1    26    27    2
     2    27    28   am
     3    28    30    1
     4    30    31   ar
     5    31    32   ar
     6    32    33   ar
     7    33    37    1
     8    37    38    1
     9    38    41    1
    10    41    42   ar
    11    41    43   ar
    12    38    39    1
    13    39    40    1
    14    33    34   ar
    15    34    35   ar
    16    35    36    1
    17    27     1    1
    18     1    20    1
    19    20    21    1
    20    21    22    1
    21    22    23    1
    22    23    24    1
    23    24    25    1
    24     1     2    1
    25     2     3   ar
    26     3    13    1
    27    13    14   ar
    28    14    15   ar
    29    15    16   ar
    30    16    17    1
    31    16    18   ar
    32    18    19   ar
    33     3     4   ar
    34     4     5   ar
    35     5     6   ar
    36     6     7   ar
    37     7     8    1
    38     7     9   ar
    39     9    10    1
    40     9    11   ar
    41    11    12   ar
    42    35    30   ar
    43    25    20    1
    44    12     2   ar
    45    40    38    1
    46    19    13   ar
    47    12     5   ar
    48    28    29    1
@<TRIPOS>MOLECULE
*****
 43 48 0 0 0
SMALL
GASTEIGER

@<TRIPOS>ATOM
      1 C           3.0782    0.2196   28.2513 C.3     1  UNL1        0.1631
      2 N           3.8280    0.1386   29.5479 N.ar    1  UNL1       -0.3047
      3 C           3.6399    1.0390   30.7328 C.ar    1  UNL1        0.1441
      4 N           4.5932    0.5999   31.8045 N.ar    1  UNL1       -0.2267
      5 C           5.3704   -0.5718   31.2819 C.ar    1  UNL1        0.1010
      6 C           6.4476   -1.4160   31.8958 C.ar    1  UNL1        0.0526
      7 C           7.0519   -2.5453   31.1150 C.ar    1  UNL1        0.1690
      8 F           8.1292   -3.3896   31.7290 F       1  UNL1       -0.2017
      9 C           6.5790   -2.8304   29.7204 C.ar    1  UNL1        0.1689
     10 F           7.1833   -3.9597   28.9396 F       1  UNL1       -0.2017
     11 C           5.5018   -1.9862   29.1065 C.ar    1  UNL1        0.0507
     12 C           4.8974   -0.8569   29.8873 C.ar    1  UNL1        0.0816
     13 C           2.6691    2.1784   30.8291 C.ar    1  UNL1        0.0342
     14 C           2.9700    3.4798   30.1467 C.ar    1  UNL1        0.0039
     15 C           1.9992    4.6191   30.2430 C.ar    1  UNL1        0.0115
     16 C           0.7275    4.4571   31.0217 C.ar    1  UNL1        0.0577
     17 CL         -0.2433    5.5966   31.1180 Cl      1  UNL1       -0.0822
     18 C           0.4266    3.1557   31.7042 C.ar    1  UNL1        0.0115
     19 C           1.3974    2.0163   31.6079 C.ar    1  UNL1        0.0039
     20 C           1.6045    0.4991   28.2532 C.3     1  UNL1        0.0297
     21 C           0.6650   -0.4342   28.9576 C.3     1  UNL1        0.0024
     22 C          -0.8087   -0.1547   28.9595 C.3     1  UNL1        0.0001
     23 C          -1.3430    1.0582   28.2571 C.3     1  UNL1        0.0000
     24 C          -0.4035    1.9916   27.5527 C.3     1  UNL1        0.0001
     25 C           1.0702    1.7121   27.5508 C.3     1  UNL1        0.0024
     26 O           4.9300    0.9353   26.5753 O.2     1  UNL1       -0.2727
     27 C           3.8022    0.0212   26.9526 C.2     1  UNL1        0.2469
     28 N           3.3982   -1.0914   26.0312 N.am    1  UNL1       -0.2806
     29 H           2.6580   -1.6914   26.2788 H       1  UNL1        0.1550
     30 C           4.1222   -1.2899   24.7326 C.ar    1  UNL1        0.0784
     31 C           3.4989   -0.8287   23.4484 C.ar    1  UNL1        0.0201
     32 C           4.2229   -1.0271   22.1497 C.ar    1  UNL1        0.0383
     33 C           5.5701   -1.6866   22.1351 C.ar    1  UNL1        0.1411
     34 C           6.1933   -2.1477   23.4193 C.ar    1  UNL1        0.0678
     35 C           5.4693   -1.9494   24.7180 C.ar    1  UNL1        0.1565
     36 F           6.0926   -2.4105   26.0021 F       1  UNL1       -0.2028
     37 O           6.2940   -1.8851   20.8365 O.3     1  UNL1       -0.4773
     38 C           5.6423   -2.6518   19.7241 C.3     1  UNL1        0.1646
     39 C           5.0012   -2.9428   18.3996 C.3     1  UNL1        0.0495
     40 C           5.4465   -1.5484   18.7271 C.3     1  UNL1        0.0495
     41 C           5.6117   -4.0215   20.3348 C.2     1  UNL1        0.0863
     42 O           4.2992   -4.7082   20.5709 O.co2   1  UNL1       -0.5457
     43 O           6.8936   -4.7045   20.7094 O.co2   1  UNL1       -0.5457
@<TRIPOS>UNITY_ATOM_ATTR
42 1
charge -1
@<TRIPOS>BOND
     1    26    27    2
     2    27    28   am
     3    28    30    1
     4    30    31   ar
     5    31    32   ar
     6    32    33   ar
     7    33    37    1
     8    37    38    1
     9    38    41    1
    10    41    42   ar
    11    41    43   ar
    12    38    39    1
    13    39    40    1
    14    33    34   ar
    15    34    35   ar
    16    35    36    1
    17    27     1    1
    18     1    20    1
    19    20    21    1
    20    21    22    1
    21    22    23    1
    22    23    24    1
    23    24    25    1
    24     1     2    1
    25     2     3   ar
    26     3    13    1
    27    13    14   ar
    28    14    15   ar
    29    15    16   ar
    30    16    17    1
    31    16    18   ar
    32    18    19   ar
    33     3     4   ar
    34     4     5   ar
    35     5     6   ar
    36     6     7   ar
    37     7     8    1
    38     7     9   ar
    39     9    10    1
    40     9    11   ar
    41    11    12   ar
    42    35    30   ar
    43    25    20    1
    44    12     2   ar
    45    40    38    1
    46    19    13   ar
    47    12     5   ar
    48    28    29    1
@<TRIPOS>MOLECULE
*****
 43 48 0 0 0
SMALL
GASTEIGER

@<TRIPOS>ATOM
      1 C          -0.9980    3.4689   21.1083 C.3     1  UNL1        0.1631
      2 N          -1.9163    3.4729   22.2944 N.ar    1  UNL1       -0.3047
      3 C          -1.5097    3.2770   23.7249 C.ar    1  UNL1        0.1441
      4 N          -2.7445    3.3564   24.5728 N.ar    1  UNL1       -0.2267
      5 C          -3.9142    3.6014   23.6663 C.ar    1  UNL1        0.1010
      6 C          -5.3793    3.7682   23.9411 C.ar    1  UNL1        0.0526
      7 C          -6.3326    4.0070   22.8079 C.ar    1  UNL1        0.1690
      8 F          -7.7978    4.1738   23.0828 F       1  UNL1       -0.2017
      9 C          -5.8208    4.0789   21.3997 C.ar    1  UNL1        0.1689
     10 F          -6.7741    4.3177   20.2665 F       1  UNL1       -0.2017
     11 C          -4.3557    3.9121   21.1249 C.ar    1  UNL1        0.0507
     12 C          -3.4024    3.6733   22.2581 C.ar    1  UNL1        0.0816
     13 C          -0.1134    3.0428   24.2204 C.ar    1  UNL1        0.0342
     14 C           0.3003    1.6759   24.6788 C.ar    1  UNL1        0.0039
     15 C           1.6966    1.4417   25.1744 C.ar    1  UNL1        0.0115
     16 C           2.6791    2.5744   25.2115 C.ar    1  UNL1        0.0577
     17 CL          4.0754    2.3402   25.7071 Cl      1  UNL1       -0.0822
     18 C           2.2653    3.9414   24.7531 C.ar    1  UNL1        0.0115
     19 C           0.8692    4.1757   24.2576 C.ar    1  UNL1        0.0039
     20 C          -0.9805    4.6385   20.1694 C.3     1  UNL1        0.0297
     21 C          -0.6789    6.0130   20.6889 C.3     1  UNL1        0.0024
     22 C          -0.6614    7.1826   19.7499 C.3     1  UNL1        0.0001
     23 C          -0.9455    6.9778   18.2914 C.3     1  UNL1        0.0000
     24 C          -1.2470    5.6033   17.7718 C.3     1  UNL1        0.0001
     25 C          -1.2645    4.4337   18.7108 C.3     1  UNL1        0.0024
     26 O          -0.6853    0.9453   20.5755 O.2     1  UNL1       -0.2727
     27 C          -0.0971    2.2952   20.8612 C.2     1  UNL1        0.2469
     28 N           1.3920    2.4716   20.8998 N.am    1  UNL1       -0.2806
     29 H           1.7781    3.3576   21.0873 H       1  UNL1        0.1550
     30 C           2.2928    1.2979   20.6527 C.ar    1  UNL1        0.0784
     31 C           2.9819    0.6261   21.8032 C.ar    1  UNL1        0.0201
     32 C           3.8827   -0.5477   21.5562 C.ar    1  UNL1        0.0383
     33 C           4.0945   -1.0495   20.1586 C.ar    1  UNL1        0.1411
     34 C           3.4053   -0.3776   19.0080 C.ar    1  UNL1        0.0678
     35 C           2.5045    0.7961   19.2551 C.ar    1  UNL1        0.1565
     36 F           1.8155    1.4680   18.1045 F       1  UNL1       -0.2028
     37 O           4.9952   -2.2231   19.9114 O.3     1  UNL1       -0.4773
     38 C           4.4979   -3.6160   20.1618 C.3     1  UNL1        0.1646
     39 C           3.7814   -4.9165   19.9487 C.3     1  UNL1        0.0495
     40 C           3.6941   -3.8337   18.9142 C.3     1  UNL1        0.0495
     41 C           5.1290   -3.8820   21.4963 C.2     1  UNL1        0.0863
     42 O           6.5620   -4.3183   21.5746 O.co2   1  UNL1       -0.5457
     43 O           4.3271   -3.7117   22.7525 O.co2   1  UNL1       -0.5457
@<TRIPOS>UNITY_ATOM_ATTR
42 1
charge -1
@<TRIPOS>BOND
     1    26    27    2
     2    27    28   am
     3    28    30    1
     4    30    31   ar
     5    31    32   ar
     6    32    33   ar
     7    33    37    1
     8    37    38    1
     9    38    41    1
    10    41    42   ar
    11    41    43   ar
    12    38    39    1
    13    39    40    1
    14    33    34   ar
    15    34    35   ar
    16    35    36    1
    17    27     1    1
    18     1    20    1
    19    20    21    1
    20    21    22    1
    21    22    23    1
    22    23    24    1
    23    24    25    1
    24     1     2    1
    25     2     3   ar
    26     3    13    1
    27    13    14   ar
    28    14    15   ar
    29    15    16   ar
    30    16    17    1
    31    16    18   ar
    32    18    19   ar
    33     3     4   ar
    34     4     5   ar
    35     5     6   ar
    36     6     7   ar
    37     7     8    1
    38     7     9   ar
    39     9    10    1
    40     9    11   ar
    41    11    12   ar
    42    35    30   ar
    43    25    20    1
    44    12     2   ar
    45    40    38    1
    46    19    13   ar
    47    12     5   ar
    48    28    29    1
@<TRIPOS>MOLECULE
*****
 43 48 0 0 0
SMALL
GASTEIGER

@<TRIPOS>ATOM
      1 C           6.1254   -2.2453   23.2042 C.3     1  UNL1        0.1631
      2 N           6.9570   -3.3893   22.7045 N.ar    1  UNL1       -0.3047
      3 C           7.4981   -3.5445   21.3141 C.ar    1  UNL1        0.1441
      4 N           8.2691   -4.8300   21.2576 N.ar    1  UNL1       -0.2267
      5 C           8.2044   -5.4692   22.6131 C.ar    1  UNL1        0.1010
      6 C           8.7791   -6.7470   23.1486 C.ar    1  UNL1        0.0526
      7 C           8.5430   -7.1344   24.5784 C.ar    1  UNL1        0.1690
      8 F           9.1178   -8.4123   25.1140 F       1  UNL1       -0.2017
      9 C           7.7321   -6.2440   25.4726 C.ar    1  UNL1        0.1689
     10 F           7.4959   -6.6314   26.9024 F       1  UNL1       -0.2017
     11 C           7.1573   -4.9662   24.9371 C.ar    1  UNL1        0.0507
     12 C           7.3935   -4.5788   23.5073 C.ar    1  UNL1        0.0816
     13 C           7.3026   -2.5831   20.1795 C.ar    1  UNL1        0.0342
     14 C           6.2472   -2.8464   19.1467 C.ar    1  UNL1        0.0039
     15 C           6.0517   -1.8850   18.0121 C.ar    1  UNL1        0.0115
     16 C           6.9116   -0.6603   17.9102 C.ar    1  UNL1        0.0577
     17 CL          6.7160    0.3012   16.7755 Cl      1  UNL1       -0.0822
     18 C           7.9670   -0.3969   18.9430 C.ar    1  UNL1        0.0115
     19 C           8.1626   -1.3583   20.0776 C.ar    1  UNL1        0.0039
     20 C           5.1693   -1.5526   22.2790 C.3     1  UNL1        0.0297
     21 C           5.3967   -0.1188   21.9015 C.3     1  UNL1        0.0024
     22 C           4.4406    0.5738   20.9763 C.3     1  UNL1        0.0001
     23 C           3.2571   -0.1673   20.4285 C.3     1  UNL1        0.0000
     24 C           3.0296   -1.6011   20.8060 C.3     1  UNL1        0.0001
     25 C           3.9858   -2.2938   21.7312 C.3     1  UNL1        0.0024
     26 O           7.5050   -1.1175   25.0950 O.2     1  UNL1       -0.2727
     27 C           6.2498   -1.7940   24.6294 C.2     1  UNL1        0.2469
     28 N           5.1190   -2.0191   25.5889 N.am    1  UNL1       -0.2806
     29 H           4.2952   -2.4631   25.2833 H       1  UNL1        0.1550
     30 C           5.2435   -1.5678   27.0139 C.ar    1  UNL1        0.0784
     31 C           4.9007   -0.1557   27.3860 C.ar    1  UNL1        0.0201
     32 C           5.0252    0.2957   28.8111 C.ar    1  UNL1        0.0383
     33 C           5.4925   -0.6650   29.8640 C.ar    1  UNL1        0.1411
     34 C           5.8353   -2.0771   29.4918 C.ar    1  UNL1        0.0678
     35 C           5.7109   -2.5285   28.0668 C.ar    1  UNL1        0.1565
     36 F           6.0537   -3.9406   27.6947 F       1  UNL1       -0.2028
     37 O           5.6170   -0.2136   31.2891 O.3     1  UNL1       -0.4773
     38 C           4.7643   -0.8411   32.3517 C.3     1  UNL1        0.1646
     39 C           4.3761   -1.6659   33.5429 C.3     1  UNL1        0.0495
     40 C           5.8059   -1.6273   33.0911 C.3     1  UNL1        0.0495
     41 C           3.4264   -0.2728   31.9813 C.2     1  UNL1        0.0863
     42 O           2.4646   -1.0875   31.1682 O.co2   1  UNL1       -0.5457
     43 O           3.0504    1.1102   32.4240 O.co2   1  UNL1       -0.5457
@<TRIPOS>UNITY_ATOM_ATTR
42 1
charge -1
@<TRIPOS>BOND
     1    26    27    2
     2    27    28   am
     3    28    30    1
     4    30    31   ar
     5    31    32   ar
     6    32    33   ar
     7    33    37    1
     8    37    38    1
     9    38    41    1
    10    41    42   ar
    11    41    43   ar
    12    38    39    1
    13    39    40    1
    14    33    34   ar
    15    34    35   ar
    16    35    36    1
    17    27     1    1
    18     1    20    1
    19    20    21    1
    20    21    22    1
    21    22    23    1
    22    23    24    1
    23    24    25    1
    24     1     2    1
    25     2     3   ar
    26     3    13    1
    27    13    14   ar
    28    14    15   ar
    29    15    16   ar
    30    16    17    1
    31    16    18   ar
    32    18    19   ar
    33     3     4   ar
    34     4     5   ar
    35     5     6   ar
    36     6     7   ar
    37     7     8    1
    38     7     9   ar
    39     9    10    1
    40     9    11   ar
    41    11    12   ar
    42    35    30   ar
    43    25    20    1
    44    12     2   ar
    45    40    38    1
    46    19    13   ar
    47    12     5   ar
    48    28    29    1
