@<TRIPOS>MOLECULE
*****
 21 23 0 0 0
SMALL
GASTEIGER

@<TRIPOS>ATOM
      1 C          -6.7129  -16.0394   24.1240 C.3     1  UNL1        0.0625
      2 C          -5.2222  -15.8913   24.2003 C.3     1  UNL1        0.0210
      3 C          -4.3345  -16.8535   23.4681 C.3     1  UNL1        0.0274
      4 C          -4.9375  -17.9638   22.6596 C.ar    1  UNL1       -0.0257
      5 C          -4.0498  -18.9259   21.9274 C.ar    1  UNL1       -0.0046
      6 C          -4.6528  -20.0362   21.1188 C.ar    1  UNL1       -0.0003
      7 C          -6.1435  -20.1842   21.0425 C.ar    1  UNL1       -0.0003
      8 C          -7.0312  -19.2221   21.7747 C.ar    1  UNL1       -0.0042
      9 C          -6.4282  -18.1118   22.5832 C.ar    1  UNL1       -0.0211
     10 C          -7.3159  -17.1496   23.3155 C.3     1  UNL1        0.0586
     11 C          -8.8067  -17.2977   23.2392 C.ar    1  UNL1       -0.0162
     12 C          -9.5320  -18.1207   24.2622 C.ar    1  UNL1       -0.0030
     13 C         -11.0227  -18.2688   24.1859 C.ar    1  UNL1        0.0119
     14 C         -11.7881  -17.5938   23.0865 C.ar    1  UNL1        0.0682
     15 CL        -13.2788  -17.7418   23.0102 Cl      1  UNL1       -0.0814
     16 C         -11.0628  -16.7708   22.0635 C.ar    1  UNL1        0.0679
     17 CL        -11.8282  -16.0957   20.9642 Cl      1  UNL1       -0.0814
     18 C          -9.5721  -16.6227   22.1399 C.ar    1  UNL1        0.0083
     19 C          -8.0758  -15.4006   26.2417 C.3     1  UNL1        0.0859
     20 N          -7.6007  -15.0771   24.8563 N.3     1  UNL1       -0.2968
     21 H          -7.0916  -14.1954   24.9180 H       1  UNL1        0.1233
@<TRIPOS>BOND
     1    19    20    1
     2     1    20    1
     3     1     2    1
     4     2     3    1
     5     3     4    1
     6     4     5   ar
     7     5     6   ar
     8     6     7   ar
     9     7     8   ar
    10     8     9   ar
    11     9    10    1
    12    10    11    1
    13    11    12   ar
    14    12    13   ar
    15    13    14   ar
    16    14    15    1
    17    14    16   ar
    18    16    17    1
    19    16    18   ar
    20    10     1    1
    21    18    11   ar
    22     9     4   ar
    23    20    21    1
@<TRIPOS>MOLECULE
*****
 21 23 0 0 0
SMALL
GASTEIGER

@<TRIPOS>ATOM
      1 C         -10.3116  -16.9296   21.6969 C.3     1  UNL1        0.0625
      2 C         -10.8790  -17.5536   20.4565 C.3     1  UNL1        0.0210
      3 C         -10.1138  -18.6256   19.7388 C.3     1  UNL1        0.0274
      4 C          -8.7810  -19.0736   20.2615 C.ar    1  UNL1       -0.0257
      5 C          -8.0158  -20.1456   19.5438 C.ar    1  UNL1       -0.0046
      6 C          -6.6831  -20.5936   20.0664 C.ar    1  UNL1       -0.0003
      7 C          -6.1156  -19.9695   21.3068 C.ar    1  UNL1       -0.0003
      8 C          -6.8809  -18.8975   22.0245 C.ar    1  UNL1       -0.0042
      9 C          -8.2136  -18.4496   21.5019 C.ar    1  UNL1       -0.0211
     10 C          -8.9789  -17.3775   22.2196 C.3     1  UNL1        0.0586
     11 C          -8.4115  -16.7534   23.4600 C.ar    1  UNL1       -0.0162
     12 C          -7.3460  -15.7031   23.3511 C.ar    1  UNL1       -0.0030
     13 C          -6.7786  -15.0791   24.5915 C.ar    1  UNL1        0.0119
     14 C          -7.2766  -15.5053   25.9408 C.ar    1  UNL1        0.0682
     15 CL         -6.7092  -14.8813   27.1811 Cl      1  UNL1       -0.0814
     16 C          -8.3420  -16.5556   26.0496 C.ar    1  UNL1        0.0679
     17 CL         -8.8400  -16.9818   27.3988 Cl      1  UNL1       -0.0814
     18 C          -8.9094  -17.1796   24.8092 C.ar    1  UNL1        0.0083
     19 C         -12.5550  -16.0034   22.6240 C.3     1  UNL1        0.0859
     20 N         -11.0769  -15.8575   22.4146 N.3     1  UNL1       -0.2968
     21 H         -10.6564  -15.7643   23.3392 H       1  UNL1        0.1233
@<TRIPOS>BOND
     1    19    20    1
     2     1    20    1
     3     1     2    1
     4     2     3    1
     5     3     4    1
     6     4     5   ar
     7     5     6   ar
     8     6     7   ar
     9     7     8   ar
    10     8     9   ar
    11     9    10    1
    12    10    11    1
    13    11    12   ar
    14    12    13   ar
    15    13    14   ar
    16    14    15    1
    17    14    16   ar
    18    16    17    1
    19    16    18   ar
    20    10     1    1
    21    18    11   ar
    22     9     4   ar
    23    20    21    1
@<TRIPOS>MOLECULE
*****
 21 23 0 0 0
SMALL
GASTEIGER

@<TRIPOS>ATOM
      1 C          -7.0938  -17.1781   22.7823 C.3     1  UNL1        0.0625
      2 C          -5.6458  -16.8245   22.9506 C.3     1  UNL1        0.0210
      3 C          -5.1834  -16.1293   24.1967 C.3     1  UNL1        0.0274
      4 C          -6.1691  -15.7876   25.2746 C.ar    1  UNL1       -0.0257
      5 C          -5.7067  -15.0924   26.5208 C.ar    1  UNL1       -0.0046
      6 C          -6.6924  -14.7507   27.5986 C.ar    1  UNL1       -0.0003
      7 C          -8.1404  -15.1043   27.4303 C.ar    1  UNL1       -0.0003
      8 C          -8.6027  -15.7995   26.1842 C.ar    1  UNL1       -0.0042
      9 C          -7.6171  -16.1412   25.1063 C.ar    1  UNL1       -0.0211
     10 C          -8.0794  -16.8364   23.8601 C.3     1  UNL1        0.0586
     11 C          -9.5274  -17.1900   23.6918 C.ar    1  UNL1       -0.0162
     12 C         -10.1371  -18.2741   24.5304 C.ar    1  UNL1       -0.0030
     13 C         -11.5851  -18.6276   24.3621 C.ar    1  UNL1        0.0119
     14 C         -12.4234  -17.8971   23.3553 C.ar    1  UNL1        0.0682
     15 CL        -13.8714  -18.2506   23.1870 Cl      1  UNL1       -0.0814
     16 C         -11.8137  -16.8130   22.5168 C.ar    1  UNL1        0.0679
     17 CL        -12.6520  -16.0825   21.5100 Cl      1  UNL1       -0.0814
     18 C         -10.3657  -16.4595   22.6851 C.ar    1  UNL1        0.0083
     19 C          -7.4821  -19.3684   21.4399 C.3     1  UNL1        0.0859
     20 N          -7.5561  -17.8733   21.5361 N.3     1  UNL1       -0.2968
     21 H          -8.5344  -17.6177   21.4020 H       1  UNL1        0.1233
@<TRIPOS>BOND
     1    19    20    1
     2     1    20    1
     3     1     2    1
     4     2     3    1
     5     3     4    1
     6     4     5   ar
     7     5     6   ar
     8     6     7   ar
     9     7     8   ar
    10     8     9   ar
    11     9    10    1
    12    10    11    1
    13    11    12   ar
    14    12    13   ar
    15    13    14   ar
    16    14    15    1
    17    14    16   ar
    18    16    17    1
    19    16    18   ar
    20    10     1    1
    21    18    11   ar
    22     9     4   ar
    23    20    21    1
@<TRIPOS>MOLECULE
*****
 21 23 0 0 0
SMALL
GASTEIGER

@<TRIPOS>ATOM
      1 C          -7.7218  -18.5860   21.7849 C.3     1  UNL1        0.0625
      2 C          -8.2463  -19.2873   20.5671 C.3     1  UNL1        0.0210
      3 C          -9.6260  -18.9840   20.0628 C.3     1  UNL1        0.0274
      4 C         -10.4813  -17.9793   20.7764 C.ar    1  UNL1       -0.0257
      5 C         -11.8610  -17.6759   20.2721 C.ar    1  UNL1       -0.0046
      6 C         -12.7163  -16.6713   20.9857 C.ar    1  UNL1       -0.0003
      7 C         -12.1918  -15.9700   22.2035 C.ar    1  UNL1       -0.0003
      8 C         -10.8121  -16.2733   22.7078 C.ar    1  UNL1       -0.0042
      9 C          -9.9569  -17.2780   21.9942 C.ar    1  UNL1       -0.0211
     10 C          -8.5771  -17.5814   22.4985 C.3     1  UNL1        0.0586
     11 C          -8.0526  -16.8801   23.7163 C.ar    1  UNL1       -0.0162
     12 C          -6.9275  -15.8961   23.5889 C.ar    1  UNL1       -0.0030
     13 C          -6.4031  -15.1948   24.8067 C.ar    1  UNL1        0.0119
     14 C          -7.0036  -15.4775   26.1519 C.ar    1  UNL1        0.0682
     15 CL         -6.4791  -14.7762   27.3698 Cl      1  UNL1       -0.0814
     16 C          -8.1286  -16.4614   26.2793 C.ar    1  UNL1        0.0679
     17 CL         -8.7291  -16.7441   27.6245 Cl      1  UNL1       -0.0814
     18 C          -8.6531  -17.1627   25.0614 C.ar    1  UNL1        0.0083
     19 C          -5.2716  -19.3215   21.3313 C.3     1  UNL1        0.0859
     20 N          -6.3420  -18.8894   22.2892 N.3     1  UNL1       -0.2968
     21 H          -6.0033  -18.0433   22.7472 H       1  UNL1        0.1233
@<TRIPOS>BOND
     1    19    20    1
     2     1    20    1
     3     1     2    1
     4     2     3    1
     5     3     4    1
     6     4     5   ar
     7     5     6   ar
     8     6     7   ar
     9     7     8   ar
    10     8     9   ar
    11     9    10    1
    12    10    11    1
    13    11    12   ar
    14    12    13   ar
    15    13    14   ar
    16    14    15    1
    17    14    16   ar
    18    16    17    1
    19    16    18   ar
    20    10     1    1
    21    18    11   ar
    22     9     4   ar
    23    20    21    1
@<TRIPOS>MOLECULE
*****
 21 23 0 0 0
SMALL
GASTEIGER

@<TRIPOS>ATOM
      1 C         -10.0725  -19.1015   23.3518 C.3     1  UNL1        0.0625
      2 C         -11.1058  -19.8224   22.5378 C.3     1  UNL1        0.0210
      3 C         -11.7092  -19.1600   21.3350 C.3     1  UNL1        0.0274
      4 C         -11.2793  -17.7764   20.9460 C.ar    1  UNL1       -0.0257
      5 C         -11.8827  -17.1140   19.7431 C.ar    1  UNL1       -0.0046
      6 C         -11.4529  -15.7305   19.3543 C.ar    1  UNL1       -0.0003
      7 C         -10.4196  -15.0096   20.1683 C.ar    1  UNL1       -0.0003
      8 C          -9.8162  -15.6720   21.3711 C.ar    1  UNL1       -0.0042
      9 C         -10.2461  -17.0555   21.7600 C.ar    1  UNL1       -0.0211
     10 C          -9.6426  -17.7180   22.9630 C.3     1  UNL1        0.0586
     11 C          -8.6094  -16.9971   23.7770 C.ar    1  UNL1       -0.0162
     12 C          -7.2210  -16.8179   23.2380 C.ar    1  UNL1       -0.0030
     13 C          -6.1878  -16.0969   24.0520 C.ar    1  UNL1        0.0119
     14 C          -6.5429  -15.5551   25.4050 C.ar    1  UNL1        0.0682
     15 CL         -5.5096  -14.8342   26.2190 Cl      1  UNL1       -0.0814
     16 C          -7.9312  -15.7343   25.9439 C.ar    1  UNL1        0.0679
     17 CL         -8.2863  -15.1926   27.2968 Cl      1  UNL1       -0.0814
     18 C          -8.9644  -16.4553   25.1299 C.ar    1  UNL1        0.0083
     19 C          -9.4022  -21.2605   24.6322 C.3     1  UNL1        0.0859
     20 N          -9.4691  -19.7640   24.5548 N.3     1  UNL1       -0.2968
     21 H          -8.5110  -19.4222   24.6296 H       1  UNL1        0.1233
@<TRIPOS>BOND
     1    19    20    1
     2     1    20    1
     3     1     2    1
     4     2     3    1
     5     3     4    1
     6     4     5   ar
     7     5     6   ar
     8     6     7   ar
     9     7     8   ar
    10     8     9   ar
    11     9    10    1
    12    10    11    1
    13    11    12   ar
    14    12    13   ar
    15    13    14   ar
    16    14    15    1
    17    14    16   ar
    18    16    17    1
    19    16    18   ar
    20    10     1    1
    21    18    11   ar
    22     9     4   ar
    23    20    21    1
@<TRIPOS>MOLECULE
*****
 21 23 0 0 0
SMALL
GASTEIGER

@<TRIPOS>ATOM
      1 C          -7.7731  -18.6402   21.8205 C.3     1  UNL1        0.0625
      2 C          -8.2412  -19.2826   20.5483 C.3     1  UNL1        0.0210
      3 C          -9.5873  -18.9363   19.9844 C.3     1  UNL1        0.0274
      4 C         -10.4654  -17.9476   20.6926 C.ar    1  UNL1       -0.0257
      5 C         -11.8115  -17.6013   20.1287 C.ar    1  UNL1       -0.0046
      6 C         -12.6895  -16.6126   20.8370 C.ar    1  UNL1       -0.0003
      7 C         -12.2214  -15.9703   22.1091 C.ar    1  UNL1       -0.0003
      8 C         -10.8753  -16.3166   22.6730 C.ar    1  UNL1       -0.0042
      9 C          -9.9973  -17.3053   21.9648 C.ar    1  UNL1       -0.0211
     10 C          -8.6511  -17.6516   22.5287 C.3     1  UNL1        0.0586
     11 C          -8.1830  -17.0093   23.8008 C.ar    1  UNL1       -0.0162
     12 C          -8.9956  -17.1479   25.0541 C.ar    1  UNL1       -0.0030
     13 C          -8.5275  -16.5055   26.3262 C.ar    1  UNL1        0.0119
     14 C          -7.2469  -15.7246   26.3451 C.ar    1  UNL1        0.0682
     15 CL         -6.7788  -15.0823   27.6172 Cl      1  UNL1       -0.0814
     16 C          -6.4344  -15.5861   25.0919 C.ar    1  UNL1        0.0679
     17 CL         -5.1538  -14.8052   25.1107 Cl      1  UNL1       -0.0814
     18 C          -6.9025  -16.2284   23.8197 C.ar    1  UNL1        0.0083
     19 C          -5.2810  -19.2817   21.4626 C.3     1  UNL1        0.0859
     20 N          -6.4269  -18.9866   22.3844 N.3     1  UNL1       -0.2968
     21 H          -6.1407  -18.2002   22.9675 H       1  UNL1        0.1233
@<TRIPOS>BOND
     1    19    20    1
     2     1    20    1
     3     1     2    1
     4     2     3    1
     5     3     4    1
     6     4     5   ar
     7     5     6   ar
     8     6     7   ar
     9     7     8   ar
    10     8     9   ar
    11     9    10    1
    12    10    11    1
    13    11    12   ar
    14    12    13   ar
    15    13    14   ar
    16    14    15    1
    17    14    16   ar
    18    16    17    1
    19    16    18   ar
    20    10     1    1
    21    18    11   ar
    22     9     4   ar
    23    20    21    1
@<TRIPOS>MOLECULE
*****
 21 23 0 0 0
SMALL
GASTEIGER

@<TRIPOS>ATOM
      1 C          -6.4149  -18.8786   21.7934 C.3     1  UNL1        0.0625
      2 C          -4.9341  -18.8527   22.0309 C.3     1  UNL1        0.0210
      3 C          -4.3498  -17.8879   23.0197 C.3     1  UNL1        0.0274
      4 C          -5.2464  -16.9491   23.7712 C.ar    1  UNL1       -0.0257
      5 C          -4.6622  -15.9843   24.7601 C.ar    1  UNL1       -0.0046
      6 C          -5.5588  -15.0455   25.5115 C.ar    1  UNL1       -0.0003
      7 C          -7.0396  -15.0715   25.2741 C.ar    1  UNL1       -0.0003
      8 C          -7.6239  -16.0362   24.2852 C.ar    1  UNL1       -0.0042
      9 C          -6.7273  -16.9750   23.5338 C.ar    1  UNL1       -0.0211
     10 C          -7.3115  -17.9398   22.5449 C.3     1  UNL1        0.0586
     11 C          -8.7924  -17.9657   22.3074 C.ar    1  UNL1       -0.0162
     12 C          -9.6575  -18.9255   23.0694 C.ar    1  UNL1       -0.0030
     13 C         -11.1383  -18.9514   22.8320 C.ar    1  UNL1        0.0119
     14 C         -11.7541  -18.0176   21.8325 C.ar    1  UNL1        0.0682
     15 CL        -13.2350  -18.0435   21.5951 Cl      1  UNL1       -0.0814
     16 C         -10.8890  -17.0579   21.0706 C.ar    1  UNL1        0.0679
     17 CL        -11.5048  -16.1241   20.0711 Cl      1  UNL1       -0.0814
     18 C          -9.4082  -17.0320   21.3080 C.ar    1  UNL1        0.0083
     19 C          -6.1573  -20.9571   20.2560 C.3     1  UNL1        0.0859
     20 N          -6.9992  -19.8434   20.8045 N.3     1  UNL1       -0.2968
     21 H          -7.8036  -20.2777   21.2569 H       1  UNL1        0.1233
@<TRIPOS>BOND
     1    19    20    1
     2     1    20    1
     3     1     2    1
     4     2     3    1
     5     3     4    1
     6     4     5   ar
     7     5     6   ar
     8     6     7   ar
     9     7     8   ar
    10     8     9   ar
    11     9    10    1
    12    10    11    1
    13    11    12   ar
    14    12    13   ar
    15    13    14   ar
    16    14    15    1
    17    14    16   ar
    18    16    17    1
    19    16    18   ar
    20    10     1    1
    21    18    11   ar
    22     9     4   ar
    23    20    21    1
@<TRIPOS>MOLECULE
*****
 21 23 0 0 0
SMALL
GASTEIGER

@<TRIPOS>ATOM
      1 C          -8.9559  -19.6828   19.6128 C.3     1  UNL1        0.0625
      2 C         -10.4307  -19.4575   19.4574 C.3     1  UNL1        0.0210
      3 C         -11.1593  -18.5688   20.4214 C.3     1  UNL1        0.0274
      4 C         -10.4131  -17.9054   21.5409 C.ar    1  UNL1       -0.0257
      5 C         -11.1417  -17.0167   22.5049 C.ar    1  UNL1       -0.0046
      6 C         -10.3955  -16.3534   23.6243 C.ar    1  UNL1       -0.0003
      7 C          -8.9207  -16.5788   23.7797 C.ar    1  UNL1       -0.0003
      8 C          -8.1921  -17.4675   22.8157 C.ar    1  UNL1       -0.0042
      9 C          -8.9383  -18.1308   21.6963 C.ar    1  UNL1       -0.0211
     10 C          -8.2097  -19.0195   20.7322 C.3     1  UNL1        0.0586
     11 C          -6.7349  -19.2449   20.8877 C.ar    1  UNL1       -0.0162
     12 C          -6.2148  -20.0268   22.0574 C.ar    1  UNL1       -0.0030
     13 C          -4.7400  -20.2521   22.2128 C.ar    1  UNL1        0.0119
     14 C          -3.7853  -19.6956   21.1985 C.ar    1  UNL1        0.0682
     15 CL         -2.3105  -19.9209   21.3539 Cl      1  UNL1       -0.0814
     16 C          -4.3053  -18.9137   20.0288 C.ar    1  UNL1        0.0679
     17 CL         -3.3506  -18.3572   19.0145 Cl      1  UNL1       -0.0814
     18 C          -5.7802  -18.6884   19.8734 C.ar    1  UNL1        0.0083
     19 C          -8.9961  -21.3805   17.6465 C.3     1  UNL1        0.0859
     20 N          -8.2273  -20.5716   18.6488 N.3     1  UNL1       -0.2968
     21 H          -7.5920  -19.9740   18.1198 H       1  UNL1        0.1233
@<TRIPOS>BOND
     1    19    20    1
     2     1    20    1
     3     1     2    1
     4     2     3    1
     5     3     4    1
     6     4     5   ar
     7     5     6   ar
     8     6     7   ar
     9     7     8   ar
    10     8     9   ar
    11     9    10    1
    12    10    11    1
    13    11    12   ar
    14    12    13   ar
    15    13    14   ar
    16    14    15    1
    17    14    16   ar
    18    16    17    1
    19    16    18   ar
    20    10     1    1
    21    18    11   ar
    22     9     4   ar
    23    20    21    1
@<TRIPOS>MOLECULE
*****
 21 23 0 0 0
SMALL
GASTEIGER

@<TRIPOS>ATOM
      1 C         -14.3343   -3.7957   18.6313 C.3     1  UNL1        0.0625
      2 C         -13.3602   -2.6806   18.8719 C.3     1  UNL1        0.0210
      3 C         -11.8985   -2.9812   19.0233 C.3     1  UNL1        0.0274
      4 C         -11.4108   -4.3970   18.9340 C.ar    1  UNL1       -0.0257
      5 C          -9.9490   -4.6976   19.0853 C.ar    1  UNL1       -0.0046
      6 C          -9.4614   -6.1133   18.9960 C.ar    1  UNL1       -0.0003
      7 C         -10.4354   -7.2283   18.7554 C.ar    1  UNL1       -0.0003
      8 C         -11.8971   -6.9277   18.6041 C.ar    1  UNL1       -0.0042
      9 C         -12.3848   -5.5120   18.6934 C.ar    1  UNL1       -0.0211
     10 C         -13.8466   -5.2113   18.5420 C.3     1  UNL1        0.0586
     11 C         -14.8207   -6.3264   18.3014 C.ar    1  UNL1       -0.0162
     12 C         -15.1172   -6.7740   16.9008 C.ar    1  UNL1       -0.0030
     13 C         -16.0913   -7.8891   16.6602 C.ar    1  UNL1        0.0119
     14 C         -16.7688   -8.5565   17.8202 C.ar    1  UNL1        0.0682
     15 CL        -17.7428   -9.6715   17.5796 Cl      1  UNL1       -0.0814
     16 C         -16.4722   -8.1088   19.2208 C.ar    1  UNL1        0.0679
     17 CL        -17.1497   -8.7762   20.3808 Cl      1  UNL1       -0.0814
     18 C         -15.4981   -6.9938   19.4614 C.ar    1  UNL1        0.0083
     19 C         -16.6695   -3.3883   19.6948 C.3     1  UNL1        0.0859
     20 N         -15.7961   -3.4950   18.4800 N.3     1  UNL1       -0.2968
     21 H         -15.8640   -2.6034   17.9892 H       1  UNL1        0.1233
@<TRIPOS>BOND
     1    19    20    1
     2     1    20    1
     3     1     2    1
     4     2     3    1
     5     3     4    1
     6     4     5   ar
     7     5     6   ar
     8     6     7   ar
     9     7     8   ar
    10     8     9   ar
    11     9    10    1
    12    10    11    1
    13    11    12   ar
    14    12    13   ar
    15    13    14   ar
    16    14    15    1
    17    14    16   ar
    18    16    17    1
    19    16    18   ar
    20    10     1    1
    21    18    11   ar
    22     9     4   ar
    23    20    21    1
