@<TRIPOS>MOLECULE
*****
 38 44 0 0 0
SMALL
GASTEIGER

@<TRIPOS>ATOM
      1 C           2.3503   -0.5427   19.6250 C.2     1  UNL1       -0.0378
      2 C           0.9419   -0.5595   20.1409 C.2     1  UNL1       -0.0080
      3 C           0.0856    0.6665   20.0238 C.2     1  UNL1        0.0022
      4 C           0.6377    1.9093   19.3908 C.2     1  UNL1        0.0350
      5 C           0.0354    3.2597   19.1384 C.2     1  UNL1        0.1040
      6 N           1.0716    4.1111   18.4665 N.2     1  UNL1       -0.1483
      7 N           2.3142    3.2869   18.3037 N.2     1  UNL1       -0.1520
      8 C           2.0461    1.9261   18.8750 C.2     1  UNL1        0.0860
      9 C           2.9024    0.7001   18.9920 C.3     1  UNL1        0.0697
     10 O           5.3496   -4.9057   19.8348 O.2     1  UNL1       -0.2744
     11 C           4.9015   -3.8938   20.8475 C.2     1  UNL1        0.2293
     12 N           5.2440   -3.8967   22.3078 N.am    1  UNL1       -0.2839
     13 C           4.5865   -2.7061   22.9405 C.ar    1  UNL1        0.0468
     14 C           4.5729   -2.1992   24.3521 C.ar    1  UNL1        0.0167
     15 C           3.8104   -0.9536   24.6945 C.ar    1  UNL1        0.0309
     16 C           3.0615   -0.2150   23.6251 C.ar    1  UNL1        0.1399
     17 F           2.2991    1.0306   23.9674 F       1  UNL1       -0.2042
     18 C           3.0751   -0.7219   22.2134 C.ar    1  UNL1        0.0270
     19 C           3.8376   -1.9675   21.8711 C.ar    1  UNL1        0.0014
     20 C           4.0323   -2.7015   20.5776 C.3     1  UNL1        0.0928
     21 C           3.8642   -2.9592   19.1095 C.3     1  UNL1        0.0179
     22 C           3.2066   -1.7687   19.7421 C.3     1  UNL1        0.0315
     23 H           5.8023   -4.5630   22.7699 H       1  UNL1        0.1549
     24 C          -1.3583    3.6841   19.4952 C.2     1  UNL1        0.0209
     25 C          -1.7573    3.8139   20.9353 C.2     1  UNL1        0.0016
     26 C          -3.1510    4.2383   21.2923 C.ar    1  UNL1        0.0000
     27 C          -4.1604    3.2145   21.7199 C.ar    1  UNL1       -0.0003
     28 C          -5.5542    3.6388   22.0768 C.ar    1  UNL1       -0.0029
     29 C          -5.9384    5.0870   22.0061 C.ar    1  UNL1       -0.0061
     30 C          -4.9291    6.1109   21.5785 C.ar    1  UNL1       -0.0029
     31 C          -3.5353    5.6865   21.2216 C.ar    1  UNL1       -0.0003
     32 C          -7.3322    5.5113   22.3630 C.3     1  UNL1        0.0993
     33 N          -7.6384    5.9892   23.7515 N.3     1  UNL1       -0.2646
     34 C          -8.8936    6.7662   24.0175 C.3     1  UNL1        0.1049
     35 C          -9.1999    7.2441   25.4060 C.3     1  UNL1        0.1595
     36 O          -8.2508    6.9450   26.5284 O.3     1  UNL1       -0.3508
     37 C          -6.9956    6.1681   26.2624 C.3     1  UNL1        0.1595
     38 C          -6.6894    5.6902   24.8740 C.3     1  UNL1        0.1049
@<TRIPOS>BOND
     1    10    11    2
     2    11    12   am
     3    12    13    1
     4    13    14   ar
     5    14    15   ar
     6    15    16   ar
     7    16    17    1
     8    16    18   ar
     9    18    19   ar
    10    19    20    1
    11    20    21    1
    12    21    22    1
    13    22     1    1
    14     1     2    2
    15     2     3    1
    16     3     4    2
    17     4     5    1
    18     5    24    1
    19    24    25    2
    20    25    26    1
    21    26    27   ar
    22    27    28   ar
    23    28    29   ar
    24    29    32    1
    25    32    33    1
    26    33    34    1
    27    34    35    1
    28    35    36    1
    29    36    37    1
    30    37    38    1
    31    29    30   ar
    32    30    31   ar
    33     5     6    2
    34     6     7    1
    35     7     8    2
    36     8     9    1
    37    20    11    1
    38     9     1    1
    39    19    13   ar
    40    22    20    1
    41     8     4    1
    42    31    26   ar
    43    38    33    1
    44    12    23    1
@<TRIPOS>MOLECULE
*****
 38 44 0 0 0
SMALL
GASTEIGER

@<TRIPOS>ATOM
      1 C          -4.2272    4.5988   21.0883 C.2     1  UNL1       -0.0378
      2 C          -3.7109    3.1907   21.0593 C.2     1  UNL1       -0.0080
      3 C          -2.4410    2.8725   20.3269 C.2     1  UNL1        0.0022
      4 C          -1.6877    3.9623   19.6235 C.2     1  UNL1        0.0350
      5 C          -0.4172    3.9508   18.8261 C.2     1  UNL1        0.1040
      6 N          -0.1483    5.3517   18.3624 N.2     1  UNL1       -0.1483
      7 N          -1.2526    6.2290   18.8731 N.2     1  UNL1       -0.1520
      8 C          -2.2040    5.3703   19.6525 C.2     1  UNL1        0.0860
      9 C          -3.4737    5.6886   20.3849 C.3     1  UNL1        0.0697
     10 O          -8.8038    5.7606   23.4925 O.2     1  UNL1       -0.2744
     11 C          -7.4459    5.3416   23.9729 C.2     1  UNL1        0.2293
     12 N          -7.0411    5.1368   25.4026 N.am    1  UNL1       -0.2839
     13 C          -5.5994    4.7225   25.4213 C.ar    1  UNL1        0.0468
     14 C          -4.6666    4.3853   26.5464 C.ar    1  UNL1        0.0167
     15 C          -3.2476    3.9970   26.2534 C.ar    1  UNL1        0.0309
     16 C          -2.7616    3.9459   24.8353 C.ar    1  UNL1        0.1399
     17 F          -1.3427    3.5576   24.5423 F       1  UNL1       -0.2042
     18 C          -3.6945    4.2831   23.7101 C.ar    1  UNL1        0.0270
     19 C          -5.1135    4.6715   24.0032 C.ar    1  UNL1        0.0014
     20 C          -6.2546    5.0541   23.1080 C.3     1  UNL1        0.0928
     21 C          -6.9385    5.3312   21.8020 C.3     1  UNL1        0.0179
     22 C          -5.4969    4.9170   21.8207 C.3     1  UNL1        0.0315
     23 H          -7.6198    5.2536   26.1904 H       1  UNL1        0.1549
     24 C           0.4348    2.7493   18.5424 C.2     1  UNL1        0.0209
     25 C           1.0116    1.9542   19.6760 C.2     1  UNL1        0.0016
     26 C           1.8636    0.7527   19.3924 C.ar    1  UNL1        0.0000
     27 C           1.8628   -0.4083   20.3421 C.ar    1  UNL1       -0.0003
     28 C           2.7148   -1.6099   20.0585 C.ar    1  UNL1       -0.0029
     29 C           3.5675   -1.6503   18.8252 C.ar    1  UNL1       -0.0061
     30 C           3.5684   -0.4893   17.8755 C.ar    1  UNL1       -0.0029
     31 C           2.7164    0.7123   18.1591 C.ar    1  UNL1       -0.0003
     32 C           4.4195   -2.8519   18.5416 C.3     1  UNL1        0.0993
     33 N           5.8159   -2.9262   19.0843 N.3     1  UNL1       -0.2646
     34 C           6.0926   -3.6995   20.3394 C.3     1  UNL1        0.1049
     35 C           7.4890   -3.7739   20.8822 C.3     1  UNL1        0.1595
     36 O           8.6087   -3.0748   20.1697 O.3     1  UNL1       -0.3508
     37 C           8.3320   -2.3015   18.9146 C.3     1  UNL1        0.1595
     38 C           6.9356   -2.2271   18.3719 C.3     1  UNL1        0.1049
@<TRIPOS>BOND
     1    10    11    2
     2    11    12   am
     3    12    13    1
     4    13    14   ar
     5    14    15   ar
     6    15    16   ar
     7    16    17    1
     8    16    18   ar
     9    18    19   ar
    10    19    20    1
    11    20    21    1
    12    21    22    1
    13    22     1    1
    14     1     2    2
    15     2     3    1
    16     3     4    2
    17     4     5    1
    18     5    24    1
    19    24    25    2
    20    25    26    1
    21    26    27   ar
    22    27    28   ar
    23    28    29   ar
    24    29    32    1
    25    32    33    1
    26    33    34    1
    27    34    35    1
    28    35    36    1
    29    36    37    1
    30    37    38    1
    31    29    30   ar
    32    30    31   ar
    33     5     6    2
    34     6     7    1
    35     7     8    2
    36     8     9    1
    37    20    11    1
    38     9     1    1
    39    19    13   ar
    40    22    20    1
    41     8     4    1
    42    31    26   ar
    43    38    33    1
    44    12    23    1
@<TRIPOS>MOLECULE
*****
 38 44 0 0 0
SMALL
GASTEIGER

@<TRIPOS>ATOM
      1 C           2.1732   -0.5350   20.0245 C.2     1  UNL1       -0.0378
      2 C           2.0532   -0.1904   21.4794 C.2     1  UNL1       -0.0080
      3 C           1.2277    0.9874   21.9056 C.2     1  UNL1        0.0022
      4 C           0.5223    1.8204   20.8769 C.2     1  UNL1        0.0350
      5 C          -0.3554    3.0310   20.9955 C.2     1  UNL1        0.1040
      6 N          -0.7779    3.4346   19.6140 N.2     1  UNL1       -0.1483
      7 N          -0.1613    2.4734   18.6415 N.2     1  UNL1       -0.1520
      8 C           0.6423    1.4757   19.4219 C.2     1  UNL1        0.0860
      9 C           1.4677    0.2981   18.9957 C.3     1  UNL1        0.0697
     10 O           4.9355   -4.8203   18.5820 O.2     1  UNL1       -0.2744
     11 C           5.1946   -3.3436   18.5358 C.2     1  UNL1        0.2293
     12 N           6.4343   -2.6820   18.0111 N.am    1  UNL1       -0.2839
     13 C           6.2654   -1.1986   18.1572 C.ar    1  UNL1        0.0468
     14 C           7.1618   -0.0474   17.8096 C.ar    1  UNL1        0.0167
     15 C           6.7142    1.3591   18.0772 C.ar    1  UNL1        0.0309
     16 C           5.3701    1.6142   18.6923 C.ar    1  UNL1        0.1399
     17 F           4.9224    3.0206   18.9598 F       1  UNL1       -0.2042
     18 C           4.4736    0.4628   19.0398 C.ar    1  UNL1        0.0270
     19 C           4.9213   -0.9436   18.7723 C.ar    1  UNL1        0.0014
     20 C           4.2595   -2.2692   19.0063 C.3     1  UNL1        0.0928
     21 C           3.1676   -3.1959   19.4522 C.3     1  UNL1        0.0179
     22 C           2.9987   -1.7127   19.5983 C.3     1  UNL1        0.0315
     23 H           7.2207   -3.1407   17.6365 H       1  UNL1        0.1549
     24 C          -0.7427    3.7175   22.2718 C.2     1  UNL1        0.0209
     25 C          -2.1817    3.7617   22.6928 C.2     1  UNL1        0.0016
     26 C          -2.5690    4.4482   23.9691 C.ar    1  UNL1        0.0000
     27 C          -2.6493    5.9451   24.0209 C.ar    1  UNL1       -0.0003
     28 C          -3.0366    6.6317   25.2971 C.ar    1  UNL1       -0.0029
     29 C          -3.3437    5.8213   26.5214 C.ar    1  UNL1       -0.0061
     30 C          -3.2634    4.3243   26.4695 C.ar    1  UNL1       -0.0029
     31 C          -2.8761    3.6378   25.1933 C.ar    1  UNL1       -0.0003
     32 C          -3.7310    6.5078   27.7975 C.3     1  UNL1        0.0993
     33 N          -5.1791    6.7249   28.1228 N.3     1  UNL1       -0.2646
     34 C          -5.5647    7.4930   29.3523 C.3     1  UNL1        0.1049
     35 C          -7.0128    7.7101   29.6777 C.3     1  UNL1        0.1595
     36 O          -8.0754    7.1591   28.7736 O.3     1  UNL1       -0.3508
     37 C          -7.6898    6.3910   27.5442 C.3     1  UNL1        0.1595
     38 C          -6.2417    6.1739   27.2188 C.3     1  UNL1        0.1049
@<TRIPOS>BOND
     1    10    11    2
     2    11    12   am
     3    12    13    1
     4    13    14   ar
     5    14    15   ar
     6    15    16   ar
     7    16    17    1
     8    16    18   ar
     9    18    19   ar
    10    19    20    1
    11    20    21    1
    12    21    22    1
    13    22     1    1
    14     1     2    2
    15     2     3    1
    16     3     4    2
    17     4     5    1
    18     5    24    1
    19    24    25    2
    20    25    26    1
    21    26    27   ar
    22    27    28   ar
    23    28    29   ar
    24    29    32    1
    25    32    33    1
    26    33    34    1
    27    34    35    1
    28    35    36    1
    29    36    37    1
    30    37    38    1
    31    29    30   ar
    32    30    31   ar
    33     5     6    2
    34     6     7    1
    35     7     8    2
    36     8     9    1
    37    20    11    1
    38     9     1    1
    39    19    13   ar
    40    22    20    1
    41     8     4    1
    42    31    26   ar
    43    38    33    1
    44    12    23    1
@<TRIPOS>MOLECULE
*****
 38 44 0 0 0
SMALL
GASTEIGER

@<TRIPOS>ATOM
      1 C           2.7522   -1.0883   21.3343 C.2     1  UNL1       -0.0378
      2 C           3.1772   -0.9812   22.7688 C.2     1  UNL1       -0.0080
      3 C           2.5094    0.0085   23.6770 C.2     1  UNL1        0.0022
      4 C           1.4167    0.8910   23.1506 C.2     1  UNL1        0.0350
      5 C           0.5814    1.9521   23.8035 C.2     1  UNL1        0.1040
      6 N          -0.3599    2.5008   22.7725 N.2     1  UNL1       -0.1483
      7 N          -0.1063    1.7787   21.4824 N.2     1  UNL1       -0.1520
      8 C           0.9917    0.7838   21.7161 C.2     1  UNL1        0.0860
      9 C           1.6594   -0.2058   20.8079 C.3     1  UNL1        0.0697
     10 O           4.9732   -4.7273   18.1880 O.2     1  UNL1       -0.2744
     11 C           5.2543   -3.2828   18.4784 C.2     1  UNL1        0.2293
     12 N           6.3513   -2.4589   17.8719 N.am    1  UNL1       -0.2839
     13 C           6.2628   -1.0754   18.4449 C.ar    1  UNL1        0.0468
     14 C           7.0821    0.1600   18.2161 C.ar    1  UNL1        0.0167
     15 C           6.7497    1.4266   18.9479 C.ar    1  UNL1        0.0309
     16 C           5.5981    1.4576   19.9085 C.ar    1  UNL1        0.1399
     17 F           5.2657    2.7241   20.6403 F       1  UNL1       -0.2042
     18 C           4.7788    0.2221   20.1373 C.ar    1  UNL1        0.0270
     19 C           5.1112   -1.0444   19.4055 C.ar    1  UNL1        0.0014
     20 C           4.4879   -2.4086   19.4262 C.3     1  UNL1        0.0928
     21 C           3.5084   -3.4613   19.8531 C.3     1  UNL1        0.0179
     22 C           3.4199   -2.0780   20.4261 C.3     1  UNL1        0.0315
     23 H           7.0131   -2.7712   17.2134 H       1  UNL1        0.1549
     24 C           0.6715    2.3880   25.2359 C.2     1  UNL1        0.0209
     25 C           0.3779    1.4123   26.3367 C.2     1  UNL1        0.0016
     26 C           0.4680    1.8481   27.7692 C.ar    1  UNL1        0.0000
     27 C           1.1649    3.1290   28.1209 C.ar    1  UNL1       -0.0003
     28 C           1.2551    3.5649   29.5534 C.ar    1  UNL1       -0.0029
     29 C           0.6484    2.7199   30.6340 C.ar    1  UNL1       -0.0061
     30 C          -0.0485    1.4390   30.2823 C.ar    1  UNL1       -0.0029
     31 C          -0.1387    1.0031   28.8498 C.ar    1  UNL1       -0.0003
     32 C           0.7386    3.1557   32.0664 C.3     1  UNL1        0.0993
     33 N           1.7559    2.5345   32.9768 N.3     1  UNL1       -0.2646
     34 C           2.0233    3.1365   34.3245 C.3     1  UNL1        0.1049
     35 C           3.0407    2.5153   35.2350 C.3     1  UNL1        0.1595
     36 O           3.7907    1.2920   34.7978 O.3     1  UNL1       -0.3508
     37 C           3.5233    0.6900   33.4502 C.3     1  UNL1        0.1595
     38 C           2.5060    1.3112   32.5397 C.3     1  UNL1        0.1049
@<TRIPOS>BOND
     1    10    11    2
     2    11    12   am
     3    12    13    1
     4    13    14   ar
     5    14    15   ar
     6    15    16   ar
     7    16    17    1
     8    16    18   ar
     9    18    19   ar
    10    19    20    1
    11    20    21    1
    12    21    22    1
    13    22     1    1
    14     1     2    2
    15     2     3    1
    16     3     4    2
    17     4     5    1
    18     5    24    1
    19    24    25    2
    20    25    26    1
    21    26    27   ar
    22    27    28   ar
    23    28    29   ar
    24    29    32    1
    25    32    33    1
    26    33    34    1
    27    34    35    1
    28    35    36    1
    29    36    37    1
    30    37    38    1
    31    29    30   ar
    32    30    31   ar
    33     5     6    2
    34     6     7    1
    35     7     8    2
    36     8     9    1
    37    20    11    1
    38     9     1    1
    39    19    13   ar
    40    22    20    1
    41     8     4    1
    42    31    26   ar
    43    38    33    1
    44    12    23    1
@<TRIPOS>MOLECULE
*****
 38 44 0 0 0
SMALL
GASTEIGER

@<TRIPOS>ATOM
      1 C           8.0842   -1.7557   20.5103 C.2     1  UNL1       -0.0378
      2 C           8.0132   -1.2783   21.9305 C.2     1  UNL1       -0.0080
      3 C           8.0064   -2.2702   23.0557 C.2     1  UNL1        0.0022
      4 C           8.0707   -3.7395   22.7607 C.2     1  UNL1        0.0350
      5 C           8.0803   -4.9434   23.6554 C.2     1  UNL1        0.1040
      6 N           8.1573   -6.1649   22.7882 N.2     1  UNL1       -0.1483
      7 N           8.1953   -5.7158   21.3575 N.2     1  UNL1       -0.1520
      8 C           8.1418   -4.2169   21.3405 C.2     1  UNL1        0.0860
      9 C           8.1485   -3.2250   20.2153 C.3     1  UNL1        0.0697
     10 O           8.3154    1.7570   16.5502 O.2     1  UNL1       -0.2744
     11 C           7.1997    1.0309   17.2414 C.2     1  UNL1        0.2293
     12 N           5.7384    1.1551   16.9263 N.am    1  UNL1       -0.2839
     13 C           4.9848    0.2541   17.8593 C.ar    1  UNL1        0.0468
     14 C           3.5208   -0.0342   18.0121 C.ar    1  UNL1        0.0167
     15 C           3.0522   -1.0035   19.0566 C.ar    1  UNL1        0.0309
     16 C           4.0478   -1.6845   19.9483 C.ar    1  UNL1        0.1399
     17 F           3.5793   -2.6537   20.9928 F       1  UNL1       -0.2042
     18 C           5.5119   -1.3961   19.7955 C.ar    1  UNL1        0.0270
     19 C           5.9804   -0.4269   18.7510 C.ar    1  UNL1        0.0014
     20 C           7.3492    0.0533   18.3691 C.3     1  UNL1        0.0928
     21 C           8.8445    0.1372   18.4521 C.3     1  UNL1        0.0179
     22 C           8.0910   -0.7638   19.3851 C.3     1  UNL1        0.0315
     23 H           5.3433    1.7274   16.2295 H       1  UNL1        0.1549
     24 C           8.0229   -4.9285   25.1542 C.2     1  UNL1        0.0209
     25 C           6.8523   -4.3038   25.8538 C.2     1  UNL1        0.0016
     26 C           6.7949   -4.2888   27.3526 C.ar    1  UNL1        0.0000
     27 C           6.9955   -5.5598   28.1236 C.ar    1  UNL1       -0.0003
     28 C           6.9380   -5.5449   29.6224 C.ar    1  UNL1       -0.0029
     29 C           6.6800   -4.2590   30.3502 C.ar    1  UNL1       -0.0061
     30 C           6.4795   -2.9880   29.5793 C.ar    1  UNL1       -0.0029
     31 C           6.5369   -3.0029   28.0805 C.ar    1  UNL1       -0.0003
     32 C           6.6226   -4.2441   31.8491 C.3     1  UNL1        0.0993
     33 N           6.3290   -2.9652   32.5757 N.3     1  UNL1       -0.2646
     34 C           4.9432   -2.6901   33.0799 C.3     1  UNL1        0.1049
     35 C           4.6496   -1.4112   33.8066 C.3     1  UNL1        0.1595
     36 O           5.7417   -0.4073   34.0292 O.3     1  UNL1       -0.3508
     37 C           7.1274   -0.6823   33.5251 C.3     1  UNL1        0.1595
     38 C           7.4211   -1.9612   32.7984 C.3     1  UNL1        0.1049
@<TRIPOS>BOND
     1    10    11    2
     2    11    12   am
     3    12    13    1
     4    13    14   ar
     5    14    15   ar
     6    15    16   ar
     7    16    17    1
     8    16    18   ar
     9    18    19   ar
    10    19    20    1
    11    20    21    1
    12    21    22    1
    13    22     1    1
    14     1     2    2
    15     2     3    1
    16     3     4    2
    17     4     5    1
    18     5    24    1
    19    24    25    2
    20    25    26    1
    21    26    27   ar
    22    27    28   ar
    23    28    29   ar
    24    29    32    1
    25    32    33    1
    26    33    34    1
    27    34    35    1
    28    35    36    1
    29    36    37    1
    30    37    38    1
    31    29    30   ar
    32    30    31   ar
    33     5     6    2
    34     6     7    1
    35     7     8    2
    36     8     9    1
    37    20    11    1
    38     9     1    1
    39    19    13   ar
    40    22    20    1
    41     8     4    1
    42    31    26   ar
    43    38    33    1
    44    12    23    1
@<TRIPOS>MOLECULE
*****
 38 44 0 0 0
SMALL
GASTEIGER

@<TRIPOS>ATOM
      1 C           5.0796    0.5712   19.2165 C.2     1  UNL1       -0.0378
      2 C           5.3116    0.4638   20.6945 C.2     1  UNL1       -0.0080
      3 C           5.4338   -0.8854   21.3385 C.2     1  UNL1        0.0022
      4 C           5.3239   -2.1273   20.5045 C.2     1  UNL1        0.0350
      5 C           5.4024   -3.5832   20.8568 C.2     1  UNL1        0.1040
      6 N           5.2189   -4.3757   19.5965 N.2     1  UNL1       -0.1483
      7 N           5.0270   -3.4095   18.4653 N.2     1  UNL1       -0.1520
      8 C           5.0919   -2.0200   19.0264 C.2     1  UNL1        0.0860
      9 C           4.9698   -0.6708   18.3824 C.3     1  UNL1        0.0697
     10 O           4.8525    5.3330   16.9038 O.2     1  UNL1       -0.2744
     11 C           3.8399    4.4323   17.5468 C.2     1  UNL1        0.2293
     12 N           2.3741    4.7156   17.6920 N.am    1  UNL1       -0.2839
     13 C           1.7436    3.5486   18.3924 C.ar    1  UNL1        0.0468
     14 C           0.3286    3.2708   18.8054 C.ar    1  UNL1        0.0167
     15 C          -0.0103    1.9885   19.5061 C.ar    1  UNL1        0.0309
     16 C           1.0659    0.9840   19.7937 C.ar    1  UNL1        0.1399
     17 F           0.7270   -0.2983   20.4944 F       1  UNL1       -0.2042
     18 C           2.4809    1.2617   19.3807 C.ar    1  UNL1        0.0270
     19 C           2.8198    2.5440   18.6801 C.ar    1  UNL1        0.0014
     20 C           4.1154    3.0902   18.1575 C.3     1  UNL1        0.0928
     21 C           5.5879    3.0873   17.8721 C.3     1  UNL1        0.0179
     22 C           4.9575    1.9203   18.5725 C.3     1  UNL1        0.0315
     23 H           1.9078    5.5253   17.3821 H       1  UNL1        0.1549
     24 C           5.6252   -4.1475   22.2286 C.2     1  UNL1        0.0209
     25 C           7.0202   -4.3064   22.7567 C.2     1  UNL1        0.0016
     26 C           7.2431   -4.8707   24.1286 C.ar    1  UNL1        0.0000
     27 C           7.9456   -6.1858   24.2935 C.ar    1  UNL1       -0.0003
     28 C           8.1686   -6.7502   25.6652 C.ar    1  UNL1       -0.0029
     29 C           7.6891   -5.9995   26.8720 C.ar    1  UNL1       -0.0061
     30 C           6.9866   -4.6844   26.7072 C.ar    1  UNL1       -0.0029
     31 C           6.7636   -4.1200   25.3354 C.ar    1  UNL1       -0.0003
     32 C           7.9120   -6.5639   28.2438 C.3     1  UNL1        0.0993
     33 N           8.0363   -5.6442   29.4222 N.3     1  UNL1       -0.2646
     34 C           9.3100   -4.8855   29.6505 C.3     1  UNL1        0.1049
     35 C           9.4343   -3.9657   30.8288 C.3     1  UNL1        0.1595
     36 O           8.2848   -3.8047   31.7790 O.3     1  UNL1       -0.3508
     37 C           7.0112   -4.5633   31.5508 C.3     1  UNL1        0.1595
     38 C           6.8869   -5.4831   30.3724 C.3     1  UNL1        0.1049
@<TRIPOS>BOND
     1    10    11    2
     2    11    12   am
     3    12    13    1
     4    13    14   ar
     5    14    15   ar
     6    15    16   ar
     7    16    17    1
     8    16    18   ar
     9    18    19   ar
    10    19    20    1
    11    20    21    1
    12    21    22    1
    13    22     1    1
    14     1     2    2
    15     2     3    1
    16     3     4    2
    17     4     5    1
    18     5    24    1
    19    24    25    2
    20    25    26    1
    21    26    27   ar
    22    27    28   ar
    23    28    29   ar
    24    29    32    1
    25    32    33    1
    26    33    34    1
    27    34    35    1
    28    35    36    1
    29    36    37    1
    30    37    38    1
    31    29    30   ar
    32    30    31   ar
    33     5     6    2
    34     6     7    1
    35     7     8    2
    36     8     9    1
    37    20    11    1
    38     9     1    1
    39    19    13   ar
    40    22    20    1
    41     8     4    1
    42    31    26   ar
    43    38    33    1
    44    12    23    1
@<TRIPOS>MOLECULE
*****
 38 44 0 0 0
SMALL
GASTEIGER

@<TRIPOS>ATOM
      1 C           3.4119   -1.2714   22.3467 C.2     1  UNL1       -0.0378
      2 C           2.1367   -0.5515   22.0216 C.2     1  UNL1       -0.0080
      3 C           1.6424    0.5420   22.9217 C.2     1  UNL1        0.0022
      4 C           2.4232    0.9155   24.1467 C.2     1  UNL1        0.0350
      5 C           2.1865    1.9435   25.2132 C.2     1  UNL1        0.1040
      6 N           3.3154    1.8589   26.1973 N.2     1  UNL1       -0.1483
      7 N           4.2498    0.7787   25.7391 N.2     1  UNL1       -0.1520
      8 C           3.6984    0.1956   24.4718 C.2     1  UNL1        0.0860
      9 C           4.1928   -0.8978   23.5718 C.3     1  UNL1        0.0697
     10 O           5.1162   -5.2710   19.3180 O.2     1  UNL1       -0.2744
     11 C           5.0035   -3.7876   19.1266 C.2     1  UNL1        0.2293
     12 N           5.3933   -3.0254   17.8950 N.am    1  UNL1       -0.2839
     13 C           5.1120   -1.5725   18.1405 C.ar    1  UNL1        0.0468
     14 C           5.2962   -0.3557   17.2831 C.ar    1  UNL1        0.0167
     15 C           4.9168    0.9969   17.8090 C.ar    1  UNL1        0.0309
     16 C           4.3530    1.1325   19.1924 C.ar    1  UNL1        0.1399
     17 F           3.9736    2.4850   19.7184 F       1  UNL1       -0.2042
     18 C           4.1687   -0.0844   20.0498 C.ar    1  UNL1        0.0270
     19 C           4.5482   -1.4369   19.5238 C.ar    1  UNL1        0.0014
     20 C           4.4811   -2.8059   20.1333 C.3     1  UNL1        0.0928
     21 C           4.1876   -3.8175   21.2012 C.3     1  UNL1        0.0179
     22 C           3.9063   -2.3648   21.4467 C.3     1  UNL1        0.0315
     23 H           5.7681   -3.4109   17.0703 H       1  UNL1        0.1549
     24 C           1.0249    2.8898   25.2831 C.2     1  UNL1        0.0209
     25 C          -0.3728    2.3553   25.3876 C.2     1  UNL1        0.0016
     26 C          -1.5345    3.3016   25.4576 C.ar    1  UNL1        0.0000
     27 C          -1.7300    4.3298   24.3830 C.ar    1  UNL1       -0.0003
     28 C          -2.8918    5.2761   24.4529 C.ar    1  UNL1       -0.0029
     29 C          -3.8579    5.1943   25.5974 C.ar    1  UNL1       -0.0061
     30 C          -3.6623    4.1661   26.6720 C.ar    1  UNL1       -0.0029
     31 C          -2.5006    3.2198   26.6021 C.ar    1  UNL1       -0.0003
     32 C          -5.0196    6.1406   25.6673 C.3     1  UNL1        0.0993
     33 N          -6.3444    5.7461   25.0851 N.3     1  UNL1       -0.2646
     34 C          -7.6056    6.3795   25.5935 C.3     1  UNL1        0.1049
     35 C          -8.9305    5.9851   25.0113 C.3     1  UNL1        0.1595
     36 O          -8.9943    4.9572   23.9207 O.3     1  UNL1       -0.3508
     37 C          -7.7332    4.3238   23.4123 C.3     1  UNL1        0.1595
     38 C          -6.4083    4.7183   23.9945 C.3     1  UNL1        0.1049
@<TRIPOS>BOND
     1    10    11    2
     2    11    12   am
     3    12    13    1
     4    13    14   ar
     5    14    15   ar
     6    15    16   ar
     7    16    17    1
     8    16    18   ar
     9    18    19   ar
    10    19    20    1
    11    20    21    1
    12    21    22    1
    13    22     1    1
    14     1     2    2
    15     2     3    1
    16     3     4    2
    17     4     5    1
    18     5    24    1
    19    24    25    2
    20    25    26    1
    21    26    27   ar
    22    27    28   ar
    23    28    29   ar
    24    29    32    1
    25    32    33    1
    26    33    34    1
    27    34    35    1
    28    35    36    1
    29    36    37    1
    30    37    38    1
    31    29    30   ar
    32    30    31   ar
    33     5     6    2
    34     6     7    1
    35     7     8    2
    36     8     9    1
    37    20    11    1
    38     9     1    1
    39    19    13   ar
    40    22    20    1
    41     8     4    1
    42    31    26   ar
    43    38    33    1
    44    12    23    1
@<TRIPOS>MOLECULE
*****
 38 44 0 0 0
SMALL
GASTEIGER

@<TRIPOS>ATOM
      1 C           2.4619    0.4190   19.0888 C.2     1  UNL1       -0.0378
      2 C           2.5251   -0.0301   20.5186 C.2     1  UNL1       -0.0080
      3 C           3.4091   -1.1786   20.9056 C.2     1  UNL1        0.0022
      4 C           4.2299   -1.8778   19.8628 C.2     1  UNL1        0.0350
      5 C           5.1855   -3.0312   19.9446 C.2     1  UNL1        0.1040
      6 N           5.7128   -3.2949   18.5653 N.2     1  UNL1       -0.1483
      7 N           5.0832   -2.3045   17.6312 N.2     1  UNL1       -0.1520
      8 C           4.1667   -1.4287   18.4330 C.2     1  UNL1        0.0860
      9 C           3.2827   -0.2804   18.0460 C.3     1  UNL1        0.0697
     10 O          -0.8246    4.3487   17.7356 O.2     1  UNL1       -0.2744
     11 C           0.6597    4.2440   17.9250 C.2     1  UNL1        0.2293
     12 N           1.6511    5.3564   17.7529 N.am    1  UNL1       -0.2839
     13 C           3.0174    4.8084   18.0412 C.ar    1  UNL1        0.0468
     14 C           4.3763    5.4433   18.0301 C.ar    1  UNL1        0.0167
     15 C           5.5883    4.6271   18.3692 C.ar    1  UNL1        0.0309
     16 C           5.4412    3.1760   18.7195 C.ar    1  UNL1        0.1399
     17 F           6.6531    2.3598   19.0587 F       1  UNL1       -0.2042
     18 C           4.0822    2.5412   18.7307 C.ar    1  UNL1        0.0270
     19 C           2.8703    3.3574   18.3915 C.ar    1  UNL1        0.0014
     20 C           1.4132    3.0085   18.3197 C.3     1  UNL1        0.0928
     21 C           0.2118    2.1153   18.4134 C.3     1  UNL1        0.0179
     22 C           1.5780    1.5674   18.7017 C.3     1  UNL1        0.0315
     23 H           1.4418    6.2834   17.4958 H       1  UNL1        0.1549
     24 C           5.5497   -3.7879   21.1874 C.2     1  UNL1        0.0209
     25 C           6.3833   -3.1318   22.2478 C.2     1  UNL1        0.0016
     26 C           6.7476   -3.8885   23.4907 C.ar    1  UNL1        0.0000
     27 C           6.3094   -3.3817   24.8328 C.ar    1  UNL1       -0.0003
     28 C           6.6736   -4.1383   26.0757 C.ar    1  UNL1       -0.0029
     29 C           7.4760   -5.4017   25.9765 C.ar    1  UNL1       -0.0061
     30 C           7.9142   -5.9085   24.6345 C.ar    1  UNL1       -0.0029
     31 C           7.5500   -5.1519   23.3915 C.ar    1  UNL1       -0.0003
     32 C           7.8403   -6.1583   27.2194 C.3     1  UNL1        0.0993
     33 N           7.9413   -5.4400   28.5323 N.3     1  UNL1       -0.2646
     34 C           9.1740   -4.6518   28.8631 C.3     1  UNL1        0.1049
     35 C           9.2750   -3.9334   30.1760 C.3     1  UNL1        0.1595
     36 O           8.1434   -4.0032   31.1581 O.3     1  UNL1       -0.3508
     37 C           6.9108   -4.7913   30.8273 C.3     1  UNL1        0.1595
     38 C           6.8097   -5.5097   29.5145 C.3     1  UNL1        0.1049
@<TRIPOS>BOND
     1    10    11    2
     2    11    12   am
     3    12    13    1
     4    13    14   ar
     5    14    15   ar
     6    15    16   ar
     7    16    17    1
     8    16    18   ar
     9    18    19   ar
    10    19    20    1
    11    20    21    1
    12    21    22    1
    13    22     1    1
    14     1     2    2
    15     2     3    1
    16     3     4    2
    17     4     5    1
    18     5    24    1
    19    24    25    2
    20    25    26    1
    21    26    27   ar
    22    27    28   ar
    23    28    29   ar
    24    29    32    1
    25    32    33    1
    26    33    34    1
    27    34    35    1
    28    35    36    1
    29    36    37    1
    30    37    38    1
    31    29    30   ar
    32    30    31   ar
    33     5     6    2
    34     6     7    1
    35     7     8    2
    36     8     9    1
    37    20    11    1
    38     9     1    1
    39    19    13   ar
    40    22    20    1
    41     8     4    1
    42    31    26   ar
    43    38    33    1
    44    12    23    1
@<TRIPOS>MOLECULE
*****
 38 44 0 0 0
SMALL
GASTEIGER

@<TRIPOS>ATOM
      1 C          -2.5212    4.7324   24.5472 C.2     1  UNL1       -0.0378
      2 C          -1.7596    3.4585   24.7647 C.2     1  UNL1       -0.0080
      3 C          -0.9501    2.8687   23.6480 C.2     1  UNL1        0.0022
      4 C          -0.9021    3.5528   22.3140 C.2     1  UNL1        0.0350
      5 C          -0.1959    3.2110   21.0355 C.2     1  UNL1        0.1040
      6 N          -0.5210    4.2736   20.0279 N.2     1  UNL1       -0.1483
      7 N          -1.4281    5.2721   20.6837 N.2     1  UNL1       -0.1520
      8 C          -1.6636    4.8267   22.0965 C.2     1  UNL1        0.0860
      9 C          -2.4732    5.4165   23.2131 C.3     1  UNL1        0.0697
     10 O          -5.2041    6.8525   28.5946 O.2     1  UNL1       -0.2744
     11 C          -5.5981    6.2521   27.2777 C.2     1  UNL1        0.2293
     12 N          -6.9981    6.1039   26.7599 N.am    1  UNL1       -0.2839
     13 C          -6.9266    5.4547   25.4096 C.ar    1  UNL1        0.0468
     14 C          -7.9899    5.0612   24.4275 C.ar    1  UNL1        0.0167
     15 C          -7.6091    4.4147   23.1286 C.ar    1  UNL1        0.0309
     16 C          -6.1649    4.1617   22.8119 C.ar    1  UNL1        0.1399
     17 F          -5.7841    3.5152   21.5130 F       1  UNL1       -0.2042
     18 C          -5.1016    4.5552   23.7940 C.ar    1  UNL1        0.0270
     19 C          -5.4824    5.2017   25.0928 C.ar    1  UNL1        0.0014
     20 C          -4.6614    5.6945   26.2474 C.3     1  UNL1        0.0928
     21 C          -3.4022    5.9714   27.0141 C.3     1  UNL1        0.0179
     22 C          -3.3307    5.3222   25.6638 C.3     1  UNL1        0.0315
     23 H          -7.8196    6.3836   27.2248 H       1  UNL1        0.1549
     24 C           0.6814    2.0163   20.8051 C.2     1  UNL1        0.0209
     25 C           1.2082    1.7265   19.4309 C.2     1  UNL1        0.0016
     26 C           2.0855    0.5318   19.2004 C.ar    1  UNL1        0.0000
     27 C           2.9793    0.4787   17.9970 C.ar    1  UNL1       -0.0003
     28 C           3.8566   -0.7160   17.7664 C.ar    1  UNL1       -0.0029
     29 C           3.8401   -1.8575   18.7394 C.ar    1  UNL1       -0.0061
     30 C           2.9463   -1.8044   19.9428 C.ar    1  UNL1       -0.0029
     31 C           2.0690   -0.6097   20.1734 C.ar    1  UNL1       -0.0003
     32 C           4.7174   -3.0521   18.5088 C.3     1  UNL1        0.0993
     33 N           6.0944   -3.0971   19.1018 N.3     1  UNL1       -0.2646
     34 C           6.3600   -3.9326   20.3190 C.3     1  UNL1        0.1049
     35 C           7.7370   -3.9776   20.9120 C.3     1  UNL1        0.1595
     36 O           8.8486   -3.1871   20.2879 O.3     1  UNL1       -0.3508
     37 C           8.5830   -2.3516   19.0708 C.3     1  UNL1        0.1595
     38 C           7.2060   -2.3066   18.4777 C.3     1  UNL1        0.1049
@<TRIPOS>BOND
     1    10    11    2
     2    11    12   am
     3    12    13    1
     4    13    14   ar
     5    14    15   ar
     6    15    16   ar
     7    16    17    1
     8    16    18   ar
     9    18    19   ar
    10    19    20    1
    11    20    21    1
    12    21    22    1
    13    22     1    1
    14     1     2    2
    15     2     3    1
    16     3     4    2
    17     4     5    1
    18     5    24    1
    19    24    25    2
    20    25    26    1
    21    26    27   ar
    22    27    28   ar
    23    28    29   ar
    24    29    32    1
    25    32    33    1
    26    33    34    1
    27    34    35    1
    28    35    36    1
    29    36    37    1
    30    37    38    1
    31    29    30   ar
    32    30    31   ar
    33     5     6    2
    34     6     7    1
    35     7     8    2
    36     8     9    1
    37    20    11    1
    38     9     1    1
    39    19    13   ar
    40    22    20    1
    41     8     4    1
    42    31    26   ar
    43    38    33    1
    44    12    23    1
