@<TRIPOS>MOLECULE
*****
 24 27 0 0 0
SMALL
GASTEIGER

@<TRIPOS>ATOM
      1 C          -8.0198  -18.4558   21.5708 C.ar    1  UNL1        0.1215
      2 N          -9.2070  -19.3160   21.2533 N.ar    1  UNL1       -0.2309
      3 C         -10.4458  -18.5161   21.5280 C.ar    1  UNL1        0.0983
      4 C         -11.9032  -18.8461   21.3974 C.ar    1  UNL1        0.0206
      5 C         -12.9390  -17.8216   21.7541 C.ar    1  UNL1        0.0016
      6 C         -12.5175  -16.4670   22.2414 C.ar    1  UNL1        0.0016
      7 C         -11.0602  -16.1370   22.3720 C.ar    1  UNL1        0.0188
      8 C         -10.0243  -17.1615   22.0153 C.ar    1  UNL1        0.0789
      9 N          -8.5250  -17.1243   22.0418 N.ar    1  UNL1       -0.3106
     10 C          -3.1024  -18.1751   23.2263 C.3     1  UNL1        0.0896
     11 N          -4.1216  -18.7164   22.2680 N.3     1  UNL1       -0.2711
     12 C          -3.7013  -19.6587   21.1792 C.3     1  UNL1        0.0722
     13 C          -4.7205  -20.2000   20.2210 C.3     1  UNL1        0.0178
     14 C          -6.1600  -19.7990   20.3515 C.3     1  UNL1        0.0103
     15 C          -6.5803  -18.8568   21.4403 C.3     1  UNL1        0.0729
     16 C          -5.5612  -18.3155   22.3985 C.3     1  UNL1        0.0796
     17 C          -7.6793  -15.9599   22.4649 C.3     1  UNL1        0.1339
     18 C          -7.3905  -15.7318   23.9190 C.ar    1  UNL1        0.0006
     19 C          -5.9919  -15.4262   24.3669 C.ar    1  UNL1       -0.0001
     20 C          -5.7029  -15.1981   25.8210 C.ar    1  UNL1        0.0294
     21 C          -6.8126  -15.2757   26.8273 C.ar    1  UNL1        0.1401
     22 F          -6.5237  -15.0476   28.2814 F       1  UNL1       -0.2042
     23 C          -8.2112  -15.5813   26.3794 C.ar    1  UNL1        0.0294
     24 C          -8.5001  -15.8094   24.9253 C.ar    1  UNL1       -0.0001
@<TRIPOS>BOND
     1    10    11    1
     2    11    12    1
     3    12    13    1
     4    13    14    1
     5    14    15    1
     6    15     1    1
     7     1     2   ar
     8     2     3   ar
     9     3     4   ar
    10     4     5   ar
    11     5     6   ar
    12     6     7   ar
    13     7     8   ar
    14     8     9   ar
    15     9    17    1
    16    17    18    1
    17    18    19   ar
    18    19    20   ar
    19    20    21   ar
    20    21    22    1
    21    21    23   ar
    22    23    24   ar
    23    15    16    1
    24    16    11    1
    25     9     1   ar
    26    24    18   ar
    27     8     3   ar
@<TRIPOS>MOLECULE
*****
 24 27 0 0 0
SMALL
GASTEIGER

@<TRIPOS>ATOM
      1 C          -8.2324  -16.9709   22.8923 C.ar    1  UNL1        0.1215
      2 N          -9.4509  -16.3755   22.2513 N.ar    1  UNL1       -0.2309
      3 C          -9.9355  -17.3302   21.2007 C.ar    1  UNL1        0.0983
      4 C         -11.0948  -17.2732   20.2507 C.ar    1  UNL1        0.0206
      5 C         -11.3352  -18.4017   19.2922 C.ar    1  UNL1        0.0016
      6 C         -10.4162  -19.5871   19.2838 C.ar    1  UNL1        0.0016
      7 C          -9.2568  -19.6442   20.2339 C.ar    1  UNL1        0.0188
      8 C          -9.0165  -18.5157   21.1923 C.ar    1  UNL1        0.0789
      9 N          -7.9640  -18.2936   22.2377 N.ar    1  UNL1       -0.3106
     10 C          -7.9005  -15.1248   27.7381 C.3     1  UNL1        0.0896
     11 N          -7.2583  -15.4292   26.4171 N.3     1  UNL1       -0.2711
     12 C          -5.8081  -15.1150   26.1980 C.3     1  UNL1        0.0722
     13 C          -5.1660  -15.4194   24.8771 C.3     1  UNL1        0.0178
     14 C          -5.9741  -16.0380   23.7751 C.3     1  UNL1        0.0103
     15 C          -7.4243  -16.3523   23.9942 C.3     1  UNL1        0.0729
     16 C          -8.0664  -16.0479   25.3151 C.3     1  UNL1        0.0796
     17 C          -6.8402  -19.2299   22.5702 C.3     1  UNL1        0.1339
     18 C          -5.5358  -19.1262   21.8372 C.ar    1  UNL1        0.0006
     19 C          -5.5107  -19.1862   20.3386 C.ar    1  UNL1       -0.0001
     20 C          -4.2062  -19.0825   19.6055 C.ar    1  UNL1        0.0294
     21 C          -2.9266  -18.9188   20.3710 C.ar    1  UNL1        0.1401
     22 F          -1.6221  -18.8151   19.6379 F       1  UNL1       -0.2042
     23 C          -2.9517  -18.8588   21.8696 C.ar    1  UNL1        0.0294
     24 C          -4.2562  -18.9625   22.6027 C.ar    1  UNL1       -0.0001
@<TRIPOS>BOND
     1    10    11    1
     2    11    12    1
     3    12    13    1
     4    13    14    1
     5    14    15    1
     6    15     1    1
     7     1     2   ar
     8     2     3   ar
     9     3     4   ar
    10     4     5   ar
    11     5     6   ar
    12     6     7   ar
    13     7     8   ar
    14     8     9   ar
    15     9    17    1
    16    17    18    1
    17    18    19   ar
    18    19    20   ar
    19    20    21   ar
    20    21    22    1
    21    21    23   ar
    22    23    24   ar
    23    15    16    1
    24    16    11    1
    25     9     1   ar
    26    24    18   ar
    27     8     3   ar
@<TRIPOS>MOLECULE
*****
 24 27 0 0 0
SMALL
GASTEIGER

@<TRIPOS>ATOM
      1 C          -4.4032  -16.8023   23.0729 C.ar    1  UNL1        0.1215
      2 N          -3.2405  -15.9722   22.6157 N.ar    1  UNL1       -0.2309
      3 C          -2.4336  -16.7940   21.6547 C.ar    1  UNL1        0.0983
      4 C          -1.1800  -16.4968   20.8865 C.ar    1  UNL1        0.0206
      5 C          -0.5905  -17.5377   19.9815 C.ar    1  UNL1        0.0016
      6 C          -1.2544  -18.8757   19.8448 C.ar    1  UNL1        0.0016
      7 C          -2.5080  -19.1729   20.6131 C.ar    1  UNL1        0.0188
      8 C          -3.0976  -18.1321   21.5180 C.ar    1  UNL1        0.0789
      9 N          -4.3148  -18.1372   22.3945 N.ar    1  UNL1       -0.3106
     10 C          -9.4139  -15.9777   24.1740 C.3     1  UNL1        0.0896
     11 N          -7.9727  -15.9606   24.5895 N.3     1  UNL1       -0.2711
     12 C          -7.5957  -15.5142   25.9710 C.3     1  UNL1        0.0722
     13 C          -6.1545  -15.4971   26.3864 C.3     1  UNL1        0.0178
     14 C          -5.0903  -15.9265   25.4204 C.3     1  UNL1        0.0103
     15 C          -5.4673  -16.3729   24.0389 C.3     1  UNL1        0.0729
     16 C          -6.9085  -16.3900   23.6235 C.3     1  UNL1        0.0796
     17 C          -5.2751  -19.2771   22.5630 C.3     1  UNL1        0.1339
     18 C          -6.5268  -19.3315   21.7383 C.ar    1  UNL1        0.0006
     19 C          -7.8673  -19.3632   22.4108 C.ar    1  UNL1       -0.0001
     20 C          -9.1191  -19.4176   21.5861 C.ar    1  UNL1        0.0294
     21 C          -9.0304  -19.4403   20.0889 C.ar    1  UNL1        0.1401
     22 F         -10.2822  -19.4947   19.2642 F       1  UNL1       -0.2042
     23 C          -7.6900  -19.4086   19.4164 C.ar    1  UNL1        0.0294
     24 C          -6.4382  -19.3542   20.2411 C.ar    1  UNL1       -0.0001
@<TRIPOS>BOND
     1    10    11    1
     2    11    12    1
     3    12    13    1
     4    13    14    1
     5    14    15    1
     6    15     1    1
     7     1     2   ar
     8     2     3   ar
     9     3     4   ar
    10     4     5   ar
    11     5     6   ar
    12     6     7   ar
    13     7     8   ar
    14     8     9   ar
    15     9    17    1
    16    17    18    1
    17    18    19   ar
    18    19    20   ar
    19    20    21   ar
    20    21    22    1
    21    21    23   ar
    22    23    24   ar
    23    15    16    1
    24    16    11    1
    25     9     1   ar
    26    24    18   ar
    27     8     3   ar
@<TRIPOS>MOLECULE
*****
 24 27 0 0 0
SMALL
GASTEIGER

@<TRIPOS>ATOM
      1 C          -6.9042  -18.1961   22.5548 C.ar    1  UNL1        0.1215
      2 N          -6.2734  -19.4494   22.0243 N.ar    1  UNL1       -0.2309
      3 C          -4.7866  -19.2512   22.0131 C.ar    1  UNL1        0.0983
      4 C          -3.6579  -20.1457   21.5938 C.ar    1  UNL1        0.0206
      5 C          -2.2411  -19.6644   21.6980 C.ar    1  UNL1        0.0016
      6 C          -1.9529  -18.2886   22.2216 C.ar    1  UNL1        0.0016
      7 C          -3.0816  -17.3941   22.6409 C.ar    1  UNL1        0.0188
      8 C          -4.4984  -17.8754   22.5366 C.ar    1  UNL1        0.0789
      9 N          -5.8072  -17.2233   22.8714 N.ar    1  UNL1       -0.3106
     10 C         -11.3452  -16.0324   20.9435 C.3     1  UNL1        0.0896
     11 N         -10.5943  -16.8757   21.9311 N.3     1  UNL1       -0.2711
     12 C         -11.3132  -17.4804   23.1005 C.3     1  UNL1        0.0722
     13 C         -10.5624  -18.3236   24.0880 C.3     1  UNL1        0.0178
     14 C          -9.0927  -18.5622   23.9061 C.3     1  UNL1        0.0103
     15 C          -8.3739  -17.9576   22.7367 C.3     1  UNL1        0.0729
     16 C          -9.1247  -17.1143   21.7492 C.3     1  UNL1        0.0796
     17 C          -5.9873  -15.8411   23.4255 C.3     1  UNL1        0.1339
     18 C          -6.7500  -15.6379   24.7009 C.ar    1  UNL1        0.0006
     19 C          -6.0513  -15.7691   26.0218 C.ar    1  UNL1       -0.0001
     20 C          -6.8141  -15.5659   27.2973 C.ar    1  UNL1        0.0294
     21 C          -8.2756  -15.2313   27.2519 C.ar    1  UNL1        0.1401
     22 F          -9.0384  -15.0280   28.5274 F       1  UNL1       -0.2042
     23 C          -8.9743  -15.1000   25.9311 C.ar    1  UNL1        0.0294
     24 C          -8.2116  -15.3033   24.6556 C.ar    1  UNL1       -0.0001
@<TRIPOS>BOND
     1    10    11    1
     2    11    12    1
     3    12    13    1
     4    13    14    1
     5    14    15    1
     6    15     1    1
     7     1     2   ar
     8     2     3   ar
     9     3     4   ar
    10     4     5   ar
    11     5     6   ar
    12     6     7   ar
    13     7     8   ar
    14     8     9   ar
    15     9    17    1
    16    17    18    1
    17    18    19   ar
    18    19    20   ar
    19    20    21   ar
    20    21    22    1
    21    21    23   ar
    22    23    24   ar
    23    15    16    1
    24    16    11    1
    25     9     1   ar
    26    24    18   ar
    27     8     3   ar
@<TRIPOS>MOLECULE
*****
 24 27 0 0 0
SMALL
GASTEIGER

@<TRIPOS>ATOM
      1 C          -8.8894  -18.6657   21.5419 C.ar    1  UNL1        0.1215
      2 N          -8.4501  -20.0005   21.0172 N.ar    1  UNL1       -0.2309
      3 C          -6.9560  -19.9780   20.8857 C.ar    1  UNL1        0.0983
      4 C          -5.9738  -21.0114   20.4194 C.ar    1  UNL1        0.0206
      5 C          -4.5076  -20.6961   20.3967 C.ar    1  UNL1        0.0016
      6 C          -4.0235  -19.3474   20.8401 C.ar    1  UNL1        0.0016
      7 C          -5.0056  -18.3140   21.3064 C.ar    1  UNL1        0.0188
      8 C          -6.4719  -18.6293   21.3292 C.ar    1  UNL1        0.0789
      9 N          -7.6668  -17.8183   21.7347 N.ar    1  UNL1       -0.3106
     10 C         -13.0202  -18.6161   24.6937 C.3     1  UNL1        0.0896
     11 N         -12.3684  -18.2263   23.4001 N.3     1  UNL1       -0.2711
     12 C         -13.1303  -17.4219   22.3889 C.3     1  UNL1        0.0722
     13 C         -12.4786  -17.0322   21.0954 C.3     1  UNL1        0.0178
     14 C         -11.0649  -17.4468   20.8131 C.3     1  UNL1        0.0103
     15 C         -10.3030  -18.2511   21.8242 C.3     1  UNL1        0.0729
     16 C         -10.9548  -18.6409   23.1178 C.3     1  UNL1        0.0796
     17 C          -7.6432  -16.4075   22.2438 C.3     1  UNL1        0.1339
     18 C          -7.3638  -16.1374   23.6925 C.ar    1  UNL1        0.0006
     19 C          -5.9723  -15.7966   24.1371 C.ar    1  UNL1       -0.0001
     20 C          -5.6928  -15.5265   25.5859 C.ar    1  UNL1        0.0294
     21 C          -6.8049  -15.5972   26.5901 C.ar    1  UNL1        0.1401
     22 F          -6.5255  -15.3271   28.0388 F       1  UNL1       -0.2042
     23 C          -8.1964  -15.9380   26.1454 C.ar    1  UNL1        0.0294
     24 C          -8.4758  -16.2081   24.6967 C.ar    1  UNL1       -0.0001
@<TRIPOS>BOND
     1    10    11    1
     2    11    12    1
     3    12    13    1
     4    13    14    1
     5    14    15    1
     6    15     1    1
     7     1     2   ar
     8     2     3   ar
     9     3     4   ar
    10     4     5   ar
    11     5     6   ar
    12     6     7   ar
    13     7     8   ar
    14     8     9   ar
    15     9    17    1
    16    17    18    1
    17    18    19   ar
    18    19    20   ar
    19    20    21   ar
    20    21    22    1
    21    21    23   ar
    22    23    24   ar
    23    15    16    1
    24    16    11    1
    25     9     1   ar
    26    24    18   ar
    27     8     3   ar
@<TRIPOS>MOLECULE
*****
 24 27 0 0 0
SMALL
GASTEIGER

@<TRIPOS>ATOM
      1 C          -7.3060  -17.4977   22.7030 C.ar    1  UNL1        0.1215
      2 N          -6.4911  -18.5576   22.0228 N.ar    1  UNL1       -0.2309
      3 C          -7.3219  -19.1452   20.9207 C.ar    1  UNL1        0.0983
      4 C          -7.0404  -20.2246   19.9180 C.ar    1  UNL1        0.0206
      5 C          -8.0873  -20.6073   18.9143 C.ar    1  UNL1        0.0016
      6 C          -9.4157  -19.9106   18.9133 C.ar    1  UNL1        0.0016
      7 C          -9.6972  -18.8312   19.9161 C.ar    1  UNL1        0.0188
      8 C          -8.6503  -18.4485   20.9198 C.ar    1  UNL1        0.0789
      9 N          -8.6405  -17.4303   22.0213 N.ar    1  UNL1       -0.3106
     10 C          -8.3107  -15.2663   27.2868 C.3     1  UNL1        0.0896
     11 N          -7.3664  -15.5378   26.1533 N.3     1  UNL1       -0.2711
     12 C          -5.9802  -14.9652   26.1784 C.3     1  UNL1        0.0722
     13 C          -5.0360  -15.2368   25.0450 C.3     1  UNL1        0.0178
     14 C          -5.4780  -16.0810   23.8865 C.3     1  UNL1        0.0103
     15 C          -6.8641  -16.6536   23.8615 C.3     1  UNL1        0.0729
     16 C          -7.8083  -16.3820   24.9949 C.3     1  UNL1        0.0796
     17 C          -9.7673  -16.5069   22.3783 C.3     1  UNL1        0.1339
     18 C         -11.0325  -17.0592   22.9647 C.ar    1  UNL1        0.0006
     19 C         -10.9697  -18.1592   23.9827 C.ar    1  UNL1       -0.0001
     20 C         -12.2350  -18.7115   24.5692 C.ar    1  UNL1        0.0294
     21 C         -13.5632  -18.1639   24.1377 C.ar    1  UNL1        0.1401
     22 F         -14.8284  -18.7163   24.7241 F       1  UNL1       -0.2042
     23 C         -13.6260  -17.0640   23.1198 C.ar    1  UNL1        0.0294
     24 C         -12.3607  -16.5116   22.5333 C.ar    1  UNL1       -0.0001
@<TRIPOS>BOND
     1    10    11    1
     2    11    12    1
     3    12    13    1
     4    13    14    1
     5    14    15    1
     6    15     1    1
     7     1     2   ar
     8     2     3   ar
     9     3     4   ar
    10     4     5   ar
    11     5     6   ar
    12     6     7   ar
    13     7     8   ar
    14     8     9   ar
    15     9    17    1
    16    17    18    1
    17    18    19   ar
    18    19    20   ar
    19    20    21   ar
    20    21    22    1
    21    21    23   ar
    22    23    24   ar
    23    15    16    1
    24    16    11    1
    25     9     1   ar
    26    24    18   ar
    27     8     3   ar
@<TRIPOS>MOLECULE
*****
 24 27 0 0 0
SMALL
GASTEIGER

@<TRIPOS>ATOM
      1 C          -7.1148  -18.9767   22.0148 C.ar    1  UNL1        0.1215
      2 N          -6.1001  -20.0338   21.6938 N.ar    1  UNL1       -0.2309
      3 C          -4.7364  -19.4511   21.9194 C.ar    1  UNL1        0.0983
      4 C          -3.3605  -20.0280   21.7650 C.ar    1  UNL1        0.0206
      5 C          -2.1563  -19.1876   22.0710 C.ar    1  UNL1        0.0016
      6 C          -2.3281  -17.7704   22.5315 C.ar    1  UNL1        0.0016
      7 C          -3.7041  -17.1936   22.6859 C.ar    1  UNL1        0.0188
      8 C          -4.9082  -18.0340   22.3798 C.ar    1  UNL1        0.0789
      9 N          -6.3781  -17.7407   22.4388 N.ar    1  UNL1       -0.3106
     10 C         -11.7859  -18.9158   24.2901 C.3     1  UNL1        0.0896
     11 N         -10.9400  -19.0984   23.0648 N.3     1  UNL1       -0.2711
     12 C         -11.5838  -19.4331   21.7521 C.3     1  UNL1        0.0722
     13 C         -10.7380  -19.6157   20.5269 C.3     1  UNL1        0.0178
     14 C          -9.2483  -19.4636   20.6145 C.3     1  UNL1        0.0103
     15 C          -8.6045  -19.1288   21.9272 C.3     1  UNL1        0.0729
     16 C          -9.4503  -18.9462   23.1524 C.3     1  UNL1        0.0796
     17 C          -7.0019  -16.4399   22.8497 C.3     1  UNL1        0.1339
     18 C          -6.9176  -15.9854   24.2766 C.ar    1  UNL1        0.0006
     19 C          -8.1299  -16.0514   25.1577 C.ar    1  UNL1       -0.0001
     20 C          -8.0457  -15.5968   26.5846 C.ar    1  UNL1        0.0294
     21 C          -6.7492  -15.0762   27.1307 C.ar    1  UNL1        0.1401
     22 F          -6.6651  -14.6217   28.5576 F       1  UNL1       -0.2042
     23 C          -5.5370  -15.0102   26.2497 C.ar    1  UNL1        0.0294
     24 C          -5.6212  -15.4648   24.8227 C.ar    1  UNL1       -0.0001
@<TRIPOS>BOND
     1    10    11    1
     2    11    12    1
     3    12    13    1
     4    13    14    1
     5    14    15    1
     6    15     1    1
     7     1     2   ar
     8     2     3   ar
     9     3     4   ar
    10     4     5   ar
    11     5     6   ar
    12     6     7   ar
    13     7     8   ar
    14     8     9   ar
    15     9    17    1
    16    17    18    1
    17    18    19   ar
    18    19    20   ar
    19    20    21   ar
    20    21    22    1
    21    21    23   ar
    22    23    24   ar
    23    15    16    1
    24    16    11    1
    25     9     1   ar
    26    24    18   ar
    27     8     3   ar
@<TRIPOS>MOLECULE
*****
 24 27 0 0 0
SMALL
GASTEIGER

@<TRIPOS>ATOM
      1 C          -6.7275  -19.1838   22.1288 C.ar    1  UNL1        0.1215
      2 N          -5.6316  -20.0592   21.5973 N.ar    1  UNL1       -0.2309
      3 C          -4.3226  -19.3775   21.8653 C.ar    1  UNL1        0.0983
      4 C          -2.9064  -19.7701   21.5647 C.ar    1  UNL1        0.0206
      5 C          -1.7773  -18.8658   21.9612 C.ar    1  UNL1        0.0016
      6 C          -2.0642  -17.5691   22.6584 C.ar    1  UNL1        0.0016
      7 C          -3.4803  -17.1765   22.9590 C.ar    1  UNL1        0.0188
      8 C          -4.6095  -18.0808   22.5625 C.ar    1  UNL1        0.0789
      9 N          -6.0959  -17.9611   22.7253 N.ar    1  UNL1       -0.3106
     10 C         -11.2423  -19.0923   19.5581 C.3     1  UNL1        0.0896
     11 N         -10.4545  -19.4335   20.7882 N.3     1  UNL1       -0.2711
     12 C         -11.1363  -20.0701   21.9628 C.3     1  UNL1        0.0722
     13 C         -10.3484  -20.4113   23.1928 C.3     1  UNL1        0.0178
     14 C          -8.8789  -20.1159   23.2481 C.3     1  UNL1        0.0103
     15 C          -8.1971  -19.4793   22.0735 C.3     1  UNL1        0.0729
     16 C          -8.9849  -19.1381   20.8435 C.3     1  UNL1        0.0796
     17 C          -6.8229  -16.8190   23.3713 C.3     1  UNL1        0.1339
     18 C          -8.2687  -16.5754   23.0550 C.ar    1  UNL1        0.0006
     19 C          -9.3278  -16.9551   24.0472 C.ar    1  UNL1       -0.0001
     20 C         -10.7737  -16.7114   23.7310 C.ar    1  UNL1        0.0294
     21 C         -11.1605  -16.0881   22.4225 C.ar    1  UNL1        0.1401
     22 F         -12.6064  -15.8445   22.1063 F       1  UNL1       -0.2042
     23 C         -10.1015  -15.7085   21.4305 C.ar    1  UNL1        0.0294
     24 C          -8.6556  -15.9521   21.7467 C.ar    1  UNL1       -0.0001
@<TRIPOS>BOND
     1    10    11    1
     2    11    12    1
     3    12    13    1
     4    13    14    1
     5    14    15    1
     6    15     1    1
     7     1     2   ar
     8     2     3   ar
     9     3     4   ar
    10     4     5   ar
    11     5     6   ar
    12     6     7   ar
    13     7     8   ar
    14     8     9   ar
    15     9    17    1
    16    17    18    1
    17    18    19   ar
    18    19    20   ar
    19    20    21   ar
    20    21    22    1
    21    21    23   ar
    22    23    24   ar
    23    15    16    1
    24    16    11    1
    25     9     1   ar
    26    24    18   ar
    27     8     3   ar
@<TRIPOS>MOLECULE
*****
 24 27 0 0 0
SMALL
GASTEIGER

@<TRIPOS>ATOM
      1 C          -8.0362  -18.3145   21.7009 C.ar    1  UNL1        0.1215
      2 N          -9.1354  -18.4018   20.6840 N.ar    1  UNL1       -0.2309
      3 C          -8.8155  -19.5324   19.7515 C.ar    1  UNL1        0.0983
      4 C          -9.5376  -20.0841   18.5581 C.ar    1  UNL1        0.0206
      5 C          -8.9628  -21.2472   17.8053 C.ar    1  UNL1        0.0016
      6 C          -7.6659  -21.8586   18.2459 C.ar    1  UNL1        0.0016
      7 C          -6.9437  -21.3069   19.4392 C.ar    1  UNL1        0.0188
      8 C          -7.5186  -20.1438   20.1920 C.ar    1  UNL1        0.0789
      9 N          -7.0369  -19.3911   21.3968 N.ar    1  UNL1       -0.3106
     10 C          -5.2051  -15.2119   24.7601 C.3     1  UNL1        0.0896
     11 N          -6.5356  -15.7732   24.3541 N.3     1  UNL1       -0.2711
     12 C          -7.7810  -15.3443   25.0717 C.3     1  UNL1        0.0722
     13 C          -9.1115  -15.9055   24.6657 C.3     1  UNL1        0.0178
     14 C          -9.1965  -16.8956   23.5421 C.3     1  UNL1        0.0103
     15 C          -7.9511  -17.3244   22.8245 C.3     1  UNL1        0.0729
     16 C          -6.6207  -16.7632   23.2305 C.3     1  UNL1        0.0796
     17 C          -5.7772  -19.6667   22.1630 C.3     1  UNL1        0.1339
     18 C          -4.4592  -19.1770   21.6405 C.ar    1  UNL1        0.0006
     19 C          -4.1308  -19.3179   20.1837 C.ar    1  UNL1       -0.0001
     20 C          -2.8128  -18.8282   19.6611 C.ar    1  UNL1        0.0294
     21 C          -1.8231  -18.1976   20.5955 C.ar    1  UNL1        0.1401
     22 F          -0.5051  -17.7080   20.0729 F       1  UNL1       -0.2042
     23 C          -2.1515  -18.0568   22.0523 C.ar    1  UNL1        0.0294
     24 C          -3.4695  -18.5465   22.5748 C.ar    1  UNL1       -0.0001
@<TRIPOS>BOND
     1    10    11    1
     2    11    12    1
     3    12    13    1
     4    13    14    1
     5    14    15    1
     6    15     1    1
     7     1     2   ar
     8     2     3   ar
     9     3     4   ar
    10     4     5   ar
    11     5     6   ar
    12     6     7   ar
    13     7     8   ar
    14     8     9   ar
    15     9    17    1
    16    17    18    1
    17    18    19   ar
    18    19    20   ar
    19    20    21   ar
    20    21    22    1
    21    21    23   ar
    22    23    24   ar
    23    15    16    1
    24    16    11    1
    25     9     1   ar
    26    24    18   ar
    27     8     3   ar
