@<TRIPOS>MOLECULE
*****
 25 28 0 0 0
SMALL
GASTEIGER

@<TRIPOS>ATOM
      1 C          -6.8360  -18.5052   22.3159 C.3     1  UNL1        0.1140
      2 C          -5.3604  -18.7127   22.1429 C.ar    1  UNL1        0.0273
      3 C          -4.5720  -19.7828   21.4478 C.ar    1  UNL1        0.1379
      4 F          -5.2824  -20.9106   20.7599 F       1  UNL1       -0.2044
      5 C          -3.0731  -19.7251   21.4408 C.ar    1  UNL1        0.0294
      6 C          -2.3628  -18.5973   22.1288 C.ar    1  UNL1        0.0023
      7 C          -3.1512  -17.5271   22.8238 C.ar    1  UNL1        0.0014
      8 C          -4.6501  -17.5848   22.8309 C.ar    1  UNL1        0.0173
      9 C          -5.6865  -16.6803   23.4291 C.ar    1  UNL1        0.0804
     10 C          -5.8880  -15.4243   24.2239 C.ar    1  UNL1        0.1178
     11 N          -7.3634  -15.2169   24.3969 N.ar    1  UNL1       -0.2223
     12 C          -8.0739  -16.3447   23.7089 C.ar    1  UNL1        0.1788
     13 N          -7.0375  -17.2492   23.1107 N.ar    1  UNL1       -0.3068
     14 C          -7.9197  -19.3972   21.7868 C.3     1  UNL1        0.0565
     15 O          -9.2565  -18.3952   19.7971 O.3     1  UNL1       -0.3844
     16 C          -9.1822  -18.8000   21.2396 C.3     1  UNL1        0.1127
     17 H          -8.4099  -18.5859   19.3637 H       1  UNL1        0.2103
     18 C         -10.3703  -18.6076   22.1347 C.3     1  UNL1        0.0274
     19 C         -10.3862  -19.2227   23.5027 C.3     1  UNL1        0.0080
     20 C         -11.5743  -19.0303   24.3978 C.3     1  UNL1        0.0666
     21 C         -12.7466  -18.2228   23.9250 C.3     1  UNL1        0.2639
     22 F         -14.0859  -17.5474   23.9275 F       1  UNL1       -0.2043
     23 F         -13.2275  -18.6034   25.2938 F       1  UNL1       -0.2043
     24 C         -12.7308  -17.6076   22.5570 C.3     1  UNL1        0.0666
     25 C         -11.5427  -17.8000   21.6618 C.3     1  UNL1        0.0080
@<TRIPOS>BOND
     1    15    16    1
     2    16    14    1
     3    14     1    1
     4     1     2    1
     5     2     3   ar
     6     3     4    1
     7     3     5   ar
     8     5     6   ar
     9     6     7   ar
    10     7     8   ar
    11     8     9    1
    12     9    10   ar
    13    10    11   ar
    14    11    12   ar
    15    12    13   ar
    16    16    18    1
    17    18    19    1
    18    19    20    1
    19    20    21    1
    20    21    22    1
    21    21    23    1
    22    21    24    1
    23    24    25    1
    24    13     1    1
    25    25    18    1
    26     8     2   ar
    27    13     9   ar
    28    15    17    1
@<TRIPOS>MOLECULE
*****
 25 28 0 0 0
SMALL
GASTEIGER

@<TRIPOS>ATOM
      1 C          -8.2085  -17.8852   21.8058 C.3     1  UNL1        0.1140
      2 C          -9.7021  -17.7469   21.7985 C.ar    1  UNL1        0.0273
      3 C         -10.7665  -18.3990   20.9668 C.ar    1  UNL1        0.1379
      4 F         -10.3881  -19.3948   19.9108 F       1  UNL1       -0.2044
      5 C         -12.2093  -18.0553   21.1911 C.ar    1  UNL1        0.0294
      6 C         -12.5876  -17.0595   22.2471 C.ar    1  UNL1        0.0023
      7 C         -11.5232  -16.4074   23.0788 C.ar    1  UNL1        0.0014
      8 C         -10.0805  -16.7510   22.8546 C.ar    1  UNL1        0.0173
      9 C          -8.8208  -16.2739   23.5145 C.ar    1  UNL1        0.0804
     10 C          -8.2761  -15.3636   24.5749 C.ar    1  UNL1        0.1178
     11 N          -6.7825  -15.5019   24.5822 N.ar    1  UNL1       -0.2223
     12 C          -6.4041  -16.4977   23.5261 C.ar    1  UNL1        0.1788
     13 N          -7.6638  -16.9748   22.8663 N.ar    1  UNL1       -0.3068
     14 C          -7.4013  -18.7772   20.9098 C.3     1  UNL1        0.0565
     15 O          -6.5901  -20.7549   22.3866 O.3     1  UNL1       -0.3844
     16 C          -6.2840  -19.5999   21.4798 C.3     1  UNL1        0.1127
     17 H          -7.5505  -20.8313   22.5000 H       1  UNL1        0.2103
     18 C          -4.8606  -19.2675   21.1431 C.3     1  UNL1        0.0274
     19 C          -3.8559  -19.0739   22.2399 C.3     1  UNL1        0.0080
     20 C          -2.4325  -18.7415   21.9031 C.3     1  UNL1        0.0666
     21 C          -2.0137  -18.6029   20.4695 C.3     1  UNL1        0.2639
     22 F          -1.1408  -18.3687   19.2724 F       1  UNL1       -0.2043
     23 F          -0.7060  -18.3279   21.1507 F       1  UNL1       -0.2043
     24 C          -3.0184  -18.7965   19.3726 C.3     1  UNL1        0.0666
     25 C          -4.4418  -19.1289   19.7093 C.3     1  UNL1        0.0080
@<TRIPOS>BOND
     1    15    16    1
     2    16    14    1
     3    14     1    1
     4     1     2    1
     5     2     3   ar
     6     3     4    1
     7     3     5   ar
     8     5     6   ar
     9     6     7   ar
    10     7     8   ar
    11     8     9    1
    12     9    10   ar
    13    10    11   ar
    14    11    12   ar
    15    12    13   ar
    16    16    18    1
    17    18    19    1
    18    19    20    1
    19    20    21    1
    20    21    22    1
    21    21    23    1
    22    21    24    1
    23    24    25    1
    24    13     1    1
    25    25    18    1
    26     8     2   ar
    27    13     9   ar
    28    15    17    1
@<TRIPOS>MOLECULE
*****
 25 28 0 0 0
SMALL
GASTEIGER

@<TRIPOS>ATOM
      1 C          -7.0914  -18.3025   21.9691 C.3     1  UNL1        0.1140
      2 C          -5.7267  -18.8648   21.7013 C.ar    1  UNL1        0.0273
      3 C          -4.4064  -18.6631   22.3840 C.ar    1  UNL1        0.1379
      4 F          -4.3069  -17.7498   23.5697 F       1  UNL1       -0.2044
      5 C          -3.1855  -19.3748   21.8809 C.ar    1  UNL1        0.0294
      6 C          -3.2851  -20.2881   20.6953 C.ar    1  UNL1        0.0023
      7 C          -4.6054  -20.4898   20.0126 C.ar    1  UNL1        0.0014
      8 C          -5.8262  -19.7782   20.5156 C.ar    1  UNL1        0.0173
      9 C          -7.2523  -19.7804   20.0505 C.ar    1  UNL1        0.0804
     10 C          -8.1951  -20.3463   19.0303 C.ar    1  UNL1        0.1178
     11 N          -9.5597  -19.7840   19.2980 N.ar    1  UNL1       -0.2223
     12 C          -9.4603  -18.8706   20.4837 C.ar    1  UNL1        0.1788
     13 N          -8.0342  -18.8684   20.9488 N.ar    1  UNL1       -0.3068
     14 C          -7.4502  -17.3429   23.0647 C.3     1  UNL1        0.0565
     15 O          -8.4895  -15.0474   22.4319 O.3     1  UNL1       -0.3844
     16 C          -8.6514  -16.4561   22.9214 C.3     1  UNL1        0.1127
     17 H          -7.5520  -14.8722   22.2550 H       1  UNL1        0.2103
     18 C         -10.0144  -16.9778   23.2675 C.3     1  UNL1        0.0274
     19 C         -10.1616  -18.0860   24.2676 C.3     1  UNL1        0.0080
     20 C         -11.5247  -18.6078   24.6137 C.3     1  UNL1        0.0666
     21 C         -12.7406  -18.0214   23.9597 C.3     1  UNL1        0.2639
     22 F         -14.1813  -17.7921   23.6109 F       1  UNL1       -0.2043
     23 F         -13.3881  -19.0500   24.8387 F       1  UNL1       -0.2043
     24 C         -12.5934  -16.9131   22.9595 C.3     1  UNL1        0.0666
     25 C         -11.2304  -16.3914   22.6134 C.3     1  UNL1        0.0080
@<TRIPOS>BOND
     1    15    16    1
     2    16    14    1
     3    14     1    1
     4     1     2    1
     5     2     3   ar
     6     3     4    1
     7     3     5   ar
     8     5     6   ar
     9     6     7   ar
    10     7     8   ar
    11     8     9    1
    12     9    10   ar
    13    10    11   ar
    14    11    12   ar
    15    12    13   ar
    16    16    18    1
    17    18    19    1
    18    19    20    1
    19    20    21    1
    20    21    22    1
    21    21    23    1
    22    21    24    1
    23    24    25    1
    24    13     1    1
    25    25    18    1
    26     8     2   ar
    27    13     9   ar
    28    15    17    1
@<TRIPOS>MOLECULE
*****
 25 28 0 0 0
SMALL
GASTEIGER

@<TRIPOS>ATOM
      1 C          -3.9646  -17.9015   22.3529 C.3     1  UNL1        0.1140
      2 C          -2.9489  -17.7593   21.2582 C.ar    1  UNL1        0.0273
      3 C          -1.7598  -16.8582   21.1031 C.ar    1  UNL1        0.1379
      4 F          -1.4216  -15.8707   22.1802 F       1  UNL1       -0.2044
      5 C          -0.9089  -16.9447   19.8708 C.ar    1  UNL1        0.0294
      6 C          -1.2472  -17.9323   18.7937 C.ar    1  UNL1        0.0023
      7 C          -2.4363  -18.8334   18.9487 C.ar    1  UNL1        0.0014
      8 C          -3.2872  -18.7469   20.1810 C.ar    1  UNL1        0.0173
      9 C          -4.5118  -19.4994   20.6099 C.ar    1  UNL1        0.0804
     10 C          -5.4777  -20.5748   20.2092 C.ar    1  UNL1        0.1178
     11 N          -6.4934  -20.7169   21.3039 N.ar    1  UNL1       -0.2223
     12 C          -6.1552  -19.7293   22.3811 C.ar    1  UNL1        0.1788
     13 N          -4.9305  -18.9769   21.9522 N.ar    1  UNL1       -0.3068
     14 C          -4.0069  -17.1076   23.6248 C.3     1  UNL1        0.0565
     15 O          -4.3833  -14.6977   22.7299 O.3     1  UNL1       -0.3844
     16 C          -4.7505  -15.8057   23.6720 C.3     1  UNL1        0.1127
     17 H          -3.6515  -14.9853   22.1620 H       1  UNL1        0.2103
     18 C          -5.8612  -15.6118   24.6613 C.3     1  UNL1        0.0274
     19 C          -5.5600  -15.5795   26.1303 C.3     1  UNL1        0.0080
     20 C          -6.6708  -15.3856   27.1196 C.3     1  UNL1        0.0666
     21 C          -8.0827  -15.2240   26.6398 C.3     1  UNL1        0.2639
     22 F          -9.5694  -15.0276   26.6743 F       1  UNL1       -0.2043
     23 F          -8.2978  -15.1235   28.1209 F       1  UNL1       -0.2043
     24 C          -8.3840  -15.2564   25.1707 C.3     1  UNL1        0.0666
     25 C          -7.2733  -15.4503   24.1814 C.3     1  UNL1        0.0080
@<TRIPOS>BOND
     1    15    16    1
     2    16    14    1
     3    14     1    1
     4     1     2    1
     5     2     3   ar
     6     3     4    1
     7     3     5   ar
     8     5     6   ar
     9     6     7   ar
    10     7     8   ar
    11     8     9    1
    12     9    10   ar
    13    10    11   ar
    14    11    12   ar
    15    12    13   ar
    16    16    18    1
    17    18    19    1
    18    19    20    1
    19    20    21    1
    20    21    22    1
    21    21    23    1
    22    21    24    1
    23    24    25    1
    24    13     1    1
    25    25    18    1
    26     8     2   ar
    27    13     9   ar
    28    15    17    1
@<TRIPOS>MOLECULE
*****
 25 28 0 0 0
SMALL
GASTEIGER

@<TRIPOS>ATOM
      1 C          -8.0597  -17.9609   22.3300 C.3     1  UNL1        0.1140
      2 C          -7.7041  -17.0338   23.4544 C.ar    1  UNL1        0.0273
      3 C          -6.4263  -16.3345   23.8128 C.ar    1  UNL1        0.1379
      4 F          -5.2056  -16.5200   22.9613 F       1  UNL1       -0.2044
      5 C          -6.3695  -15.4498   25.0228 C.ar    1  UNL1        0.0294
      6 C          -7.5903  -15.2643   25.8742 C.ar    1  UNL1        0.0023
      7 C          -8.8681  -15.9636   25.5159 C.ar    1  UNL1        0.0014
      8 C          -8.9250  -16.8483   24.3059 C.ar    1  UNL1        0.0173
      9 C         -10.0351  -17.6607   23.7079 C.ar    1  UNL1        0.0804
     10 C         -11.4757  -18.0482   23.8646 C.ar    1  UNL1        0.1178
     11 N         -11.8312  -18.9753   22.7403 N.ar    1  UNL1       -0.2223
     12 C         -10.6104  -19.1608   21.8887 C.ar    1  UNL1        0.1788
     13 N          -9.5003  -18.3483   22.4867 N.ar    1  UNL1       -0.3068
     14 C          -7.1367  -18.4199   21.2404 C.3     1  UNL1        0.0565
     15 O          -6.4119  -20.7031   22.2462 O.3     1  UNL1       -0.3844
     16 C          -6.0653  -19.4263   21.5393 C.3     1  UNL1        0.1127
     17 H          -7.3628  -20.7193   22.4370 H       1  UNL1        0.2103
     18 C          -4.6474  -19.1558   21.1314 C.3     1  UNL1        0.0274
     19 C          -4.3142  -18.9199   19.6881 C.3     1  UNL1        0.0080
     20 C          -2.8963  -18.6495   19.2802 C.3     1  UNL1        0.0666
     21 C          -1.8116  -18.6149   20.3156 C.3     1  UNL1        0.2639
     22 F          -0.4466  -18.4825   20.9231 F       1  UNL1       -0.2043
     23 F          -1.0044  -18.3331   19.0832 F       1  UNL1       -0.2043
     24 C          -2.1448  -18.8508   21.7591 C.3     1  UNL1        0.0666
     25 C          -3.5627  -19.1213   22.1670 C.3     1  UNL1        0.0080
@<TRIPOS>BOND
     1    15    16    1
     2    16    14    1
     3    14     1    1
     4     1     2    1
     5     2     3   ar
     6     3     4    1
     7     3     5   ar
     8     5     6   ar
     9     6     7   ar
    10     7     8   ar
    11     8     9    1
    12     9    10   ar
    13    10    11   ar
    14    11    12   ar
    15    12    13   ar
    16    16    18    1
    17    18    19    1
    18    19    20    1
    19    20    21    1
    20    21    22    1
    21    21    23    1
    22    21    24    1
    23    24    25    1
    24    13     1    1
    25    25    18    1
    26     8     2   ar
    27    13     9   ar
    28    15    17    1
@<TRIPOS>MOLECULE
*****
 25 28 0 0 0
SMALL
GASTEIGER

@<TRIPOS>ATOM
      1 C          -7.1551  -18.9713   22.1387 C.3     1  UNL1        0.1140
      2 C          -6.6400  -17.7241   22.7941 C.ar    1  UNL1        0.0273
      3 C          -5.3230  -17.3966   23.4330 C.ar    1  UNL1        0.1379
      4 F          -4.2378  -18.4306   23.4869 F       1  UNL1       -0.2044
      5 C          -5.0913  -16.0348   24.0179 C.ar    1  UNL1        0.0294
      6 C          -6.1766  -15.0009   23.9639 C.ar    1  UNL1        0.0023
      7 C          -7.4936  -15.3284   23.3251 C.ar    1  UNL1        0.0014
      8 C          -7.7254  -16.6901   22.7401 C.ar    1  UNL1        0.0173
      9 C          -8.9112  -17.2981   22.0515 C.ar    1  UNL1        0.0804
     10 C         -10.3147  -17.0347   21.5925 C.ar    1  UNL1        0.1178
     11 N         -10.8297  -18.2818   20.9372 N.ar    1  UNL1       -0.2223
     12 C          -9.7445  -19.3159   20.9911 C.ar    1  UNL1        0.1788
     13 N          -8.5587  -18.7079   21.6798 N.ar    1  UNL1       -0.3068
     14 C          -6.3993  -20.2561   21.9717 C.3     1  UNL1        0.0565
     15 O          -6.1508  -21.5188   19.7147 O.3     1  UNL1       -0.3844
     16 C          -5.6364  -20.5185   20.7072 C.3     1  UNL1        0.1127
     17 H          -6.9798  -21.9018   20.0417 H       1  UNL1        0.2103
     18 C          -4.3591  -19.7806   20.4350 C.3     1  UNL1        0.0274
     19 C          -4.3175  -18.7181   19.3771 C.3     1  UNL1        0.0080
     20 C          -3.0402  -17.9802   19.1050 C.3     1  UNL1        0.0666
     21 C          -1.8045  -18.3049   19.8908 C.3     1  UNL1        0.2639
     22 F          -0.3829  -18.2545   20.3666 F       1  UNL1       -0.2043
     23 F          -1.2693  -17.2248   18.9981 F       1  UNL1       -0.2043
     24 C          -1.8460  -19.3675   20.9487 C.3     1  UNL1        0.0666
     25 C          -3.1233  -20.1053   21.2209 C.3     1  UNL1        0.0080
@<TRIPOS>BOND
     1    15    16    1
     2    16    14    1
     3    14     1    1
     4     1     2    1
     5     2     3   ar
     6     3     4    1
     7     3     5   ar
     8     5     6   ar
     9     6     7   ar
    10     7     8   ar
    11     8     9    1
    12     9    10   ar
    13    10    11   ar
    14    11    12   ar
    15    12    13   ar
    16    16    18    1
    17    18    19    1
    18    19    20    1
    19    20    21    1
    20    21    22    1
    21    21    23    1
    22    21    24    1
    23    24    25    1
    24    13     1    1
    25    25    18    1
    26     8     2   ar
    27    13     9   ar
    28    15    17    1
@<TRIPOS>MOLECULE
*****
 25 28 0 0 0
SMALL
GASTEIGER

@<TRIPOS>ATOM
      1 C          -6.6023  -19.0972   21.9937 C.3     1  UNL1        0.1140
      2 C          -6.2778  -17.8924   22.8263 C.ar    1  UNL1        0.0273
      3 C          -7.1413  -16.9644   23.6282 C.ar    1  UNL1        0.1379
      4 F          -8.6245  -17.1807   23.6842 F       1  UNL1       -0.2044
      5 C          -6.5215  -15.8200   24.3741 C.ar    1  UNL1        0.0294
      6 C          -5.0383  -15.6038   24.3180 C.ar    1  UNL1        0.0023
      7 C          -4.1747  -16.5318   23.5161 C.ar    1  UNL1        0.0014
      8 C          -4.7945  -17.6761   22.7702 C.ar    1  UNL1        0.0173
      9 C          -4.2023  -18.7472   21.9030 C.ar    1  UNL1        0.0804
     10 C          -2.9196  -19.2755   21.3324 C.ar    1  UNL1        0.1178
     11 N          -3.2441  -20.4803   20.4998 N.ar    1  UNL1       -0.2223
     12 C          -4.7274  -20.6966   20.5559 C.ar    1  UNL1        0.1788
     13 N          -5.3196  -19.6255   21.4231 N.ar    1  UNL1       -0.3068
     14 C          -7.9695  -19.6727   21.7708 C.3     1  UNL1        0.0565
     15 O          -8.7351  -18.9183   19.4055 O.3     1  UNL1       -0.3844
     16 C          -8.9499  -18.9571   20.8896 C.3     1  UNL1        0.1127
     17 H          -7.9230  -19.4001   19.1836 H       1  UNL1        0.2103
     18 C         -10.1451  -18.2803   21.4924 C.3     1  UNL1        0.0274
     19 C         -11.0608  -19.0449   22.4017 C.3     1  UNL1        0.0080
     20 C         -12.2560  -18.3680   23.0044 C.3     1  UNL1        0.0666
     21 C         -12.5356  -16.9266   22.6979 C.3     1  UNL1        0.2639
     22 F         -13.2150  -15.5894   22.7084 F       1  UNL1       -0.2043
     23 F         -13.6872  -17.2268   23.6108 F       1  UNL1       -0.2043
     24 C         -11.6199  -16.1619   21.7885 C.3     1  UNL1        0.0666
     25 C         -10.4247  -16.8387   21.1858 C.3     1  UNL1        0.0080
@<TRIPOS>BOND
     1    15    16    1
     2    16    14    1
     3    14     1    1
     4     1     2    1
     5     2     3   ar
     6     3     4    1
     7     3     5   ar
     8     5     6   ar
     9     6     7   ar
    10     7     8   ar
    11     8     9    1
    12     9    10   ar
    13    10    11   ar
    14    11    12   ar
    15    12    13   ar
    16    16    18    1
    17    18    19    1
    18    19    20    1
    19    20    21    1
    20    21    22    1
    21    21    23    1
    22    21    24    1
    23    24    25    1
    24    13     1    1
    25    25    18    1
    26     8     2   ar
    27    13     9   ar
    28    15    17    1
@<TRIPOS>MOLECULE
*****
 25 28 0 0 0
SMALL
GASTEIGER

@<TRIPOS>ATOM
      1 C          -4.3440  -18.1180   22.3043 C.3     1  UNL1        0.1140
      2 C          -3.1861  -17.8660   21.3845 C.ar    1  UNL1        0.0273
      3 C          -2.1061  -16.8251   21.3924 C.ar    1  UNL1        0.1379
      4 F          -2.0732  -15.7867   22.4743 F       1  UNL1       -0.2044
      5 C          -1.0589  -16.8227   20.3184 C.ar    1  UNL1        0.0294
      6 C          -1.0919  -17.8612   19.2366 C.ar    1  UNL1        0.0023
      7 C          -2.1719  -18.9021   19.2286 C.ar    1  UNL1        0.0014
      8 C          -3.2190  -18.9045   20.3026 C.ar    1  UNL1        0.0173
      9 C          -4.3972  -19.7983   20.5537 C.ar    1  UNL1        0.0804
     10 C          -5.1456  -20.9926   20.0402 C.ar    1  UNL1        0.1178
     11 N          -6.3034  -21.2445   20.9600 N.ar    1  UNL1       -0.2223
     12 C          -6.2706  -20.2061   22.0419 C.ar    1  UNL1        0.1788
     13 N          -5.0924  -19.3122   21.7908 N.ar    1  UNL1       -0.3068
     14 C          -4.6922  -17.3165   23.5234 C.3     1  UNL1        0.0565
     15 O          -5.2558  -14.7817   23.4386 O.3     1  UNL1       -0.3844
     16 C          -5.7042  -16.2132   23.4318 C.3     1  UNL1        0.1127
     17 H          -4.2889  -14.7461   23.5070 H       1  UNL1        0.2103
     18 C          -7.1646  -16.5412   23.3333 C.3     1  UNL1        0.0274
     19 C          -8.0505  -16.3872   24.5339 C.3     1  UNL1        0.0080
     20 C          -9.5109  -16.7152   24.4354 C.3     1  UNL1        0.0666
     21 C         -10.0854  -17.1972   23.1364 C.3     1  UNL1        0.2639
     22 F         -11.0884  -17.6845   22.1332 F       1  UNL1       -0.2043
     23 F         -11.3196  -17.2124   23.9886 F       1  UNL1       -0.2043
     24 C          -9.1994  -17.3512   21.9357 C.3     1  UNL1        0.0666
     25 C          -7.7391  -17.0232   22.0342 C.3     1  UNL1        0.0080
@<TRIPOS>BOND
     1    15    16    1
     2    16    14    1
     3    14     1    1
     4     1     2    1
     5     2     3   ar
     6     3     4    1
     7     3     5   ar
     8     5     6   ar
     9     6     7   ar
    10     7     8   ar
    11     8     9    1
    12     9    10   ar
    13    10    11   ar
    14    11    12   ar
    15    12    13   ar
    16    16    18    1
    17    18    19    1
    18    19    20    1
    19    20    21    1
    20    21    22    1
    21    21    23    1
    22    21    24    1
    23    24    25    1
    24    13     1    1
    25    25    18    1
    26     8     2   ar
    27    13     9   ar
    28    15    17    1
@<TRIPOS>MOLECULE
*****
 25 28 0 0 0
SMALL
GASTEIGER

@<TRIPOS>ATOM
      1 C         -10.1121  -19.3711   21.5447 C.3     1  UNL1        0.1140
      2 C         -11.0039  -18.1677   21.4621 C.ar    1  UNL1        0.0273
      3 C         -11.4917  -17.3580   20.2974 C.ar    1  UNL1        0.1379
      4 F         -11.0770  -17.7241   18.9033 F       1  UNL1       -0.2044
      5 C         -12.3944  -16.1822   20.5271 C.ar    1  UNL1        0.0294
      6 C         -12.8091  -15.8162   21.9214 C.ar    1  UNL1        0.0023
      7 C         -12.3212  -16.6259   23.0860 C.ar    1  UNL1        0.0014
      8 C         -11.4186  -17.8016   22.8564 C.ar    1  UNL1        0.0173
      9 C         -10.7832  -18.7787   23.8006 C.ar    1  UNL1        0.0804
     10 C         -10.6469  -19.1563   25.2459 C.ar    1  UNL1        0.1178
     11 N          -9.7552  -20.3597   25.3284 N.ar    1  UNL1       -0.2223
     12 C          -9.3404  -20.7258   23.9342 C.ar    1  UNL1        0.1788
     13 N          -9.9758  -19.7487   22.9899 N.ar    1  UNL1       -0.3068
     14 C          -9.4696  -20.0735   20.3854 C.3     1  UNL1        0.0565
     15 O          -8.2420  -19.0238   18.3505 O.3     1  UNL1       -0.3844
     16 C          -8.2222  -19.5147   19.7678 C.3     1  UNL1        0.1127
     17 H          -9.1315  -19.1386   17.9809 H       1  UNL1        0.2103
     18 C          -6.9548  -19.4467   20.5673 C.3     1  UNL1        0.0274
     19 C          -6.8577  -18.5185   21.7415 C.3     1  UNL1        0.0080
     20 C          -5.5904  -18.4505   22.5411 C.3     1  UNL1        0.0666
     21 C          -4.4202  -19.3108   22.1664 C.3     1  UNL1        0.2639
     22 F          -3.0512  -19.9225   22.2040 F       1  UNL1       -0.2043
     23 F          -3.8477  -18.5950   23.3537 F       1  UNL1       -0.2043
     24 C          -4.5173  -20.2391   20.9921 C.3     1  UNL1        0.0666
     25 C          -5.7846  -20.3071   20.1925 C.3     1  UNL1        0.0080
@<TRIPOS>BOND
     1    15    16    1
     2    16    14    1
     3    14     1    1
     4     1     2    1
     5     2     3   ar
     6     3     4    1
     7     3     5   ar
     8     5     6   ar
     9     6     7   ar
    10     7     8   ar
    11     8     9    1
    12     9    10   ar
    13    10    11   ar
    14    11    12   ar
    15    12    13   ar
    16    16    18    1
    17    18    19    1
    18    19    20    1
    19    20    21    1
    20    21    22    1
    21    21    23    1
    22    21    24    1
    23    24    25    1
    24    13     1    1
    25    25    18    1
    26     8     2   ar
    27    13     9   ar
    28    15    17    1
