@<TRIPOS>MOLECULE
*****
 26 29 0 0 0
SMALL
GASTEIGER

@<TRIPOS>ATOM
      1 C          -6.6425  -20.3613   20.9974 C.ar    1  UNL1        0.1380
      2 C          -7.2100  -19.6289   19.8178 C.ar    1  UNL1        0.0366
      3 C          -8.5733  -19.0092   19.9047 C.ar    1  UNL1       -0.0014
      4 C          -9.3691  -19.1220   21.1712 C.ar    1  UNL1       -0.0245
      5 C          -8.8016  -19.8544   22.3507 C.ar    1  UNL1       -0.0217
      6 C          -7.4384  -20.4741   22.2639 C.ar    1  UNL1        0.0324
      7 C          -9.4223  -20.0823   23.6972 C.3     1  UNL1        0.0434
      8 C         -10.7640  -19.6340   24.1965 C.3     1  UNL1        0.0768
      9 N         -11.8160  -18.8472   23.4727 N.3     1  UNL1       -0.2734
     10 C         -11.7865  -18.3142   22.0709 C.3     1  UNL1        0.0768
     11 C         -10.6975  -18.4365   21.0466 C.3     1  UNL1        0.0433
     12 C         -13.0625  -18.5545   24.2540 C.3     1  UNL1        0.0575
     13 C         -13.4529  -18.6406   25.6998 C.3     1  UNL1        0.0160
     14 C         -14.8254  -18.1406   25.3591 C.3     1  UNL1        0.0028
     15 C         -14.4351  -18.0546   23.9133 C.3     1  UNL1        0.0160
     16 O          -5.2793  -20.9810   20.9105 O.3     1  UNL1       -0.4791
     17 N          -1.6515  -18.3715   20.3812 N.3     1  UNL1       -0.1591
     18 C          -2.4591  -18.7845   19.1865 C.3     1  UNL1        0.0991
     19 C          -3.6683  -19.6543   19.3629 C.3     1  UNL1        0.0627
     20 C          -4.0700  -20.1111   20.7341 C.3     1  UNL1        0.1688
     21 C          -3.2624  -19.6982   21.9288 C.3     1  UNL1        0.0627
     22 C          -2.0531  -18.8283   21.7523 C.3     1  UNL1        0.0991
     23 C           0.7671  -16.6320   20.0283 C.3     1  UNL1        0.1960
     24 S          -0.4422  -17.5017   20.2047 S.O2    1  UNL1        0.0457
     25 O           0.3014  -18.6575   19.6038 O.2     1  UNL1       -0.1572
     26 O          -1.1859  -16.3460   20.8056 O.2     1  UNL1       -0.1572
@<TRIPOS>BOND
     1    23    24    1
     2    24    25    2
     3    24    26    2
     4    24    17    1
     5    17    18    1
     6    18    19    1
     7    19    20    1
     8    20    16    1
     9    16     1    1
    10     1     2   ar
    11     2     3   ar
    12     3     4   ar
    13     4     5   ar
    14     5     6   ar
    15     5     7    1
    16     7     8    1
    17     8     9    1
    18     9    12    1
    19    12    13    1
    20    13    14    1
    21    14    15    1
    22     9    10    1
    23    10    11    1
    24    20    21    1
    25    21    22    1
    26    22    17    1
    27     6     1   ar
    28    15    12    1
    29    11     4    1
@<TRIPOS>MOLECULE
*****
 26 29 0 0 0
SMALL
GASTEIGER

@<TRIPOS>ATOM
      1 C          -6.7133  -19.6175   20.4315 C.ar    1  UNL1        0.1380
      2 C          -6.2876  -20.4144   21.6289 C.ar    1  UNL1        0.0366
      3 C          -7.2123  -20.5586   22.8012 C.ar    1  UNL1       -0.0014
      4 C          -8.5627  -19.9059   22.7760 C.ar    1  UNL1       -0.0245
      5 C          -8.9883  -19.1091   21.5786 C.ar    1  UNL1       -0.0217
      6 C          -8.0636  -18.9648   20.4064 C.ar    1  UNL1        0.0324
      7 C         -10.2806  -18.3826   21.3498 C.3     1  UNL1        0.0434
      8 C         -11.4665  -18.2738   22.2619 C.3     1  UNL1        0.0768
      9 N         -11.6528  -18.8644   23.6280 N.3     1  UNL1       -0.2734
     10 C         -10.6995  -19.7098   24.4195 C.3     1  UNL1        0.0768
     11 C          -9.3242  -20.1733   24.0403 C.3     1  UNL1        0.0433
     12 C         -12.9663  -18.5708   24.2903 C.3     1  UNL1        0.0575
     13 C         -14.2942  -18.0485   23.8277 C.3     1  UNL1        0.0160
     14 C         -14.8239  -18.1557   25.2269 C.3     1  UNL1        0.0028
     15 C         -13.4960  -18.6780   25.6895 C.3     1  UNL1        0.0160
     16 O          -5.7886  -19.4733   19.2593 O.3     1  UNL1       -0.4791
     17 N          -1.5369  -18.1442   19.8978 N.3     1  UNL1       -0.1591
     18 C          -2.4375  -17.3647   18.9860 C.3     1  UNL1        0.0991
     19 C          -3.8546  -17.8077   18.7732 C.3     1  UNL1        0.0627
     20 C          -4.3714  -19.0302   19.4721 C.3     1  UNL1        0.1688
     21 C          -3.4708  -19.8098   20.3840 C.3     1  UNL1        0.0627
     22 C          -2.0536  -19.3668   20.5968 C.3     1  UNL1        0.0991
     23 C           1.2974  -17.2581   20.3236 C.3     1  UNL1        0.1960
     24 S          -0.1197  -17.7012   20.1107 S.O2    1  UNL1        0.0457
     25 O          -0.6061  -16.3438   20.5241 O.2     1  UNL1       -0.1572
     26 O           0.3666  -19.0585   19.6974 O.2     1  UNL1       -0.1572
@<TRIPOS>BOND
     1    23    24    1
     2    24    25    2
     3    24    26    2
     4    24    17    1
     5    17    18    1
     6    18    19    1
     7    19    20    1
     8    20    16    1
     9    16     1    1
    10     1     2   ar
    11     2     3   ar
    12     3     4   ar
    13     4     5   ar
    14     5     6   ar
    15     5     7    1
    16     7     8    1
    17     8     9    1
    18     9    12    1
    19    12    13    1
    20    13    14    1
    21    14    15    1
    22     9    10    1
    23    10    11    1
    24    20    21    1
    25    21    22    1
    26    22    17    1
    27     6     1   ar
    28    15    12    1
    29    11     4    1
@<TRIPOS>MOLECULE
*****
 26 29 0 0 0
SMALL
GASTEIGER

@<TRIPOS>ATOM
      1 C           7.7375   -5.0164   23.4037 C.ar    1  UNL1        0.1380
      2 C           8.4708   -5.0565   22.0957 C.ar    1  UNL1        0.0366
      3 C           7.9168   -4.3352   20.9028 C.ar    1  UNL1       -0.0014
      4 C           6.6295   -3.5737   21.0180 C.ar    1  UNL1       -0.0245
      5 C           5.8963   -3.5336   22.3259 C.ar    1  UNL1       -0.0217
      6 C           6.4502   -4.2549   23.5187 C.ar    1  UNL1        0.0324
      7 C           4.6080   -2.8393   22.6550 C.3     1  UNL1        0.0434
      8 C           3.7348   -2.0136   21.7573 C.3     1  UNL1        0.0768
      9 N           3.9342   -1.6784   20.3090 N.3     1  UNL1       -0.2734
     10 C           5.0561   -2.0859   19.4005 C.3     1  UNL1        0.0768
     11 C           6.2556   -2.9295   19.7160 C.3     1  UNL1        0.0433
     12 C           2.8712   -0.8223   19.6867 C.3     1  UNL1        0.0575
     13 C           1.4140   -0.5820   19.9496 C.3     1  UNL1        0.0160
     14 C           1.3678    0.3884   18.8068 C.3     1  UNL1        0.0028
     15 C           2.8249    0.1481   18.5439 C.3     1  UNL1        0.0160
     16 O           8.2915   -5.7377   24.5964 O.3     1  UNL1       -0.4791
     17 N           7.1822   -4.4027   28.7482 N.3     1  UNL1       -0.1591
     18 C           8.2826   -3.7049   28.0050 C.3     1  UNL1        0.0991
     19 C           8.6523   -4.1499   26.6211 C.3     1  UNL1        0.0627
     20 C           7.9218   -5.2927   25.9804 C.3     1  UNL1        0.1688
     21 C           6.8214   -5.9904   26.7236 C.3     1  UNL1        0.0627
     22 C           6.4516   -5.5454   28.1076 C.3     1  UNL1        0.0991
     23 C           6.4427   -3.5128   31.5161 C.3     1  UNL1        0.1960
     24 S           6.8125   -3.9577   30.1322 S.O2    1  UNL1        0.0457
     25 O           6.7491   -5.3893   30.5756 O.2     1  UNL1       -0.1572
     26 O           6.8758   -2.5262   29.6888 O.2     1  UNL1       -0.1572
@<TRIPOS>BOND
     1    23    24    1
     2    24    25    2
     3    24    26    2
     4    24    17    1
     5    17    18    1
     6    18    19    1
     7    19    20    1
     8    20    16    1
     9    16     1    1
    10     1     2   ar
    11     2     3   ar
    12     3     4   ar
    13     4     5   ar
    14     5     6   ar
    15     5     7    1
    16     7     8    1
    17     8     9    1
    18     9    12    1
    19    12    13    1
    20    13    14    1
    21    14    15    1
    22     9    10    1
    23    10    11    1
    24    20    21    1
    25    21    22    1
    26    22    17    1
    27     6     1   ar
    28    15    12    1
    29    11     4    1
@<TRIPOS>MOLECULE
*****
 26 29 0 0 0
SMALL
GASTEIGER

@<TRIPOS>ATOM
      1 C           8.9412   -5.3165   22.6881 C.ar    1  UNL1        0.1380
      2 C           8.7674   -6.7870   22.9282 C.ar    1  UNL1        0.0366
      3 C           8.3811   -7.2842   24.2897 C.ar    1  UNL1       -0.0014
      4 C           8.1685   -6.3108   25.4111 C.ar    1  UNL1       -0.0245
      5 C           8.3423   -4.8405   25.1710 C.ar    1  UNL1       -0.0217
      6 C           8.7286   -4.3433   23.8096 C.ar    1  UNL1        0.0324
      7 C           8.1803   -3.7087   26.1420 C.3     1  UNL1        0.0434
      8 C           7.8045   -3.7679   27.5931 C.3     1  UNL1        0.0768
      9 N           7.4980   -4.9734   28.4312 N.3     1  UNL1       -0.2734
     10 C           7.4915   -6.4176   28.0256 C.3     1  UNL1        0.0768
     11 C           7.7899   -7.0128   26.6815 C.3     1  UNL1        0.0433
     12 C           7.1522   -4.6986   29.8647 C.3     1  UNL1        0.0575
     13 C           6.6374   -3.5109   30.6228 C.3     1  UNL1        0.0160
     14 C           6.6632   -4.3098   31.8921 C.3     1  UNL1        0.0028
     15 C           7.1780   -5.4974   31.1340 C.3     1  UNL1        0.0160
     16 O           9.3275   -4.8194   21.3266 O.3     1  UNL1       -0.4791
     17 N           6.4951   -2.2123   18.9962 N.3     1  UNL1       -0.1591
     18 C           7.9714   -1.9520   18.9414 C.3     1  UNL1        0.0991
     19 C           8.9154   -2.8210   19.7182 C.3     1  UNL1        0.0627
     20 C           8.3833   -3.9504   20.5498 C.3     1  UNL1        0.1688
     21 C           6.9071   -4.2107   20.6046 C.3     1  UNL1        0.0627
     22 C           5.9629   -3.3417   19.8278 C.3     1  UNL1        0.0991
     23 C           4.6068   -0.4743   17.4426 C.3     1  UNL1        0.1960
     24 S           5.5510   -1.3433   18.2194 S.O2    1  UNL1        0.0457
     25 O           4.5144   -1.5121   19.2904 O.2     1  UNL1       -0.1572
     26 O           6.5875   -1.1745   17.1484 O.2     1  UNL1       -0.1572
@<TRIPOS>BOND
     1    23    24    1
     2    24    25    2
     3    24    26    2
     4    24    17    1
     5    17    18    1
     6    18    19    1
     7    19    20    1
     8    20    16    1
     9    16     1    1
    10     1     2   ar
    11     2     3   ar
    12     3     4   ar
    13     4     5   ar
    14     5     6   ar
    15     5     7    1
    16     7     8    1
    17     8     9    1
    18     9    12    1
    19    12    13    1
    20    13    14    1
    21    14    15    1
    22     9    10    1
    23    10    11    1
    24    20    21    1
    25    21    22    1
    26    22    17    1
    27     6     1   ar
    28    15    12    1
    29    11     4    1
@<TRIPOS>MOLECULE
*****
 26 29 0 0 0
SMALL
GASTEIGER

@<TRIPOS>ATOM
      1 C           0.5880    2.7015   22.1856 C.ar    1  UNL1        0.1380
      2 C           1.3000    2.3690   23.4633 C.ar    1  UNL1        0.0366
      3 C           2.1714    1.1505   23.5412 C.ar    1  UNL1       -0.0014
      4 C           2.3307    0.2645   22.3414 C.ar    1  UNL1       -0.0245
      5 C           1.6188    0.5970   21.0637 C.ar    1  UNL1       -0.0217
      6 C           0.7474    1.8154   20.9857 C.ar    1  UNL1        0.0324
      7 C           1.6402   -0.1457   19.7606 C.3     1  UNL1        0.0434
      8 C           2.3789   -1.4043   19.4134 C.3     1  UNL1        0.0768
      9 N           3.2785   -2.2309   20.2836 N.3     1  UNL1       -0.2734
     10 C           3.6617   -2.0033   21.7158 C.3     1  UNL1        0.0768
     11 C           3.2400   -0.8927   22.6317 C.3     1  UNL1        0.0433
     12 C           3.8736   -3.4459   19.6359 C.3     1  UNL1        0.0575
     13 C           3.5760   -4.9159   19.6634 C.3     1  UNL1        0.0160
     14 C           4.7152   -5.1643   18.7198 C.3     1  UNL1        0.0028
     15 C           5.0129   -3.6943   18.6923 C.3     1  UNL1        0.0160
     16 O          -0.2833    3.9199   22.1077 O.3     1  UNL1       -0.4791
     17 N          -4.2856    3.6968   20.0626 N.3     1  UNL1       -0.1591
     18 C          -4.1886    3.4924   21.5455 C.3     1  UNL1        0.0991
     19 C          -2.8546    3.5668   22.2271 C.3     1  UNL1        0.0627
     20 C          -1.6174    3.8455   21.4260 C.3     1  UNL1        0.1688
     21 C          -1.7144    4.0499   19.9431 C.3     1  UNL1        0.0627
     22 C          -3.0485    3.9755   19.2614 C.3     1  UNL1        0.0991
     23 C          -6.9538    3.5480   18.6992 C.3     1  UNL1        0.1960
     24 S          -5.6197    3.6224   19.3809 S.O2    1  UNL1        0.0457
     25 O          -6.2986    3.9751   20.6711 O.2     1  UNL1       -0.1572
     26 O          -4.9407    3.2697   18.0908 O.2     1  UNL1       -0.1572
@<TRIPOS>BOND
     1    23    24    1
     2    24    25    2
     3    24    26    2
     4    24    17    1
     5    17    18    1
     6    18    19    1
     7    19    20    1
     8    20    16    1
     9    16     1    1
    10     1     2   ar
    11     2     3   ar
    12     3     4   ar
    13     4     5   ar
    14     5     6   ar
    15     5     7    1
    16     7     8    1
    17     8     9    1
    18     9    12    1
    19    12    13    1
    20    13    14    1
    21    14    15    1
    22     9    10    1
    23    10    11    1
    24    20    21    1
    25    21    22    1
    26    22    17    1
    27     6     1   ar
    28    15    12    1
    29    11     4    1
@<TRIPOS>MOLECULE
*****
 26 29 0 0 0
SMALL
GASTEIGER

@<TRIPOS>ATOM
      1 C           0.8917    2.1676   23.9415 C.ar    1  UNL1        0.1380
      2 C           0.0454    2.4531   22.7364 C.ar    1  UNL1        0.0366
      3 C           0.2096    1.6306   21.4927 C.ar    1  UNL1       -0.0014
      4 C           1.2201    0.5227   21.4543 C.ar    1  UNL1       -0.0245
      5 C           2.0663    0.2373   22.6593 C.ar    1  UNL1       -0.0217
      6 C           1.9022    1.0597   23.9030 C.ar    1  UNL1        0.0324
      7 C           3.1243   -0.8120   22.8320 C.3     1  UNL1        0.0434
      8 C           3.5971   -1.8351   21.8421 C.3     1  UNL1        0.0768
      9 N           3.1289   -2.0614   20.4352 N.3     1  UNL1       -0.2734
     10 C           2.0721   -1.3207   19.6706 C.3     1  UNL1        0.0768
     11 C           1.2226   -0.1706   20.1241 C.3     1  UNL1        0.0433
     12 C           3.8071   -3.1759   19.6950 C.3     1  UNL1        0.0575
     13 C           5.0275   -3.2862   18.8298 C.3     1  UNL1        0.0160
     14 C           4.7663   -4.7521   18.6481 C.3     1  UNL1        0.0028
     15 C           3.5458   -4.6417   19.5132 C.3     1  UNL1        0.0160
     16 O           0.7274    2.9901   25.1851 O.3     1  UNL1       -0.4791
     17 N           2.0417    1.3434   29.1615 N.3     1  UNL1       -0.1591
     18 C           2.9141    2.3189   28.4283 C.3     1  UNL1        0.0991
     19 C           2.4760    2.8678   27.1030 C.3     1  UNL1        0.0627
     20 C           1.1655    2.4412   26.5106 C.3     1  UNL1        0.1688
     21 C           0.2932    1.4657   27.2437 C.3     1  UNL1        0.0627
     22 C           0.7313    0.9168   28.5691 C.3     1  UNL1        0.0991
     23 C           2.9179    0.2455   31.8123 C.3     1  UNL1        0.1960
     24 S           2.4798    0.7945   30.4869 S.O2    1  UNL1        0.0457
     25 O           1.6237   -0.4176   30.2679 O.2     1  UNL1       -0.1572
     26 O           3.3359    2.0065   30.7058 O.2     1  UNL1       -0.1572
@<TRIPOS>BOND
     1    23    24    1
     2    24    25    2
     3    24    26    2
     4    24    17    1
     5    17    18    1
     6    18    19    1
     7    19    20    1
     8    20    16    1
     9    16     1    1
    10     1     2   ar
    11     2     3   ar
    12     3     4   ar
    13     4     5   ar
    14     5     6   ar
    15     5     7    1
    16     7     8    1
    17     8     9    1
    18     9    12    1
    19    12    13    1
    20    13    14    1
    21    14    15    1
    22     9    10    1
    23    10    11    1
    24    20    21    1
    25    21    22    1
    26    22    17    1
    27     6     1   ar
    28    15    12    1
    29    11     4    1
@<TRIPOS>MOLECULE
*****
 26 29 0 0 0
SMALL
GASTEIGER

@<TRIPOS>ATOM
      1 C           0.7215    3.4344   21.1859 C.ar    1  UNL1        0.1380
      2 C           1.0076    3.8637   19.7774 C.ar    1  UNL1        0.0366
      3 C           1.6709    2.9144   18.8240 C.ar    1  UNL1       -0.0014
      4 C           2.0480    1.5358   19.2791 C.ar    1  UNL1       -0.0245
      5 C           1.7620    1.1065   20.6875 C.ar    1  UNL1       -0.0217
      6 C           1.0987    2.0557   21.6409 C.ar    1  UNL1        0.0324
      7 C           2.0533   -0.2121   21.3408 C.3     1  UNL1        0.0434
      8 C           2.7026   -1.4269   20.7468 C.3     1  UNL1        0.0768
      9 N           3.2209   -1.6231   19.3531 N.3     1  UNL1       -0.2734
     10 C           3.2180   -0.6532   18.2089 C.3     1  UNL1        0.0768
     11 C           2.6961    0.7527   18.1759 C.3     1  UNL1        0.0433
     12 C           3.8216   -2.9672   19.0654 C.3     1  UNL1        0.0575
     13 C           3.3487   -4.3863   19.1773 C.3     1  UNL1        0.0160
     14 C           4.6711   -4.8680   18.6585 C.3     1  UNL1        0.0028
     15 C           5.1440   -3.4488   18.5465 C.3     1  UNL1        0.0160
     16 O           0.0583    4.3837   22.1392 O.3     1  UNL1       -0.4791
     17 N          -4.4143    4.3196   22.6312 N.3     1  UNL1       -0.1591
     18 C          -3.5688    5.1355   23.5637 C.3     1  UNL1        0.0991
     19 C          -2.0780    5.1568   23.3997 C.3     1  UNL1        0.0627
     20 C          -1.4326    4.3623   22.3032 C.3     1  UNL1        0.1688
     21 C          -2.2781    3.5465   21.3707 C.3     1  UNL1        0.0627
     22 C          -3.7690    3.5251   21.5347 C.3     1  UNL1        0.0991
     23 C          -7.3960    4.2770   22.9593 C.3     1  UNL1        0.1960
     24 S          -5.9052    4.2983   22.7952 S.O2    1  UNL1        0.0457
     25 O          -5.7470    4.5479   24.2658 O.2     1  UNL1       -0.1572
     26 O          -6.0633    4.0487   21.3247 O.2     1  UNL1       -0.1572
@<TRIPOS>BOND
     1    23    24    1
     2    24    25    2
     3    24    26    2
     4    24    17    1
     5    17    18    1
     6    18    19    1
     7    19    20    1
     8    20    16    1
     9    16     1    1
    10     1     2   ar
    11     2     3   ar
    12     3     4   ar
    13     4     5   ar
    14     5     6   ar
    15     5     7    1
    16     7     8    1
    17     8     9    1
    18     9    12    1
    19    12    13    1
    20    13    14    1
    21    14    15    1
    22     9    10    1
    23    10    11    1
    24    20    21    1
    25    21    22    1
    26    22    17    1
    27     6     1   ar
    28    15    12    1
    29    11     4    1
@<TRIPOS>MOLECULE
*****
 26 29 0 0 0
SMALL
GASTEIGER

@<TRIPOS>ATOM
      1 C           4.0055   -1.2641   18.5981 C.ar    1  UNL1        0.1380
      2 C           5.3005   -1.4707   17.8700 C.ar    1  UNL1        0.0366
      3 C           6.4103   -2.2443   18.5182 C.ar    1  UNL1       -0.0014
      4 C           6.2249   -2.8112   19.8946 C.ar    1  UNL1       -0.0245
      5 C           4.9299   -2.6045   20.6226 C.ar    1  UNL1       -0.0217
      6 C           3.8202   -1.8311   19.9744 C.ar    1  UNL1        0.0324
      7 C           4.5396   -3.0808   21.9905 C.3     1  UNL1        0.0434
      8 C           5.3482   -3.8813   22.9680 C.3     1  UNL1        0.0768
      9 N           6.7464   -4.4032   22.8192 N.3     1  UNL1       -0.2734
     10 C           7.6818   -4.2536   21.6560 C.3     1  UNL1        0.0768
     11 C           7.4496   -3.5451   20.3544 C.3     1  UNL1        0.0433
     12 C           7.2801   -5.1771   23.9880 C.3     1  UNL1        0.0575
     13 C           8.0950   -6.4260   24.1503 C.3     1  UNL1        0.0160
     14 C           8.0349   -6.2716   25.6411 C.3     1  UNL1        0.0028
     15 C           7.2201   -5.0227   25.4788 C.3     1  UNL1        0.0160
     16 O           2.8958   -0.4906   17.9498 O.3     1  UNL1       -0.4791
     17 N           0.3077    2.2340   20.4254 N.3     1  UNL1       -0.1591
     18 C           0.1399    0.7466   20.5237 C.3     1  UNL1        0.0991
     19 C           1.0026   -0.1615   19.6985 C.3     1  UNL1        0.0627
     20 C           2.0331    0.4176   18.7750 C.3     1  UNL1        0.1688
     21 C           2.2009    1.9050   18.6767 C.3     1  UNL1        0.0627
     22 C           1.3381    2.8132   19.5019 C.3     1  UNL1        0.0991
     23 C          -1.4178    4.0504   22.0757 C.3     1  UNL1        0.1960
     24 S          -0.5550    3.1422   21.2506 S.O2    1  UNL1        0.0457
     25 O          -1.7807    2.4567   20.7236 O.2     1  UNL1       -0.1572
     26 O           0.6706    3.8277   21.7775 O.2     1  UNL1       -0.1572
@<TRIPOS>BOND
     1    23    24    1
     2    24    25    2
     3    24    26    2
     4    24    17    1
     5    17    18    1
     6    18    19    1
     7    19    20    1
     8    20    16    1
     9    16     1    1
    10     1     2   ar
    11     2     3   ar
    12     3     4   ar
    13     4     5   ar
    14     5     6   ar
    15     5     7    1
    16     7     8    1
    17     8     9    1
    18     9    12    1
    19    12    13    1
    20    13    14    1
    21    14    15    1
    22     9    10    1
    23    10    11    1
    24    20    21    1
    25    21    22    1
    26    22    17    1
    27     6     1   ar
    28    15    12    1
    29    11     4    1
@<TRIPOS>MOLECULE
*****
 26 29 0 0 0
SMALL
GASTEIGER

@<TRIPOS>ATOM
      1 C           0.1694    2.9566   18.8486 C.ar    1  UNL1        0.1380
      2 C           1.3448    3.7531   18.3649 C.ar    1  UNL1        0.0366
      3 C           2.7143    3.1411   18.3591 C.ar    1  UNL1       -0.0014
      4 C           2.9083    1.7326   18.8371 C.ar    1  UNL1       -0.0245
      5 C           1.7329    0.9361   19.3207 C.ar    1  UNL1       -0.0217
      6 C           0.3635    1.5480   19.3265 C.ar    1  UNL1        0.0324
      7 C           1.7058   -0.4726   19.8354 C.3     1  UNL1        0.0434
      8 C           2.8475   -1.4327   19.9935 C.3     1  UNL1        0.0768
      9 N           4.2981   -1.2211   19.6761 N.3     1  UNL1       -0.2734
     10 C           4.9655    0.0027   19.1220 C.3     1  UNL1        0.0768
     11 C           4.3469    1.3172   18.7486 C.3     1  UNL1        0.0433
     12 C           5.2008   -2.3877   19.9486 C.3     1  UNL1        0.0575
     13 C           6.6741   -2.5592   20.1727 C.3     1  UNL1        0.0160
     14 C           6.4775   -4.0374   20.3342 C.3     1  UNL1        0.0028
     15 C           5.0042   -3.8659   20.1101 C.3     1  UNL1        0.0160
     16 O          -1.2001    3.5686   18.8543 O.3     1  UNL1       -0.4791
     17 N          -3.6211    3.6299   22.6471 N.3     1  UNL1       -0.1591
     18 C          -4.2887    3.3385   21.3358 C.3     1  UNL1        0.0991
     19 C          -3.4817    3.3181   20.0716 C.3     1  UNL1        0.0627
     20 C          -2.0071    3.5890   20.1186 C.3     1  UNL1        0.1688
     21 C          -1.3395    3.8804   21.4299 C.3     1  UNL1        0.0627
     22 C          -2.1465    3.9009   22.6941 C.3     1  UNL1        0.0991
     23 C          -5.2352    3.6708   25.1756 C.3     1  UNL1        0.1960
     24 S          -4.4281    3.6503   23.9114 S.O2    1  UNL1        0.0457
     25 O          -5.6924    3.6198   23.1048 O.2     1  UNL1       -0.1572
     26 O          -3.1638    3.6809   24.7179 O.2     1  UNL1       -0.1572
@<TRIPOS>BOND
     1    23    24    1
     2    24    25    2
     3    24    26    2
     4    24    17    1
     5    17    18    1
     6    18    19    1
     7    19    20    1
     8    20    16    1
     9    16     1    1
    10     1     2   ar
    11     2     3   ar
    12     3     4   ar
    13     4     5   ar
    14     5     6   ar
    15     5     7    1
    16     7     8    1
    17     8     9    1
    18     9    12    1
    19    12    13    1
    20    13    14    1
    21    14    15    1
    22     9    10    1
    23    10    11    1
    24    20    21    1
    25    21    22    1
    26    22    17    1
    27     6     1   ar
    28    15    12    1
    29    11     4    1
