@<TRIPOS>MOLECULE
*****
 22 25 0 0 0
SMALL
GASTEIGER

@<TRIPOS>ATOM
      1 O          -7.0142  -19.9834   22.3357 O.2     1  UNL1       -0.2448
      2 C          -7.7346  -18.6935   22.5944 C.2     1  UNL1        0.3428
      3 C          -9.1566  -18.7111   23.0715 C.2     1  UNL1        0.0958
      4 C          -9.6632  -19.3917   24.3085 C.2     1  UNL1        0.1049
      5 N         -11.1413  -19.1524   24.3967 N.2     1  UNL1       -0.2476
      6 C         -11.5483  -18.3240   23.2143 C.2     1  UNL1        0.0636
      7 C         -12.8773  -17.7828   22.7776 C.3     1  UNL1        0.0722
      8 C         -12.9797  -16.9689   21.5219 C.2     1  UNL1       -0.0131
      9 C         -11.7530  -16.6961   20.7028 C.2     1  UNL1        0.0307
     10 BR        -11.8554  -15.8821   19.4470 Br      1  UNL1       -0.0493
     11 C         -10.4240  -17.2373   21.1395 C.2     1  UNL1        0.0078
     12 C         -10.3216  -18.0513   22.3952 C.2     1  UNL1        0.0221
     13 O          -7.0329  -17.3857   22.3760 O.3     1  UNL1       -0.4454
     14 C          -7.5616  -16.1352   23.0138 C.3     1  UNL1        0.2087
     15 C          -7.2856  -15.8574   24.4617 C.3     1  UNL1        0.0445
     16 C          -5.9117  -15.4414   24.8969 C.3     1  UNL1        0.0210
     17 C          -5.6357  -15.1635   26.3449 C.3     1  UNL1        0.0722
     18 N          -6.7335  -15.3017   27.3577 N.3     1  UNL1       -0.2727
     19 C          -8.1074  -15.7177   26.9225 C.3     1  UNL1        0.0722
     20 C          -8.3834  -15.9955   25.4744 C.3     1  UNL1        0.0210
     21 C          -6.9327  -15.4647   26.5755 C.3     1  UNL1        0.0722
     22 C          -7.1824  -15.7159   25.2663 C.3     1  UNL1        0.0210
@<TRIPOS>BOND
     1     1     2    2
     2     2    13    1
     3    13    14    1
     4    14    15    1
     5    15    16    1
     6    16    17    1
     7    17    18    1
     8    18    19    1
     9    19    20    1
    10    18    21    1
    11    21    22    1
    12     2     3    1
    13     3     4    2
    14     4     5    1
    15     5     6    2
    16     6     7    1
    17     7     8    1
    18     8     9    2
    19     9    10    1
    20     9    11    1
    21    11    12    2
    22    20    15    1
    23    12     3    1
    24    22    15    1
    25    12     6    1
@<TRIPOS>MOLECULE
*****
 22 25 0 0 0
SMALL
GASTEIGER

@<TRIPOS>ATOM
      1 O          -7.3908  -14.9244   24.2401 O.2     1  UNL1       -0.2448
      2 C          -7.6421  -16.2352   23.5558 C.2     1  UNL1        0.3428
      3 C          -8.9520  -16.9412   23.7450 C.2     1  UNL1        0.0958
      4 C          -9.3412  -17.7748   24.9298 C.2     1  UNL1        0.1049
      5 N         -10.7324  -18.2862   24.6997 N.2     1  UNL1       -0.2476
      6 C         -11.2030  -17.7688   23.3727 C.2     1  UNL1        0.0636
      7 C         -12.4913  -17.9471   22.6254 C.3     1  UNL1        0.0722
      8 C         -12.6792  -17.2942   21.2882 C.2     1  UNL1       -0.0131
      9 C         -11.5788  -16.4629   20.6982 C.2     1  UNL1        0.0307
     10 BR        -11.7668  -15.8100   19.3608 Br      1  UNL1       -0.0493
     11 C         -10.2905  -16.2845   21.4454 C.2     1  UNL1        0.0078
     12 C         -10.1026  -16.9375   22.7827 C.2     1  UNL1        0.0221
     13 O          -6.5834  -16.8403   22.6822 O.3     1  UNL1       -0.4454
     14 C          -6.5604  -18.3218   22.4482 C.3     1  UNL1        0.2087
     15 C          -5.3352  -18.9719   21.8770 C.3     1  UNL1        0.0445
     16 C          -4.0323  -18.8966   22.6163 C.3     1  UNL1        0.0210
     17 C          -2.8072  -19.5467   22.0450 C.3     1  UNL1        0.0722
     18 N          -2.8849  -20.2722   20.7344 N.3     1  UNL1       -0.2727
     19 C          -4.1879  -20.3474   19.9951 C.3     1  UNL1        0.0722
     20 C          -5.4131  -19.6973   20.5664 C.3     1  UNL1        0.0210
     21 C          -3.5830  -19.9315   21.0076 C.3     1  UNL1        0.0722
     22 C          -4.6908  -19.3436   21.5241 C.3     1  UNL1        0.0210
@<TRIPOS>BOND
     1     1     2    2
     2     2    13    1
     3    13    14    1
     4    14    15    1
     5    15    16    1
     6    16    17    1
     7    17    18    1
     8    18    19    1
     9    19    20    1
    10    18    21    1
    11    21    22    1
    12     2     3    1
    13     3     4    2
    14     4     5    1
    15     5     6    2
    16     6     7    1
    17     7     8    1
    18     8     9    2
    19     9    10    1
    20     9    11    1
    21    11    12    2
    22    20    15    1
    23    12     3    1
    24    22    15    1
    25    12     6    1
@<TRIPOS>MOLECULE
*****
 22 25 0 0 0
SMALL
GASTEIGER

@<TRIPOS>ATOM
      1 O          -6.9376  -17.8934   21.2323 O.2     1  UNL1       -0.2448
      2 C          -7.3796  -19.1967   21.8288 C.2     1  UNL1        0.3428
      3 C          -8.7359  -19.3115   22.4591 C.2     1  UNL1        0.0958
      4 C          -9.0975  -20.1911   23.6190 C.2     1  UNL1        0.1049
      5 N         -10.5538  -19.9901   23.9168 N.2     1  UNL1       -0.2476
      6 C         -11.0923  -18.9862   22.9409 C.2     1  UNL1        0.0636
      7 C         -12.4605  -18.3998   22.7563 C.3     1  UNL1        0.0722
      8 C         -12.7051  -17.3941   21.6707 C.2     1  UNL1       -0.0131
      9 C         -11.5816  -16.9747   20.7697 C.2     1  UNL1        0.0307
     10 BR        -11.8263  -15.9689   19.6841 Br      1  UNL1       -0.0493
     11 C         -10.2134  -17.5611   20.9544 C.2     1  UNL1        0.0078
     12 C          -9.9687  -18.5668   22.0400 C.2     1  UNL1        0.0221
     13 O          -6.4652  -20.3854   21.7950 O.3     1  UNL1       -0.4454
     14 C          -5.4928  -20.5517   20.6650 C.3     1  UNL1        0.2087
     15 C          -4.2393  -19.7289   20.6271 C.3     1  UNL1        0.0445
     16 C          -3.3009  -19.7374   21.7973 C.3     1  UNL1        0.0210
     17 C          -2.0473  -18.9145   21.7594 C.3     1  UNL1        0.0722
     18 N          -1.7320  -18.0832   20.5512 N.3     1  UNL1       -0.2727
     19 C          -2.6704  -18.0748   19.3810 C.3     1  UNL1        0.0722
     20 C          -3.9241  -18.8977   19.4190 C.3     1  UNL1        0.0210
     21 C          -2.4310  -18.5178   20.5259 C.3     1  UNL1        0.0722
     22 C          -3.5645  -19.2618   20.5601 C.3     1  UNL1        0.0210
@<TRIPOS>BOND
     1     1     2    2
     2     2    13    1
     3    13    14    1
     4    14    15    1
     5    15    16    1
     6    16    17    1
     7    17    18    1
     8    18    19    1
     9    19    20    1
    10    18    21    1
    11    21    22    1
    12     2     3    1
    13     3     4    2
    14     4     5    1
    15     5     6    2
    16     6     7    1
    17     7     8    1
    18     8     9    2
    19     9    10    1
    20     9    11    1
    21    11    12    2
    22    20    15    1
    23    12     3    1
    24    22    15    1
    25    12     6    1
@<TRIPOS>MOLECULE
*****
 22 25 0 0 0
SMALL
GASTEIGER

@<TRIPOS>ATOM
      1 O         -12.5623  -16.1131   22.7066 O.2     1  UNL1       -0.2448
      2 C         -11.3241  -16.8362   23.1469 C.2     1  UNL1        0.3428
      3 C          -9.9718  -16.2796   22.8130 C.2     1  UNL1        0.0958
      4 C          -9.4895  -15.8956   21.4456 C.2     1  UNL1        0.1049
      5 N          -8.0839  -15.3880   21.5755 N.2     1  UNL1       -0.2476
      6 C          -7.6976  -15.4584   23.0232 C.2     1  UNL1        0.0636
      7 C          -6.4341  -15.0920   23.7438 C.3     1  UNL1        0.0722
      8 C          -6.3374  -15.2766   25.2292 C.2     1  UNL1       -0.0131
      9 C          -7.5042  -15.8276   25.9941 C.2     1  UNL1        0.0307
     10 BR         -7.4074  -16.0122   27.4796 Br      1  UNL1       -0.0493
     11 C          -8.7676  -16.1941   25.2735 C.2     1  UNL1        0.0078
     12 C          -8.8643  -16.0095   23.7880 C.2     1  UNL1        0.0221
     13 O         -11.4382  -18.1159   23.9212 O.3     1  UNL1       -0.4454
     14 C         -11.0227  -19.4127   23.2921 C.3     1  UNL1        0.2087
     15 C         -10.2374  -19.4086   22.0142 C.3     1  UNL1        0.0445
     16 C          -8.7380  -19.4047   22.0552 C.3     1  UNL1        0.0210
     17 C          -7.9527  -19.4006   20.7772 C.3     1  UNL1        0.0722
     18 N          -8.6669  -19.4003   19.4581 N.3     1  UNL1       -0.2727
     19 C         -10.1663  -19.4041   19.4170 C.3     1  UNL1        0.0722
     20 C         -10.9516  -19.4083   20.6951 C.3     1  UNL1        0.0210
     21 C          -9.1401  -19.4026   20.1319 C.3     1  UNL1        0.0722
     22 C          -9.8502  -19.4064   21.2875 C.3     1  UNL1        0.0210
@<TRIPOS>BOND
     1     1     2    2
     2     2    13    1
     3    13    14    1
     4    14    15    1
     5    15    16    1
     6    16    17    1
     7    17    18    1
     8    18    19    1
     9    19    20    1
    10    18    21    1
    11    21    22    1
    12     2     3    1
    13     3     4    2
    14     4     5    1
    15     5     6    2
    16     6     7    1
    17     7     8    1
    18     8     9    2
    19     9    10    1
    20     9    11    1
    21    11    12    2
    22    20    15    1
    23    12     3    1
    24    22    15    1
    25    12     6    1
@<TRIPOS>MOLECULE
*****
 22 25 0 0 0
SMALL
GASTEIGER

@<TRIPOS>ATOM
      1 O          -9.2666  -20.4703   18.2784 O.2     1  UNL1       -0.2448
      2 C          -9.0056  -19.4559   19.3520 C.2     1  UNL1        0.3428
      3 C         -10.1539  -18.7694   20.0304 C.2     1  UNL1        0.0958
      4 C         -11.1137  -17.8128   19.3871 C.2     1  UNL1        0.1049
      5 N         -12.0970  -17.3712   20.4303 N.2     1  UNL1       -0.2476
      6 C         -11.7449  -18.0548   21.7182 C.2     1  UNL1        0.0636
      7 C         -12.3626  -18.0020   23.0840 C.3     1  UNL1        0.0722
      8 C         -11.7794  -18.8134   24.2027 C.2     1  UNL1       -0.0131
      9 C         -10.5785  -19.6775   23.9556 C.2     1  UNL1        0.0307
     10 BR         -9.9953  -20.4889   25.0743 Br      1  UNL1       -0.0493
     11 C          -9.9608  -19.7303   22.5897 C.2     1  UNL1        0.0078
     12 C         -10.5440  -18.9189   21.4710 C.2     1  UNL1        0.0221
     13 O          -7.5962  -19.1280   19.7474 O.3     1  UNL1       -0.4454
     14 C          -6.7211  -20.1861   20.3511 C.3     1  UNL1        0.2087
     15 C          -5.3763  -19.8205   20.9058 C.3     1  UNL1        0.0445
     16 C          -5.2763  -19.1089   22.2225 C.3     1  UNL1        0.0210
     17 C          -3.9314  -18.7433   22.7771 C.3     1  UNL1        0.0722
     18 N          -2.6865  -19.0893   22.0152 N.3     1  UNL1       -0.2727
     19 C          -2.7865  -19.8010   20.6985 C.3     1  UNL1        0.0722
     20 C          -4.1315  -20.1666   20.1439 C.3     1  UNL1        0.0210
     21 C          -3.4012  -19.3102   21.6709 C.3     1  UNL1        0.0722
     22 C          -4.6172  -19.6408   21.1693 C.3     1  UNL1        0.0210
@<TRIPOS>BOND
     1     1     2    2
     2     2    13    1
     3    13    14    1
     4    14    15    1
     5    15    16    1
     6    16    17    1
     7    17    18    1
     8    18    19    1
     9    19    20    1
    10    18    21    1
    11    21    22    1
    12     2     3    1
    13     3     4    2
    14     4     5    1
    15     5     6    2
    16     6     7    1
    17     7     8    1
    18     8     9    2
    19     9    10    1
    20     9    11    1
    21    11    12    2
    22    20    15    1
    23    12     3    1
    24    22    15    1
    25    12     6    1
@<TRIPOS>MOLECULE
*****
 22 25 0 0 0
SMALL
GASTEIGER

@<TRIPOS>ATOM
      1 O          -6.0184  -17.2973   22.8885 O.2     1  UNL1       -0.2448
      2 C          -6.0678  -18.6149   22.1736 C.2     1  UNL1        0.3428
      3 C          -7.1475  -18.8822   21.1672 C.2     1  UNL1        0.0958
      4 C          -6.9409  -19.2000   19.7159 C.2     1  UNL1        0.1049
      5 N          -8.2891  -19.3929   19.0872 N.2     1  UNL1       -0.2476
      6 C          -9.3289  -19.1943   20.1499 C.2     1  UNL1        0.0636
      7 C         -10.8269  -19.2600   20.1131 C.3     1  UNL1        0.0722
      8 C         -11.6195  -19.0101   21.3619 C.2     1  UNL1       -0.0131
      9 C         -10.9139  -18.6945   22.6474 C.2     1  UNL1        0.0307
     10 BR        -11.7065  -18.4446   23.8962 Br      1  UNL1       -0.0493
     11 C          -9.4158  -18.6288   22.6842 C.2     1  UNL1        0.0078
     12 C          -8.6233  -18.8786   21.4355 C.2     1  UNL1        0.0221
     13 O          -5.0374  -19.6654   22.4651 O.3     1  UNL1       -0.4454
     14 C          -3.6636  -19.2643   22.9143 C.3     1  UNL1        0.2087
     15 C          -2.7678  -18.4937   21.9904 C.3     1  UNL1        0.0445
     16 C          -2.5187  -17.0343   22.2314 C.3     1  UNL1        0.0210
     17 C          -1.6228  -16.2638   21.3074 C.3     1  UNL1        0.0722
     18 N          -0.9760  -16.9527   20.1424 N.3     1  UNL1       -0.2727
     19 C          -1.2251  -18.4121   19.9014 C.3     1  UNL1        0.0722
     20 C          -2.1211  -19.1826   20.8254 C.3     1  UNL1        0.0210
     21 C          -1.4592  -17.4165   20.6214 C.3     1  UNL1        0.0722
     22 C          -2.2692  -18.1133   21.4568 C.3     1  UNL1        0.0210
@<TRIPOS>BOND
     1     1     2    2
     2     2    13    1
     3    13    14    1
     4    14    15    1
     5    15    16    1
     6    16    17    1
     7    17    18    1
     8    18    19    1
     9    19    20    1
    10    18    21    1
    11    21    22    1
    12     2     3    1
    13     3     4    2
    14     4     5    1
    15     5     6    2
    16     6     7    1
    17     7     8    1
    18     8     9    2
    19     9    10    1
    20     9    11    1
    21    11    12    2
    22    20    15    1
    23    12     3    1
    24    22    15    1
    25    12     6    1
@<TRIPOS>MOLECULE
*****
 22 25 0 0 0
SMALL
GASTEIGER

@<TRIPOS>ATOM
      1 O          -9.1163  -20.3697   18.4465 O.2     1  UNL1       -0.2448
      2 C          -8.5993  -19.5684   19.6043 C.2     1  UNL1        0.3428
      3 C          -9.5423  -19.0994   20.6724 C.2     1  UNL1        0.0958
      4 C         -10.9836  -19.4913   20.8103 C.2     1  UNL1        0.1049
      5 N         -11.5415  -18.7902   22.0132 N.2     1  UNL1       -0.2476
      6 C         -10.4451  -17.9649   22.6189 C.2     1  UNL1        0.0636
      7 C         -10.4121  -17.0642   23.8178 C.3     1  UNL1        0.0722
      8 C          -9.1436  -16.3545   24.1881 C.2     1  UNL1       -0.0131
      9 C          -7.9080  -16.5456   23.3594 C.2     1  UNL1        0.0307
     10 BR         -6.6394  -15.8359   23.7297 Br      1  UNL1       -0.0493
     11 C          -7.9409  -17.4464   22.1604 C.2     1  UNL1        0.0078
     12 C          -9.2095  -18.1560   21.7902 C.2     1  UNL1        0.0221
     13 O          -7.1393  -19.2362   19.6941 O.3     1  UNL1       -0.4454
     14 C          -6.1929  -20.1893   20.3619 C.3     1  UNL1        0.2087
     15 C          -4.8905  -19.6898   20.9135 C.3     1  UNL1        0.0445
     16 C          -3.6540  -19.7248   20.0652 C.3     1  UNL1        0.0210
     17 C          -2.3516  -19.2253   20.6169 C.3     1  UNL1        0.0722
     18 N          -2.2857  -18.6908   22.0170 N.3     1  UNL1       -0.2727
     19 C          -3.5223  -18.6559   22.8653 C.3     1  UNL1        0.0722
     20 C          -4.8248  -19.1554   22.3135 C.3     1  UNL1        0.0210
     21 C          -3.0220  -18.9535   21.7583 C.3     1  UNL1        0.0722
     22 C          -4.1997  -19.4051   21.2595 C.3     1  UNL1        0.0210
@<TRIPOS>BOND
     1     1     2    2
     2     2    13    1
     3    13    14    1
     4    14    15    1
     5    15    16    1
     6    16    17    1
     7    17    18    1
     8    18    19    1
     9    19    20    1
    10    18    21    1
    11    21    22    1
    12     2     3    1
    13     3     4    2
    14     4     5    1
    15     5     6    2
    16     6     7    1
    17     7     8    1
    18     8     9    2
    19     9    10    1
    20     9    11    1
    21    11    12    2
    22    20    15    1
    23    12     3    1
    24    22    15    1
    25    12     6    1
@<TRIPOS>MOLECULE
*****
 22 25 0 0 0
SMALL
GASTEIGER

@<TRIPOS>ATOM
      1 O          -4.4454  -15.0227   22.9879 O.2     1  UNL1       -0.2448
      2 C          -5.1368  -16.1277   23.7299 C.2     1  UNL1        0.3428
      3 C          -6.6069  -16.0357   24.0133 C.2     1  UNL1        0.0958
      4 C          -7.2477  -15.2073   25.0871 C.2     1  UNL1        0.1049
      5 N          -8.7312  -15.4156   25.0099 N.2     1  UNL1       -0.2476
      6 C          -9.0072  -16.3728   23.8885 C.2     1  UNL1        0.0636
      7 C         -10.2844  -16.9449   23.3487 C.3     1  UNL1        0.0722
      8 C         -10.2487  -17.9003   22.1929 C.2     1  UNL1       -0.0131
      9 C          -8.9358  -18.2836   21.5769 C.2     1  UNL1        0.0307
     10 BR         -8.9002  -19.2390   20.4211 Br      1  UNL1       -0.0493
     11 C          -7.6586  -17.7115   22.1167 C.2     1  UNL1        0.0078
     12 C          -7.6943  -16.7561   23.2725 C.2     1  UNL1        0.0221
     13 O          -4.3580  -17.3250   24.1887 O.3     1  UNL1       -0.4454
     14 C          -3.1856  -17.8089   23.3879 C.3     1  UNL1        0.2087
     15 C          -3.4044  -18.4457   22.0476 C.3     1  UNL1        0.0445
     16 C          -4.4214  -19.5374   21.8930 C.3     1  UNL1        0.0210
     17 C          -4.6402  -20.1742   20.5526 C.3     1  UNL1        0.0722
     18 N          -3.8420  -19.7194   19.3668 N.3     1  UNL1       -0.2727
     19 C          -2.8251  -18.6277   19.5214 C.3     1  UNL1        0.0722
     20 C          -2.6062  -17.9908   20.8619 C.3     1  UNL1        0.0210
     21 C          -3.6870  -19.3405   20.0812 C.3     1  UNL1        0.0722
     22 C          -3.4890  -18.7646   21.2932 C.3     1  UNL1        0.0210
@<TRIPOS>BOND
     1     1     2    2
     2     2    13    1
     3    13    14    1
     4    14    15    1
     5    15    16    1
     6    16    17    1
     7    17    18    1
     8    18    19    1
     9    19    20    1
    10    18    21    1
    11    21    22    1
    12     2     3    1
    13     3     4    2
    14     4     5    1
    15     5     6    2
    16     6     7    1
    17     7     8    1
    18     8     9    2
    19     9    10    1
    20     9    11    1
    21    11    12    2
    22    20    15    1
    23    12     3    1
    24    22    15    1
    25    12     6    1
@<TRIPOS>MOLECULE
*****
 22 25 0 0 0
SMALL
GASTEIGER

@<TRIPOS>ATOM
      1 O          -6.3804  -14.7404   24.3803 O.2     1  UNL1       -0.2448
      2 C          -6.6320  -15.8985   23.4609 C.2     1  UNL1        0.3428
      3 C          -7.9156  -15.9784   22.6890 C.2     1  UNL1        0.0958
      4 C          -8.3684  -15.0181   21.6294 C.2     1  UNL1        0.1049
      5 N          -9.7045  -15.4788   21.1267 N.2     1  UNL1       -0.2476
      6 C         -10.0774  -16.7238   21.8756 C.2     1  UNL1        0.0636
      7 C         -11.2808  -17.6162   21.8031 C.3     1  UNL1        0.0722
      8 C         -11.3787  -18.8174   22.6961 C.2     1  UNL1       -0.0131
      9 C         -10.2731  -19.1262   23.6617 C.2     1  UNL1        0.0307
     10 BR        -10.3710  -20.3274   24.5548 Br      1  UNL1       -0.0493
     11 C          -9.0696  -18.2338   23.7342 C.2     1  UNL1        0.0078
     12 C          -8.9718  -17.0326   22.8412 C.2     1  UNL1        0.0221
     13 O          -5.5997  -16.9770   23.3135 O.3     1  UNL1       -0.4454
     14 C          -4.1439  -16.6467   23.4593 C.3     1  UNL1        0.2087
     15 C          -3.1416  -17.2416   22.5151 C.3     1  UNL1        0.0445
     16 C          -2.1960  -16.3505   21.7658 C.3     1  UNL1        0.0210
     17 C          -1.1938  -16.9456   20.8216 C.3     1  UNL1        0.0722
     18 N          -1.1372  -18.4318   20.6267 N.3     1  UNL1       -0.2727
     19 C          -2.0829  -19.3230   21.3761 C.3     1  UNL1        0.0722
     20 C          -3.0851  -18.7279   22.3203 C.3     1  UNL1        0.0210
     21 C          -1.7036  -18.1519   21.1548 C.3     1  UNL1        0.0722
     22 C          -2.6098  -17.6139   22.0086 C.3     1  UNL1        0.0210
@<TRIPOS>BOND
     1     1     2    2
     2     2    13    1
     3    13    14    1
     4    14    15    1
     5    15    16    1
     6    16    17    1
     7    17    18    1
     8    18    19    1
     9    19    20    1
    10    18    21    1
    11    21    22    1
    12     2     3    1
    13     3     4    2
    14     4     5    1
    15     5     6    2
    16     6     7    1
    17     7     8    1
    18     8     9    2
    19     9    10    1
    20     9    11    1
    21    11    12    2
    22    20    15    1
    23    12     3    1
    24    22    15    1
    25    12     6    1
