@<TRIPOS>MOLECULE
*****
 21 23 0 0 0
SMALL
GASTEIGER

@<TRIPOS>ATOM
      1 O          -1.6550  -20.3230   20.8470 O.2     1  UNL1       -0.2701
      2 C          -2.5058  -19.3780   21.6428 C.2     1  UNL1        0.2470
      3 N          -1.8648  -18.4106   22.5931 N.am    1  UNL1       -0.3004
      4 C          -2.7156  -17.4657   23.3888 C.3     1  UNL1        0.0960
      5 C          -4.2074  -17.4882   23.2343 C.3     1  UNL1        0.0673
      6 C          -4.8484  -18.4557   22.2840 C.ar    1  UNL1        0.0681
      7 N          -6.3403  -18.4782   22.1295 N.ar    1  UNL1       -0.2158
      8 C          -6.9813  -19.4457   21.1792 C.ar    1  UNL1        0.2248
      9 C          -6.1305  -20.3906   20.3834 C.ar    1  UNL1        0.0578
     10 C          -4.6387  -20.3681   20.5379 C.ar    1  UNL1        0.0105
     11 C          -3.9976  -19.4006   21.4883 C.ar    1  UNL1        0.0672
     12 H          -0.8856  -18.3958   22.6945 H       1  UNL1        0.1498
     13 O          -8.4732  -19.4683   21.0246 O.3     1  UNL1       -0.4552
     14 C          -9.3539  -19.4024   22.2370 C.3     1  UNL1        0.2338
     15 C         -10.4381  -18.3693   22.3211 C.ar    1  UNL1        0.0234
     16 C         -10.2485  -17.0287   21.6753 C.ar    1  UNL1       -0.0005
     17 C         -11.3328  -15.9956   21.7594 C.ar    1  UNL1        0.0021
     18 C         -12.6067  -16.3031   22.4892 C.ar    1  UNL1        0.0296
     19 C         -12.7963  -17.6436   23.1349 C.ar    1  UNL1        0.1399
     20 F         -14.0703  -17.9510   23.8647 F       1  UNL1       -0.2042
     21 C         -11.7121  -18.6767   23.0509 C.ar    1  UNL1        0.0290
@<TRIPOS>BOND
     1     1     2    2
     2     2     3   am
     3     3     4    1
     4     4     5    1
     5     5     6    1
     6     6     7   ar
     7     7     8   ar
     8     8    13    1
     9    13    14    1
    10    14    15    1
    11    15    16   ar
    12    16    17   ar
    13    17    18   ar
    14    18    19   ar
    15    19    20    1
    16    19    21   ar
    17     8     9   ar
    18     9    10   ar
    19    10    11   ar
    20    11     2    1
    21    11     6   ar
    22    21    15   ar
    23     3    12    1
@<TRIPOS>MOLECULE
*****
 21 23 0 0 0
SMALL
GASTEIGER

@<TRIPOS>ATOM
      1 O         -12.5913  -17.2203   20.5552 O.2     1  UNL1       -0.2701
      2 C         -12.1219  -17.8471   21.8346 C.2     1  UNL1        0.2470
      3 N         -13.0134  -17.8473   23.0409 N.am    1  UNL1       -0.3004
      4 C         -12.5441  -18.4742   24.3203 C.3     1  UNL1        0.0960
      5 C         -11.1832  -19.1008   24.3934 C.3     1  UNL1        0.0673
      6 C         -10.2917  -19.1005   23.1871 C.ar    1  UNL1        0.0681
      7 N          -8.9308  -19.7271   23.2601 N.ar    1  UNL1       -0.2158
      8 C          -8.0393  -19.7269   22.0538 C.ar    1  UNL1        0.2248
      9 C          -8.5086  -19.1001   20.7745 C.ar    1  UNL1        0.0578
     10 C          -9.8695  -18.4735   20.7014 C.ar    1  UNL1        0.0105
     11 C         -10.7611  -18.4737   21.9077 C.ar    1  UNL1        0.0672
     12 H         -13.9066  -17.4361   22.9929 H       1  UNL1        0.1498
     13 O          -6.6783  -20.3535   22.1269 O.3     1  UNL1       -0.4552
     14 C          -5.7964  -20.3750   20.9137 C.3     1  UNL1        0.2338
     15 C          -4.5118  -19.6008   20.9066 C.ar    1  UNL1        0.0234
     16 C          -3.9081  -19.1374   22.1993 C.ar    1  UNL1       -0.0005
     17 C          -2.6235  -18.3632   22.1921 C.ar    1  UNL1        0.0021
     18 C          -1.9424  -18.0522   20.8924 C.ar    1  UNL1        0.0296
     19 C          -2.5460  -18.5155   19.5997 C.ar    1  UNL1        0.1399
     20 F          -1.8649  -18.2045   18.2999 F       1  UNL1       -0.2042
     21 C          -3.8307  -19.2898   19.6068 C.ar    1  UNL1        0.0290
@<TRIPOS>BOND
     1     1     2    2
     2     2     3   am
     3     3     4    1
     4     4     5    1
     5     5     6    1
     6     6     7   ar
     7     7     8   ar
     8     8    13    1
     9    13    14    1
    10    14    15    1
    11    15    16   ar
    12    16    17   ar
    13    17    18   ar
    14    18    19   ar
    15    19    20    1
    16    19    21   ar
    17     8     9   ar
    18     9    10   ar
    19    10    11   ar
    20    11     2    1
    21    11     6   ar
    22    21    15   ar
    23     3    12    1
@<TRIPOS>MOLECULE
*****
 21 23 0 0 0
SMALL
GASTEIGER

@<TRIPOS>ATOM
      1 O          -1.2696  -18.2758   18.5643 O.2     1  UNL1       -0.2701
      2 C          -1.8517  -17.8603   19.8828 C.2     1  UNL1        0.2470
      3 N          -1.2137  -16.7535   20.6689 N.am    1  UNL1       -0.3004
      4 C          -1.7958  -16.3379   21.9874 C.3     1  UNL1        0.0960
      5 C          -3.0159  -17.0291   22.5199 C.3     1  UNL1        0.0673
      6 C          -3.6539  -18.1359   21.7338 C.ar    1  UNL1        0.0681
      7 N          -4.8740  -18.8272   22.2662 N.ar    1  UNL1       -0.2158
      8 C          -5.5120  -19.9340   21.4802 C.ar    1  UNL1        0.2248
      9 C          -4.9300  -20.3495   20.1617 C.ar    1  UNL1        0.0578
     10 C          -3.7099  -19.6583   19.6292 C.ar    1  UNL1        0.0105
     11 C          -3.0718  -18.5515   20.4153 C.ar    1  UNL1        0.0672
     12 H          -0.4129  -16.2998   20.3195 H       1  UNL1        0.1498
     13 O          -6.7322  -20.6252   22.0126 O.3     1  UNL1       -0.4552
     14 C          -7.8015  -19.8326   22.7042 C.3     1  UNL1        0.2338
     15 C          -9.0213  -19.3984   21.9470 C.ar    1  UNL1        0.0234
     16 C          -8.9883  -19.3268   20.4490 C.ar    1  UNL1       -0.0005
     17 C         -10.2081  -18.8925   19.6918 C.ar    1  UNL1        0.0021
     18 C         -11.4610  -18.5298   20.4325 C.ar    1  UNL1        0.0296
     19 C         -11.4941  -18.6013   21.9303 C.ar    1  UNL1        0.1399
     20 F         -12.7470  -18.2385   22.6710 F       1  UNL1       -0.2042
     21 C         -10.2742  -19.0356   22.6876 C.ar    1  UNL1        0.0290
@<TRIPOS>BOND
     1     1     2    2
     2     2     3   am
     3     3     4    1
     4     4     5    1
     5     5     6    1
     6     6     7   ar
     7     7     8   ar
     8     8    13    1
     9    13    14    1
    10    14    15    1
    11    15    16   ar
    12    16    17   ar
    13    17    18   ar
    14    18    19   ar
    15    19    20    1
    16    19    21   ar
    17     8     9   ar
    18     9    10   ar
    19    10    11   ar
    20    11     2    1
    21    11     6   ar
    22    21    15   ar
    23     3    12    1
@<TRIPOS>MOLECULE
*****
 21 23 0 0 0
SMALL
GASTEIGER

@<TRIPOS>ATOM
      1 O          -8.4730  -15.2714   27.3957 O.2     1  UNL1       -0.2701
      2 C          -8.0091  -15.5850   26.0041 C.2     1  UNL1        0.2470
      3 N          -7.0150  -14.6901   25.3254 N.am    1  UNL1       -0.3004
      4 C          -6.5511  -15.0037   23.9338 C.3     1  UNL1        0.0960
      5 C          -7.0813  -16.2122   23.2210 C.3     1  UNL1        0.0673
      6 C          -8.0755  -17.1072   23.8997 C.ar    1  UNL1        0.0681
      7 N          -8.6058  -18.3158   23.1869 N.ar    1  UNL1       -0.2158
      8 C          -9.5999  -19.2108   23.8656 C.ar    1  UNL1        0.2248
      9 C         -10.0638  -18.8971   25.2572 C.ar    1  UNL1        0.0578
     10 C          -9.5336  -17.6886   25.9700 C.ar    1  UNL1        0.0105
     11 C          -8.5394  -16.7936   25.2913 C.ar    1  UNL1        0.0672
     12 H          -6.6670  -13.8968   25.7932 H       1  UNL1        0.1498
     13 O         -10.1302  -20.4194   23.1528 O.3     1  UNL1       -0.4552
     14 C         -11.0728  -20.2553   21.9976 C.3     1  UNL1        0.2338
     15 C         -11.3722  -18.8864   21.4625 C.ar    1  UNL1        0.0234
     16 C         -10.9473  -18.5149   20.0727 C.ar    1  UNL1       -0.0005
     17 C         -11.2467  -17.1460   19.5376 C.ar    1  UNL1        0.0021
     18 C         -11.9709  -16.1485   20.3923 C.ar    1  UNL1        0.0296
     19 C         -12.3957  -16.5199   21.7820 C.ar    1  UNL1        0.1399
     20 F         -13.1200  -15.5224   22.6367 F       1  UNL1       -0.2042
     21 C         -12.0964  -17.8889   22.3172 C.ar    1  UNL1        0.0290
@<TRIPOS>BOND
     1     1     2    2
     2     2     3   am
     3     3     4    1
     4     4     5    1
     5     5     6    1
     6     6     7   ar
     7     7     8   ar
     8     8    13    1
     9    13    14    1
    10    14    15    1
    11    15    16   ar
    12    16    17   ar
    13    17    18   ar
    14    18    19   ar
    15    19    20    1
    16    19    21   ar
    17     8     9   ar
    18     9    10   ar
    19    10    11   ar
    20    11     2    1
    21    11     6   ar
    22    21    15   ar
    23     3    12    1
@<TRIPOS>MOLECULE
*****
 21 23 0 0 0
SMALL
GASTEIGER

@<TRIPOS>ATOM
      1 O         -11.2442  -16.0529   22.2049 O.2     1  UNL1       -0.2701
      2 C         -10.9900  -17.3659   22.8843 C.2     1  UNL1        0.2470
      3 N         -12.0058  -17.9279   23.8342 N.am    1  UNL1       -0.3004
      4 C         -11.7517  -19.2408   24.5136 C.3     1  UNL1        0.0960
      5 C         -10.4817  -19.9918   24.2431 C.3     1  UNL1        0.0673
      6 C          -9.4659  -19.4298   23.2932 C.ar    1  UNL1        0.0681
      7 N          -8.1959  -20.1808   23.0227 N.ar    1  UNL1       -0.2158
      8 C          -7.1801  -19.6188   22.0728 C.ar    1  UNL1        0.2248
      9 C          -7.4342  -18.3059   21.3934 C.ar    1  UNL1        0.0578
     10 C          -8.7042  -17.5549   21.6639 C.ar    1  UNL1        0.0105
     11 C          -9.7201  -18.1169   22.6138 C.ar    1  UNL1        0.0672
     12 H         -12.8394  -17.4350   24.0117 H       1  UNL1        0.1498
     13 O          -5.9100  -20.3698   21.8023 O.3     1  UNL1       -0.4552
     14 C          -4.6070  -19.8584   22.3412 C.3     1  UNL1        0.2338
     15 C          -3.7226  -19.0055   21.4808 C.ar    1  UNL1        0.0234
     16 C          -3.4905  -19.3750   20.0456 C.ar    1  UNL1       -0.0005
     17 C          -2.6061  -18.5221   19.1852 C.ar    1  UNL1        0.0021
     18 C          -1.9537  -17.2997   19.7599 C.ar    1  UNL1        0.0296
     19 C          -2.1858  -16.9302   21.1950 C.ar    1  UNL1        0.1399
     20 F          -1.5335  -15.7079   21.7697 F       1  UNL1       -0.2042
     21 C          -3.0703  -17.7831   22.0555 C.ar    1  UNL1        0.0290
@<TRIPOS>BOND
     1     1     2    2
     2     2     3   am
     3     3     4    1
     4     4     5    1
     5     5     6    1
     6     6     7   ar
     7     7     8   ar
     8     8    13    1
     9    13    14    1
    10    14    15    1
    11    15    16   ar
    12    16    17   ar
    13    17    18   ar
    14    18    19   ar
    15    19    20    1
    16    19    21   ar
    17     8     9   ar
    18     9    10   ar
    19    10    11   ar
    20    11     2    1
    21    11     6   ar
    22    21    15   ar
    23     3    12    1
@<TRIPOS>MOLECULE
*****
 21 23 0 0 0
SMALL
GASTEIGER

@<TRIPOS>ATOM
      1 O          -1.7988  -20.2995   21.4023 O.2     1  UNL1       -0.2701
      2 C          -2.8181  -19.3347   21.9315 C.2     1  UNL1        0.2470
      3 N          -2.4191  -18.3025   22.9440 N.am    1  UNL1       -0.3004
      4 C          -3.4384  -17.3377   23.4732 C.3     1  UNL1        0.0960
      5 C          -4.8568  -17.4051   22.9899 C.3     1  UNL1        0.0673
      6 C          -5.2559  -18.4373   21.9774 C.ar    1  UNL1        0.0681
      7 N          -6.6743  -18.5048   21.4941 N.ar    1  UNL1       -0.2158
      8 C          -7.0733  -19.5370   20.4816 C.ar    1  UNL1        0.2248
      9 C          -6.0540  -20.5018   19.9524 C.ar    1  UNL1        0.0578
     10 C          -4.6356  -20.4344   20.4357 C.ar    1  UNL1        0.0105
     11 C          -4.2365  -19.4021   21.4482 C.ar    1  UNL1        0.0672
     12 H          -1.4882  -18.2582   23.2612 H       1  UNL1        0.1498
     13 O          -8.4918  -19.6044   19.9982 O.3     1  UNL1       -0.4552
     14 C          -9.5570  -18.8018   20.6846 C.3     1  UNL1        0.2338
     15 C          -9.6726  -18.8323   22.1797 C.ar    1  UNL1        0.0234
     16 C          -9.8353  -17.5528   22.9457 C.ar    1  UNL1       -0.0005
     17 C          -9.9510  -17.5832   24.4409 C.ar    1  UNL1        0.0021
     18 C          -9.9039  -18.8931   25.1702 C.ar    1  UNL1        0.0296
     19 C          -9.7412  -20.1726   24.4044 C.ar    1  UNL1        0.1399
     20 F          -9.6941  -21.4824   25.1337 F       1  UNL1       -0.2042
     21 C          -9.6255  -20.1421   22.9091 C.ar    1  UNL1        0.0290
@<TRIPOS>BOND
     1     1     2    2
     2     2     3   am
     3     3     4    1
     4     4     5    1
     5     5     6    1
     6     6     7   ar
     7     7     8   ar
     8     8    13    1
     9    13    14    1
    10    14    15    1
    11    15    16   ar
    12    16    17   ar
    13    17    18   ar
    14    18    19   ar
    15    19    20    1
    16    19    21   ar
    17     8     9   ar
    18     9    10   ar
    19    10    11   ar
    20    11     2    1
    21    11     6   ar
    22    21    15   ar
    23     3    12    1
@<TRIPOS>MOLECULE
*****
 21 23 0 0 0
SMALL
GASTEIGER

@<TRIPOS>ATOM
      1 O         -16.3310  -11.3991   18.6017 O.2     1  UNL1       -0.2701
      2 C         -17.0640  -10.1631   19.0317 C.2     1  UNL1        0.2470
      3 N         -18.5073  -10.2479   19.4311 N.am    1  UNL1       -0.3004
      4 C         -19.2404   -9.0119   19.8611 C.3     1  UNL1        0.0960
      5 C         -18.5301   -7.6911   19.8918 C.3     1  UNL1        0.0673
      6 C         -17.0868   -7.6063   19.4924 C.ar    1  UNL1        0.0681
      7 N         -16.3764   -6.2855   19.5230 N.ar    1  UNL1       -0.2158
      8 C         -14.9331   -6.2007   19.1236 C.ar    1  UNL1        0.2248
      9 C         -14.2000   -7.4367   18.6936 C.ar    1  UNL1        0.0578
     10 C         -14.9103   -8.7575   18.6629 C.ar    1  UNL1        0.0105
     11 C         -16.3537   -8.8424   19.0623 C.ar    1  UNL1        0.0672
     12 H         -18.9736  -11.1148   19.4110 H       1  UNL1        0.1498
     13 O         -14.2227   -4.8799   19.1542 O.3     1  UNL1       -0.4552
     14 C         -12.8519   -4.7793   19.7547 C.3     1  UNL1        0.2338
     15 C         -11.6466   -4.7082   18.8646 C.ar    1  UNL1        0.0234
     16 C         -10.7731   -5.9147   18.6870 C.ar    1  UNL1       -0.0005
     17 C          -9.5679   -5.8436   17.7970 C.ar    1  UNL1        0.0021
     18 C          -9.2360   -4.5660   17.0845 C.ar    1  UNL1        0.0296
     19 C         -10.1094   -3.3595   17.2621 C.ar    1  UNL1        0.1399
     20 F          -9.7776   -2.0819   16.5496 F       1  UNL1       -0.2042
     21 C         -11.3148   -3.4306   18.1522 C.ar    1  UNL1        0.0290
@<TRIPOS>BOND
     1     1     2    2
     2     2     3   am
     3     3     4    1
     4     4     5    1
     5     5     6    1
     6     6     7   ar
     7     7     8   ar
     8     8    13    1
     9    13    14    1
    10    14    15    1
    11    15    16   ar
    12    16    17   ar
    13    17    18   ar
    14    18    19   ar
    15    19    20    1
    16    19    21   ar
    17     8     9   ar
    18     9    10   ar
    19    10    11   ar
    20    11     2    1
    21    11     6   ar
    22    21    15   ar
    23     3    12    1
@<TRIPOS>MOLECULE
*****
 21 23 0 0 0
SMALL
GASTEIGER

@<TRIPOS>ATOM
      1 O         -16.5167  -12.0581   19.0956 O.2     1  UNL1       -0.2701
      2 C         -17.2556  -10.9312   18.4366 C.2     1  UNL1        0.2470
      3 N         -18.7359  -11.0321   18.2168 N.am    1  UNL1       -0.3004
      4 C         -19.4748   -9.9053   17.5578 C.3     1  UNL1        0.0960
      5 C         -18.7334   -8.6776   17.1186 C.3     1  UNL1        0.0673
      6 C         -17.2531   -8.5767   17.3384 C.ar    1  UNL1        0.0681
      7 N         -16.5115   -7.3489   16.8992 N.ar    1  UNL1       -0.2158
      8 C         -15.0312   -7.2480   17.1190 C.ar    1  UNL1        0.2248
      9 C         -14.2923   -8.3748   17.7780 C.ar    1  UNL1        0.0578
     10 C         -15.0337   -9.6026   18.2172 C.ar    1  UNL1        0.0105
     11 C         -16.5141   -9.7035   17.9974 C.ar    1  UNL1        0.0672
     12 H         -19.2226  -11.8379   18.5051 H       1  UNL1        0.1498
     13 O         -14.2897   -6.0203   16.6798 O.3     1  UNL1       -0.4552
     14 C         -12.8551   -6.1227   16.2538 C.3     1  UNL1        0.2338
     15 C         -11.7585   -5.8545   17.2415 C.ar    1  UNL1        0.0234
     16 C         -11.5213   -4.4591   17.7383 C.ar    1  UNL1       -0.0005
     17 C         -10.4247   -4.1909   18.7259 C.ar    1  UNL1        0.0021
     18 C          -9.5653   -5.3180   19.2168 C.ar    1  UNL1        0.0296
     19 C          -9.8025   -6.7134   18.7201 C.ar    1  UNL1        0.1399
     20 F          -8.9430   -7.8405   19.2110 F       1  UNL1       -0.2042
     21 C         -10.8991   -6.9816   17.7324 C.ar    1  UNL1        0.0290
@<TRIPOS>BOND
     1     1     2    2
     2     2     3   am
     3     3     4    1
     4     4     5    1
     5     5     6    1
     6     6     7   ar
     7     7     8   ar
     8     8    13    1
     9    13    14    1
    10    14    15    1
    11    15    16   ar
    12    16    17   ar
    13    17    18   ar
    14    18    19   ar
    15    19    20    1
    16    19    21   ar
    17     8     9   ar
    18     9    10   ar
    19    10    11   ar
    20    11     2    1
    21    11     6   ar
    22    21    15   ar
    23     3    12    1
@<TRIPOS>MOLECULE
*****
 21 23 0 0 0
SMALL
GASTEIGER

@<TRIPOS>ATOM
      1 O          -1.2920  -19.7528   20.4387 O.2     1  UNL1       -0.2701
      2 C          -2.1754  -19.0672   21.4385 C.2     1  UNL1        0.2470
      3 N          -1.5691  -18.2287   22.5244 N.am    1  UNL1       -0.3004
      4 C          -2.4525  -17.5432   23.5242 C.3     1  UNL1        0.0960
      5 C          -3.9422  -17.6961   23.4381 C.3     1  UNL1        0.0673
      6 C          -4.5485  -18.5346   22.3521 C.ar    1  UNL1        0.0681
      7 N          -6.0382  -18.6876   22.2659 N.ar    1  UNL1       -0.2158
      8 C          -6.6445  -19.5261   21.1800 C.ar    1  UNL1        0.2248
      9 C          -5.7611  -20.2116   20.1802 C.ar    1  UNL1        0.0578
     10 C          -4.2714  -20.0587   20.2664 C.ar    1  UNL1        0.0105
     11 C          -3.6651  -19.2202   21.3523 C.ar    1  UNL1        0.0672
     12 H          -0.5914  -18.1284   22.5810 H       1  UNL1        0.1498
     13 O          -8.1342  -19.6790   21.0938 O.3     1  UNL1       -0.4552
     14 C          -9.0249  -18.4975   21.3399 C.3     1  UNL1        0.2338
     15 C          -8.9978  -17.8017   22.6684 C.ar    1  UNL1        0.0234
     16 C          -9.5650  -18.4783   23.8812 C.ar    1  UNL1       -0.0005
     17 C          -9.5379  -17.7824   25.2097 C.ar    1  UNL1        0.0021
     18 C          -8.9436  -16.4100   25.3256 C.ar    1  UNL1        0.0296
     19 C          -8.3765  -15.7335   24.1129 C.ar    1  UNL1        0.1399
     20 F          -7.7823  -14.3611   24.2288 F       1  UNL1       -0.2042
     21 C          -8.4036  -16.4293   22.7843 C.ar    1  UNL1        0.0290
@<TRIPOS>BOND
     1     1     2    2
     2     2     3   am
     3     3     4    1
     4     4     5    1
     5     5     6    1
     6     6     7   ar
     7     7     8   ar
     8     8    13    1
     9    13    14    1
    10    14    15    1
    11    15    16   ar
    12    16    17   ar
    13    17    18   ar
    14    18    19   ar
    15    19    20    1
    16    19    21   ar
    17     8     9   ar
    18     9    10   ar
    19    10    11   ar
    20    11     2    1
    21    11     6   ar
    22    21    15   ar
    23     3    12    1
