@<TRIPOS>MOLECULE
*****
 27 30 0 0 0
SMALL
GASTEIGER

@<TRIPOS>ATOM
      1 C           6.2410   -2.3228   19.1852 C.2     1  UNL1        0.0919
      2 C           7.7252   -2.2799   18.9723 C.2     1  UNL1        0.0183
      3 C           8.6441   -2.9312   19.9630 C.2     1  UNL1        0.0511
      4 C           8.0788   -3.6254   21.1665 C.2     1  UNL1        0.2322
      5 N           8.7316   -4.3510   22.3055 N.2     1  UNL1       -0.0308
      6 C           7.6508   -4.8423   23.2224 C.2     1  UNL1        0.3760
      7 N           6.3301   -4.4204   22.6500 N.2     1  UNL1       -0.0347
      8 C           6.5947   -3.6683   21.3793 C.2     1  UNL1        0.2191
      9 C           5.6758   -3.0170   20.3887 C.3     1  UNL1        0.1226
     10 C           7.8550   -5.6192   24.4892 C.ar    1  UNL1        0.0989
     11 C           7.4909   -5.0089   25.8102 C.ar    1  UNL1        0.0085
     12 C           7.6951   -5.7857   27.0770 C.ar    1  UNL1        0.0003
     13 C           8.2634   -7.1728   27.0228 C.ar    1  UNL1        0.0009
     14 C           8.6275   -7.7831   25.7019 C.ar    1  UNL1        0.0116
     15 C           8.4233   -7.0063   24.4351 C.ar    1  UNL1        0.0651
     16 CL          8.7874   -7.6166   23.1141 Cl      1  UNL1       -0.0820
     17 C           7.3310   -5.1754   28.3980 C.ar    1  UNL1        0.0000
     18 C           7.4015   -5.9991   29.6496 C.ar    1  UNL1        0.0000
     19 C           7.0374   -5.3888   30.9706 C.ar    1  UNL1        0.0000
     20 C           6.6027   -3.9548   31.0399 C.ar    1  UNL1        0.0000
     21 C           6.5322   -3.1312   29.7883 C.ar    1  UNL1        0.0000
     22 C           6.8963   -3.7415   28.4673 C.ar    1  UNL1        0.0000
     23 S           5.3221   -1.6715   18.1945 S.O2    1  UNL1        0.0054
     24 O           4.1931   -1.7695   19.1773 O.2     1  UNL1       -0.1689
     25 O           6.4511   -1.5734   17.2118 O.2     1  UNL1       -0.1689
     26 C           3.2987   -0.1247   17.6815 C.3     1  UNL1        0.0276
     27 C           4.4032   -1.0201   17.2039 C.3     1  UNL1        0.1556
@<TRIPOS>BOND
     1    26    27    1
     2    27    23    1
     3    23    24    2
     4    23    25    2
     5    23     1    1
     6     1     2    2
     7     2     3    1
     8     3     4    2
     9     4     5    1
    10     5     6    2
    11     6    10    1
    12    10    11   ar
    13    11    12   ar
    14    12    17    1
    15    17    18   ar
    16    18    19   ar
    17    19    20   ar
    18    20    21   ar
    19    21    22   ar
    20    12    13   ar
    21    13    14   ar
    22    14    15   ar
    23    15    16    1
    24     6     7    1
    25     7     8    2
    26     8     9    1
    27     9     1    1
    28     8     4    1
    29    15    10   ar
    30    22    17   ar
@<TRIPOS>MOLECULE
*****
 27 30 0 0 0
SMALL
GASTEIGER

@<TRIPOS>ATOM
      1 C           7.3719   -5.7626   27.2022 C.2     1  UNL1        0.0919
      2 C           7.8970   -6.9370   26.4307 C.2     1  UNL1        0.0183
      3 C           7.9570   -6.8841   24.9329 C.2     1  UNL1        0.0511
      4 C           7.4919   -5.6569   24.2065 C.2     1  UNL1        0.2322
      5 N           7.4318   -5.3169   22.7468 N.2     1  UNL1       -0.0308
      6 C           6.8695   -3.9324   22.6161 C.2     1  UNL1        0.3760
      7 N           6.5821   -3.4168   23.9950 N.2     1  UNL1       -0.0347
      8 C           6.9668   -4.4826   24.9779 C.2     1  UNL1        0.2191
      9 C           6.9068   -4.5355   26.4758 C.3     1  UNL1        0.1226
     10 C           6.6356   -3.1934   21.3318 C.ar    1  UNL1        0.0989
     11 C           5.3252   -2.5044   21.0909 C.ar    1  UNL1        0.0085
     12 C           5.0913   -1.7654   19.8068 C.ar    1  UNL1        0.0003
     13 C           6.1678   -1.7154   18.7635 C.ar    1  UNL1        0.0009
     14 C           7.4783   -2.4044   19.0044 C.ar    1  UNL1        0.0116
     15 C           7.7122   -3.1434   20.2885 C.ar    1  UNL1        0.0651
     16 CL          9.0226   -3.8324   20.5294 Cl      1  UNL1       -0.0820
     17 C           3.7808   -1.0764   19.5659 C.ar    1  UNL1        0.0000
     18 C           2.6122   -1.3521   20.4649 C.ar    1  UNL1        0.0000
     19 C           1.3017   -0.6631   20.2240 C.ar    1  UNL1        0.0000
     20 C           1.1599    0.3016   19.0841 C.ar    1  UNL1        0.0000
     21 C           2.3286    0.5772   18.1851 C.ar    1  UNL1        0.0000
     22 C           3.6390   -0.1118   18.4260 C.ar    1  UNL1        0.0000
     23 S           7.3118   -5.8155   28.7001 S.O2    1  UNL1        0.0054
     24 O           6.4793   -4.5678   28.7107 O.2     1  UNL1       -0.1689
     25 O           8.1444   -7.0632   28.6894 O.2     1  UNL1       -0.1689
     26 C           6.8851   -4.6406   30.9776 C.3     1  UNL1        0.0276
     27 C           7.2518   -5.8684   30.1979 C.3     1  UNL1        0.1556
@<TRIPOS>BOND
     1    26    27    1
     2    27    23    1
     3    23    24    2
     4    23    25    2
     5    23     1    1
     6     1     2    2
     7     2     3    1
     8     3     4    2
     9     4     5    1
    10     5     6    2
    11     6    10    1
    12    10    11   ar
    13    11    12   ar
    14    12    17    1
    15    17    18   ar
    16    18    19   ar
    17    19    20   ar
    18    20    21   ar
    19    21    22   ar
    20    12    13   ar
    21    13    14   ar
    22    14    15   ar
    23    15    16    1
    24     6     7    1
    25     7     8    2
    26     8     9    1
    27     9     1    1
    28     8     4    1
    29    15    10   ar
    30    22    17   ar
@<TRIPOS>MOLECULE
*****
 27 30 0 0 0
SMALL
GASTEIGER

@<TRIPOS>ATOM
      1 C           3.2264   -0.9561   18.9389 C.2     1  UNL1        0.0919
      2 C           3.5970    0.2608   18.1441 C.2     1  UNL1        0.0183
      3 C           2.8154    1.5305   18.3083 C.2     1  UNL1        0.0511
      4 C           1.6632    1.5833   19.2673 C.2     1  UNL1        0.2322
      5 N           0.7159    2.6855   19.6384 N.2     1  UNL1       -0.0308
      6 C          -0.2402    2.1497   20.6626 C.2     1  UNL1        0.3760
      7 N           0.1162    0.7164   20.9244 N.2     1  UNL1       -0.0347
      8 C           1.2926    0.3664   20.0620 C.2     1  UNL1        0.2191
      9 C           2.0742   -0.9033   19.8978 C.3     1  UNL1        0.1226
     10 C          -1.3567    2.9133   21.3110 C.ar    1  UNL1        0.0989
     11 C          -2.6091    3.2097   20.5406 C.ar    1  UNL1        0.0085
     12 C          -3.7256    3.9732   21.1889 C.ar    1  UNL1        0.0003
     13 C          -3.5896    4.4404   22.6078 C.ar    1  UNL1        0.0009
     14 C          -2.3372    4.1440   23.3783 C.ar    1  UNL1        0.0116
     15 C          -1.2207    3.3805   22.7299 C.ar    1  UNL1        0.0651
     16 CL          0.0317    3.0842   23.5004 Cl      1  UNL1       -0.0820
     17 C          -4.9780    4.2695   20.4185 C.ar    1  UNL1        0.0000
     18 C          -5.6651    5.5926   20.5841 C.ar    1  UNL1        0.0000
     19 C          -6.9175    5.8889   19.8136 C.ar    1  UNL1        0.0000
     20 C          -7.4828    4.8622   18.8775 C.ar    1  UNL1        0.0000
     21 C          -6.7958    3.5392   18.7119 C.ar    1  UNL1        0.0000
     22 C          -5.5433    3.2429   19.4824 C.ar    1  UNL1        0.0000
     23 S           4.0080   -2.2258   18.7747 S.O2    1  UNL1        0.0054
     24 O           3.4473   -2.7382   20.0682 O.2     1  UNL1       -0.1689
     25 O           4.5687   -1.7134   17.4812 O.2     1  UNL1       -0.1689
     26 C           4.1511   -4.8155   18.9266 C.3     1  UNL1        0.0276
     27 C           4.7896   -3.4955   18.6105 C.3     1  UNL1        0.1556
@<TRIPOS>BOND
     1    26    27    1
     2    27    23    1
     3    23    24    2
     4    23    25    2
     5    23     1    1
     6     1     2    2
     7     2     3    1
     8     3     4    2
     9     4     5    1
    10     5     6    2
    11     6    10    1
    12    10    11   ar
    13    11    12   ar
    14    12    17    1
    15    17    18   ar
    16    18    19   ar
    17    19    20   ar
    18    20    21   ar
    19    21    22   ar
    20    12    13   ar
    21    13    14   ar
    22    14    15   ar
    23    15    16    1
    24     6     7    1
    25     7     8    2
    26     8     9    1
    27     9     1    1
    28     8     4    1
    29    15    10   ar
    30    22    17   ar
@<TRIPOS>MOLECULE
*****
 27 30 0 0 0
SMALL
GASTEIGER

@<TRIPOS>ATOM
      1 C           3.1603   -0.7674   18.9938 C.2     1  UNL1        0.0919
      2 C           3.7073    0.4522   18.3131 C.2     1  UNL1        0.0183
      3 C           2.9515    1.7465   18.3719 C.2     1  UNL1        0.0511
      4 C           1.6486    1.8212   19.1113 C.2     1  UNL1        0.2322
      5 N           0.6872    2.9498   19.3392 N.2     1  UNL1       -0.0308
      6 C          -0.4541    2.4278   20.1608 C.2     1  UNL1        0.3760
      7 N          -0.1980    0.9765   20.4406 N.2     1  UNL1       -0.0347
      8 C           1.1015    0.6017   19.7920 C.2     1  UNL1        0.2191
      9 C           1.8574   -0.6926   19.7332 C.3     1  UNL1        0.1226
     10 C          -1.6428    3.2182   20.6217 C.ar    1  UNL1        0.0989
     11 C          -1.9970    3.2593   22.0786 C.ar    1  UNL1        0.0085
     12 C          -3.1856    4.0497   22.5395 C.ar    1  UNL1        0.0003
     13 C          -4.0200    4.7991   21.5434 C.ar    1  UNL1        0.0009
     14 C          -3.6657    4.7580   20.0864 C.ar    1  UNL1        0.0116
     15 C          -2.4771    3.9676   19.6255 C.ar    1  UNL1        0.0651
     16 CL         -2.1228    3.9265   18.1685 Cl      1  UNL1       -0.0820
     17 C          -3.5399    4.0908   23.9965 C.ar    1  UNL1        0.0000
     18 C          -4.8630    4.6478   24.4312 C.ar    1  UNL1        0.0000
     19 C          -5.2173    4.6889   25.8882 C.ar    1  UNL1        0.0000
     20 C          -4.2484    4.1729   26.9105 C.ar    1  UNL1        0.0000
     21 C          -2.9253    3.6158   26.4757 C.ar    1  UNL1        0.0000
     22 C          -2.5711    3.5748   25.0188 C.ar    1  UNL1        0.0000
     23 S           3.9161   -2.0617   18.9351 S.O2    1  UNL1        0.0054
     24 O           3.4046   -2.4223   20.2983 O.2     1  UNL1       -0.1689
     25 O           4.4276   -1.7011   17.5718 O.2     1  UNL1       -0.1689
     26 C           3.9388   -4.6589   18.9981 C.3     1  UNL1        0.0276
     27 C           4.6720   -3.3560   18.8763 C.3     1  UNL1        0.1556
@<TRIPOS>BOND
     1    26    27    1
     2    27    23    1
     3    23    24    2
     4    23    25    2
     5    23     1    1
     6     1     2    2
     7     2     3    1
     8     3     4    2
     9     4     5    1
    10     5     6    2
    11     6    10    1
    12    10    11   ar
    13    11    12   ar
    14    12    17    1
    15    17    18   ar
    16    18    19   ar
    17    19    20   ar
    18    20    21   ar
    19    21    22   ar
    20    12    13   ar
    21    13    14   ar
    22    14    15   ar
    23    15    16    1
    24     6     7    1
    25     7     8    2
    26     8     9    1
    27     9     1    1
    28     8     4    1
    29    15    10   ar
    30    22    17   ar
@<TRIPOS>MOLECULE
*****
 27 30 0 0 0
SMALL
GASTEIGER

@<TRIPOS>ATOM
      1 C          -5.0992    4.6817   24.4278 C.2     1  UNL1        0.0919
      2 C          -6.0431    4.2178   23.3583 C.2     1  UNL1        0.0183
      3 C          -5.5075    3.5861   22.1077 C.2     1  UNL1        0.0511
      4 C          -4.0280    3.4183   21.9265 C.2     1  UNL1        0.2322
      5 N          -3.2132    2.8360   20.8098 N.2     1  UNL1       -0.0308
      6 C          -1.7657    2.9400   21.1891 C.2     1  UNL1        0.3760
      7 N          -1.6859    3.5866   22.5402 N.2     1  UNL1       -0.0347
      8 C          -3.0841    3.8822   22.9959 C.2     1  UNL1        0.2191
      9 C          -3.6197    4.5139   24.2466 C.3     1  UNL1        0.1226
     10 C          -0.6022    2.4784   20.3624 C.ar    1  UNL1        0.0989
     11 C           0.2530    1.3422   20.8396 C.ar    1  UNL1        0.0085
     12 C           1.4164    0.8806   20.0129 C.ar    1  UNL1        0.0003
     13 C           1.7246    1.5552   18.7092 C.ar    1  UNL1        0.0009
     14 C           0.8694    2.6914   18.2320 C.ar    1  UNL1        0.0116
     15 C          -0.2940    3.1530   19.0586 C.ar    1  UNL1        0.0651
     16 CL         -1.1492    4.2892   18.5815 Cl      1  UNL1       -0.0820
     17 C           2.2716   -0.2556   20.4901 C.ar    1  UNL1        0.0000
     18 C           2.7178   -1.3147   19.5262 C.ar    1  UNL1        0.0000
     19 C           3.5730   -2.4509   20.0033 C.ar    1  UNL1        0.0000
     20 C           3.9821   -2.5280   21.4444 C.ar    1  UNL1        0.0000
     21 C           3.5359   -1.4689   22.4083 C.ar    1  UNL1        0.0000
     22 C           2.6807   -0.3327   21.9311 C.ar    1  UNL1        0.0000
     23 S          -5.6348    5.3134   25.6784 S.O2    1  UNL1        0.0054
     24 O          -6.1881    6.4481   24.8683 O.2     1  UNL1       -0.1689
     25 O          -5.0815    4.1786   26.4885 O.2     1  UNL1       -0.1689
     26 C          -7.5418    6.5526   26.9344 C.3     1  UNL1        0.0276
     27 C          -6.1704    5.9450   26.9291 C.3     1  UNL1        0.1556
@<TRIPOS>BOND
     1    26    27    1
     2    27    23    1
     3    23    24    2
     4    23    25    2
     5    23     1    1
     6     1     2    2
     7     2     3    1
     8     3     4    2
     9     4     5    1
    10     5     6    2
    11     6    10    1
    12    10    11   ar
    13    11    12   ar
    14    12    17    1
    15    17    18   ar
    16    18    19   ar
    17    19    20   ar
    18    20    21   ar
    19    21    22   ar
    20    12    13   ar
    21    13    14   ar
    22    14    15   ar
    23    15    16    1
    24     6     7    1
    25     7     8    2
    26     8     9    1
    27     9     1    1
    28     8     4    1
    29    15    10   ar
    30    22    17   ar
@<TRIPOS>MOLECULE
*****
 27 30 0 0 0
SMALL
GASTEIGER

@<TRIPOS>ATOM
      1 C          -3.9915    3.8656   20.5645 C.2     1  UNL1        0.0919
      2 C          -4.0923    4.3838   19.1605 C.2     1  UNL1        0.0183
      3 C          -2.9221    4.2617   18.2301 C.2     1  UNL1        0.0511
      4 C          -1.6510    3.6214   18.7037 C.2     1  UNL1        0.2322
      5 N          -0.3416    3.3629   18.0191 N.2     1  UNL1       -0.0308
      6 C           0.5685    2.6849   19.0000 C.2     1  UNL1        0.3760
      7 N          -0.1784    2.5244   20.2909 N.2     1  UNL1       -0.0347
      8 C          -1.5502    3.1032   20.1077 C.2     1  UNL1        0.2191
      9 C          -2.7204    3.2253   21.0381 C.3     1  UNL1        0.1226
     10 C           1.9780    2.2447   18.7363 C.ar    1  UNL1        0.0989
     11 C           2.3407    0.7924   18.8328 C.ar    1  UNL1        0.0085
     12 C           3.7501    0.3522   18.5691 C.ar    1  UNL1        0.0003
     13 C           4.7969    1.3643   18.2089 C.ar    1  UNL1        0.0009
     14 C           4.4343    2.8166   18.1123 C.ar    1  UNL1        0.0116
     15 C           3.0248    3.2568   18.3760 C.ar    1  UNL1        0.0651
     16 CL          2.6622    4.7091   18.2795 Cl      1  UNL1       -0.0820
     17 C           4.1128   -1.1001   18.6657 C.ar    1  UNL1        0.0000
     18 C           5.3610   -1.6068   18.0061 C.ar    1  UNL1        0.0000
     19 C           5.7237   -3.0591   18.1027 C.ar    1  UNL1        0.0000
     20 C           4.8381   -4.0046   18.8588 C.ar    1  UNL1        0.0000
     21 C           3.5899   -3.4979   19.5183 C.ar    1  UNL1        0.0000
     22 C           3.2272   -2.0456   19.4218 C.ar    1  UNL1        0.0000
     23 S          -5.1617    3.9877   21.4948 S.O2    1  UNL1        0.0054
     24 O          -5.4858    5.3309   20.9110 O.2     1  UNL1       -0.1689
     25 O          -4.8377    2.6445   22.0787 O.2     1  UNL1       -0.1689
     26 C          -6.1119    4.4747   23.8634 C.3     1  UNL1        0.0276
     27 C          -6.3320    4.1098   22.4252 C.3     1  UNL1        0.1556
@<TRIPOS>BOND
     1    26    27    1
     2    27    23    1
     3    23    24    2
     4    23    25    2
     5    23     1    1
     6     1     2    2
     7     2     3    1
     8     3     4    2
     9     4     5    1
    10     5     6    2
    11     6    10    1
    12    10    11   ar
    13    11    12   ar
    14    12    17    1
    15    17    18   ar
    16    18    19   ar
    17    19    20   ar
    18    20    21   ar
    19    21    22   ar
    20    12    13   ar
    21    13    14   ar
    22    14    15   ar
    23    15    16    1
    24     6     7    1
    25     7     8    2
    26     8     9    1
    27     9     1    1
    28     8     4    1
    29    15    10   ar
    30    22    17   ar
@<TRIPOS>MOLECULE
*****
 27 30 0 0 0
SMALL
GASTEIGER

@<TRIPOS>ATOM
      1 C         -15.5219    2.0071   18.9188 C.2     1  UNL1        0.0919
      2 C         -16.4987    1.5803   19.9741 C.2     1  UNL1        0.0183
      3 C         -16.5401    0.1497   20.4232 C.2     1  UNL1        0.0511
      4 C         -15.6047   -0.8541   19.8170 C.2     1  UNL1        0.2322
      5 N         -15.4156   -2.3226   20.0568 N.2     1  UNL1       -0.0308
      6 C         -14.3220   -2.8034   19.1498 C.2     1  UNL1        0.3760
      7 N         -13.8351   -1.6320   18.3493 N.2     1  UNL1       -0.0347
      8 C         -14.6279   -0.4272   18.7617 C.2     1  UNL1        0.2191
      9 C         -14.5865    1.0034   18.3126 C.3     1  UNL1        0.1226
     10 C         -13.8058   -4.2090   19.0591 C.ar    1  UNL1        0.0989
     11 C         -14.7667   -5.3604   19.0306 C.ar    1  UNL1        0.0085
     12 C         -14.2506   -6.7659   18.9399 C.ar    1  UNL1        0.0003
     13 C         -12.7736   -7.0199   18.8778 C.ar    1  UNL1        0.0009
     14 C         -11.8127   -5.8684   18.9062 C.ar    1  UNL1        0.0116
     15 C         -12.3288   -4.4630   18.9969 C.ar    1  UNL1        0.0651
     16 CL        -11.3679   -3.3115   19.0254 Cl      1  UNL1       -0.0820
     17 C         -15.2115   -7.9173   18.9114 C.ar    1  UNL1        0.0000
     18 C         -14.8654   -9.1644   18.1532 C.ar    1  UNL1        0.0000
     19 C         -15.8263  -10.3159   18.1247 C.ar    1  UNL1        0.0000
     20 C         -17.1333  -10.2203   18.8545 C.ar    1  UNL1        0.0000
     21 C         -17.4794   -8.9732   19.6127 C.ar    1  UNL1        0.0000
     22 C         -16.5185   -7.8217   19.6412 C.ar    1  UNL1        0.0000
     23 S         -15.4806    3.4377   18.4697 S.O2    1  UNL1        0.0054
     24 O         -16.8917    3.6267   18.9418 O.2     1  UNL1       -0.1689
     25 O         -14.0694    3.2487   17.9976 O.2     1  UNL1       -0.1689
     26 C         -14.1200    5.5499   17.8084 C.3     1  UNL1        0.0276
     27 C         -15.4392    4.8683   18.0206 C.3     1  UNL1        0.1556
@<TRIPOS>BOND
     1    26    27    1
     2    27    23    1
     3    23    24    2
     4    23    25    2
     5    23     1    1
     6     1     2    2
     7     2     3    1
     8     3     4    2
     9     4     5    1
    10     5     6    2
    11     6    10    1
    12    10    11   ar
    13    11    12   ar
    14    12    17    1
    15    17    18   ar
    16    18    19   ar
    17    19    20   ar
    18    20    21   ar
    19    21    22   ar
    20    12    13   ar
    21    13    14   ar
    22    14    15   ar
    23    15    16    1
    24     6     7    1
    25     7     8    2
    26     8     9    1
    27     9     1    1
    28     8     4    1
    29    15    10   ar
    30    22    17   ar
@<TRIPOS>MOLECULE
*****
 27 30 0 0 0
SMALL
GASTEIGER

@<TRIPOS>ATOM
      1 C           1.7891    0.6613   19.6525 C.2     1  UNL1        0.0919
      2 C           2.1186    0.3255   18.2282 C.2     1  UNL1        0.0183
      3 C           3.2812   -0.5702   17.9185 C.2     1  UNL1        0.0511
      4 C           4.1145   -1.1301   19.0330 C.2     1  UNL1        0.2322
      5 N           5.3122   -2.0331   19.0348 N.2     1  UNL1       -0.0308
      6 C           5.7230   -2.2553   20.4603 C.2     1  UNL1        0.3760
      7 N           4.7792   -1.4897   21.3394 N.2     1  UNL1       -0.0347
      8 C           3.7850   -0.7942   20.4573 C.2     1  UNL1        0.2191
      9 C           2.6224    0.1015   20.7670 C.3     1  UNL1        0.1226
     10 C           6.8754   -3.0957   20.9249 C.ar    1  UNL1        0.0989
     11 C           6.7489   -3.9176   22.1734 C.ar    1  UNL1        0.0085
     12 C           7.9012   -4.7579   22.6380 C.ar    1  UNL1        0.0003
     13 C           9.1800   -4.7765   21.8542 C.ar    1  UNL1        0.0009
     14 C           9.3064   -3.9547   20.6058 C.ar    1  UNL1        0.0116
     15 C           8.1542   -3.1143   20.1411 C.ar    1  UNL1        0.0651
     16 CL          8.2806   -2.2925   18.8927 Cl      1  UNL1       -0.0820
     17 C           7.7747   -5.5798   23.8865 C.ar    1  UNL1        0.0000
     18 C           8.3916   -6.9455   23.9511 C.ar    1  UNL1        0.0000
     19 C           8.2651   -7.7673   25.1995 C.ar    1  UNL1        0.0000
     20 C           7.5217   -7.2234   26.3833 C.ar    1  UNL1        0.0000
     21 C           6.9049   -5.8577   26.3188 C.ar    1  UNL1        0.0000
     22 C           7.0314   -5.0359   25.0703 C.ar    1  UNL1        0.0000
     23 S           0.6265    1.5570   19.9622 S.O2    1  UNL1        0.0054
     24 O          -0.1388    0.3806   20.4917 O.2     1  UNL1       -0.1689
     25 O           1.3917    2.7335   19.4327 O.2     1  UNL1       -0.1689
     26 C          -0.8300    2.8363   21.6920 C.3     1  UNL1        0.0276
     27 C          -0.5362    2.4527   20.2720 C.3     1  UNL1        0.1556
@<TRIPOS>BOND
     1    26    27    1
     2    27    23    1
     3    23    24    2
     4    23    25    2
     5    23     1    1
     6     1     2    2
     7     2     3    1
     8     3     4    2
     9     4     5    1
    10     5     6    2
    11     6    10    1
    12    10    11   ar
    13    11    12   ar
    14    12    17    1
    15    17    18   ar
    16    18    19   ar
    17    19    20   ar
    18    20    21   ar
    19    21    22   ar
    20    12    13   ar
    21    13    14   ar
    22    14    15   ar
    23    15    16    1
    24     6     7    1
    25     7     8    2
    26     8     9    1
    27     9     1    1
    28     8     4    1
    29    15    10   ar
    30    22    17   ar
@<TRIPOS>MOLECULE
*****
 27 30 0 0 0
SMALL
GASTEIGER

@<TRIPOS>ATOM
      1 C           7.9289   -6.0567   26.6142 C.2     1  UNL1        0.0919
      2 C           7.5519   -4.7644   27.2759 C.2     1  UNL1        0.0183
      3 C           7.0897   -3.6036   26.4459 C.2     1  UNL1        0.0511
      4 C           7.0045   -3.7350   24.9542 C.2     1  UNL1        0.2322
      5 N           6.5874   -2.7705   23.8838 N.2     1  UNL1       -0.0308
      6 C           6.7066   -3.4666   22.5604 C.2     1  UNL1        0.3760
      7 N           7.1974   -4.8614   22.8129 N.2     1  UNL1       -0.0347
      8 C           7.3814   -5.0273   24.2924 C.2     1  UNL1        0.2191
      9 C           7.8436   -6.1881   25.1224 C.3     1  UNL1        0.1226
     10 C           6.3906   -2.8723   21.2199 C.ar    1  UNL1        0.0989
     11 C           5.0986   -2.1395   21.0102 C.ar    1  UNL1        0.0085
     12 C           4.7825   -1.5452   19.6698 C.ar    1  UNL1        0.0003
     13 C           5.7584   -1.6836   18.5391 C.ar    1  UNL1        0.0009
     14 C           7.0503   -2.4164   18.7488 C.ar    1  UNL1        0.0116
     15 C           7.3664   -3.0107   20.0892 C.ar    1  UNL1        0.0651
     16 CL          8.6583   -3.7435   20.2989 Cl      1  UNL1       -0.0820
     17 C           3.4906   -0.8124   19.4600 C.ar    1  UNL1        0.0000
     18 C           3.4127    0.2976   18.4542 C.ar    1  UNL1        0.0000
     19 C           2.1208    1.0304   18.2445 C.ar    1  UNL1        0.0000
     20 C           0.9068    0.6531   19.0406 C.ar    1  UNL1        0.0000
     21 C           0.9847   -0.4569   20.0464 C.ar    1  UNL1        0.0000
     22 C           2.2766   -1.1896   20.2562 C.ar    1  UNL1        0.0000
     23 S           8.3911   -7.2175   27.4442 S.O2    1  UNL1        0.0054
     24 O           8.9472   -7.8744   26.2157 O.2     1  UNL1       -0.1689
     25 O           7.8349   -6.5605   28.6726 O.2     1  UNL1       -0.1689
     26 C           9.2340   -9.6692   27.6121 C.3     1  UNL1        0.0276
     27 C           8.8533   -8.3783   28.2742 C.3     1  UNL1        0.1556
@<TRIPOS>BOND
     1    26    27    1
     2    27    23    1
     3    23    24    2
     4    23    25    2
     5    23     1    1
     6     1     2    2
     7     2     3    1
     8     3     4    2
     9     4     5    1
    10     5     6    2
    11     6    10    1
    12    10    11   ar
    13    11    12   ar
    14    12    17    1
    15    17    18   ar
    16    18    19   ar
    17    19    20   ar
    18    20    21   ar
    19    21    22   ar
    20    12    13   ar
    21    13    14   ar
    22    14    15   ar
    23    15    16    1
    24     6     7    1
    25     7     8    2
    26     8     9    1
    27     9     1    1
    28     8     4    1
    29    15    10   ar
    30    22    17   ar
