@<TRIPOS>MOLECULE
*****
 27 29 0 0 0
SMALL
GASTEIGER

@<TRIPOS>ATOM
      1 C          -7.2123  -15.3649   24.2651 C.ar    1  UNL1        0.0186
      2 C          -8.2516  -15.1583   25.3268 C.ar    1  UNL1        0.0105
      3 C          -7.8661  -15.2176   26.7753 C.ar    1  UNL1        0.0576
      4 CL         -8.9054  -15.0109   27.8370 Cl      1  UNL1       -0.0823
      5 C          -6.4415  -15.4835   27.1620 C.ar    1  UNL1        0.0145
      6 C          -5.4022  -15.6902   26.1003 C.ar    1  UNL1        0.0375
      7 C          -5.7876  -15.6309   24.6519 C.ar    1  UNL1        0.1354
      8 C          -7.5977  -15.3056   22.8167 C.3     1  UNL1        0.0751
      9 CA        -10.5311  -17.3188   21.0582 C.ar    1  UNL1        0.0948
     10 C          -9.9212  -18.6861   20.9664 C.ar    1  UNL1        0.0203
     11 C          -8.5368  -18.9266   21.4913 C.ar    1  UNL1        0.0028
     12 C          -7.7623  -17.7998   22.1081 C.ar    1  UNL1        0.0151
     13 C          -8.3722  -16.4325   22.1999 C.ar    1  UNL1        0.0635
     14 N          -9.7566  -16.1920   21.6750 N.ar    1  UNL1       -0.2482
     15 O         -12.1270  -16.1522   19.3723 O.co2   1  UNL1       -0.5430
     16 C         -11.9155  -17.0782   20.5332 C.2     1  UNL1        0.0905
     17 OXT       -13.0883  -17.7637   21.1691 O.co2   1  UNL1       -0.5430
     18 O          -4.7483  -15.8375   23.5902 O.3     1  UNL1       -0.4709
     19 C          -4.0174  -17.1443   23.5004 C.3     1  UNL1        0.2328
     20 C          -3.0753  -17.4000   22.3615 C.ar    1  UNL1        0.0318
     21 C          -2.1421  -16.3188   21.9030 C.ar    1  UNL1        0.0010
     22 C          -1.1999  -16.5745   20.7641 C.ar    1  UNL1        0.0112
     23 C          -1.1910  -17.9113   20.0838 C.ar    1  UNL1        0.0585
     24 CL         -0.2488  -18.1669   18.9449 Cl      1  UNL1       -0.0822
     25 C          -2.1242  -18.9924   20.5423 C.ar    1  UNL1        0.0226
     26 C          -3.0663  -18.7367   21.6812 C.ar    1  UNL1        0.0580
     27 CL         -3.9996  -19.8179   22.1397 Cl      1  UNL1       -0.0824
@<TRIPOS>UNITY_ATOM_ATTR
17 1
charge -1
@<TRIPOS>BOND
     1    15    16   ar
     2    16    17   ar
     3    16     9    1
     4     9    10   ar
     5    10    11   ar
     6    11    12   ar
     7    12    13   ar
     8    13     8    1
     9     8     1    1
    10     1     2   ar
    11     2     3   ar
    12     3     4    1
    13     3     5   ar
    14     5     6   ar
    15     6     7   ar
    16     7    18    1
    17    18    19    1
    18    19    20    1
    19    20    21   ar
    20    21    22   ar
    21    22    23   ar
    22    23    24    1
    23    23    25   ar
    24    25    26   ar
    25    26    27    1
    26    13    14   ar
    27    14     9   ar
    28     7     1   ar
    29    26    20   ar
@<TRIPOS>MOLECULE
*****
 27 29 0 0 0
SMALL
GASTEIGER

@<TRIPOS>ATOM
      1 C          -8.5714  -17.4516   24.1183 C.ar    1  UNL1        0.0186
      2 C          -8.9290  -16.7767   25.4093 C.ar    1  UNL1        0.0105
      3 C          -8.0916  -15.6414   25.9191 C.ar    1  UNL1        0.0576
      4 CL         -8.4492  -14.9665   27.2102 Cl      1  UNL1       -0.0823
      5 C          -6.8967  -15.1810   25.1380 C.ar    1  UNL1        0.0145
      6 C          -6.5391  -15.8558   23.8470 C.ar    1  UNL1        0.0375
      7 C          -7.3764  -16.9911   23.3371 C.ar    1  UNL1        0.1354
      8 C          -9.4087  -18.5869   23.6084 C.3     1  UNL1        0.0751
      9 CA        -11.0185  -17.2469   20.2375 C.ar    1  UNL1        0.0948
     10 C         -11.0057  -18.4928   19.4024 C.ar    1  UNL1        0.0203
     11 C         -10.4605  -19.7701   19.9692 C.ar    1  UNL1        0.0028
     12 C          -9.9282  -19.8015   21.3712 C.ar    1  UNL1        0.0151
     13 C          -9.9410  -18.5555   22.2063 C.ar    1  UNL1        0.0635
     14 N         -10.4862  -17.2782   21.6395 N.ar    1  UNL1       -0.2482
     15 O         -10.6382  -14.9782   19.0298 O.co2   1  UNL1       -0.5430
     16 C         -11.5636  -15.9696   19.6706 C.2     1  UNL1        0.0905
     17 OXT       -13.0342  -15.6836   19.7446 O.co2   1  UNL1       -0.5430
     18 O          -7.0188  -17.6660   22.0461 O.3     1  UNL1       -0.4709
     19 C          -6.0994  -18.8511   22.0489 C.3     1  UNL1        0.2328
     20 C          -4.7275  -18.7375   21.4530 C.ar    1  UNL1        0.0318
     21 C          -4.5056  -19.0822   20.0101 C.ar    1  UNL1        0.0010
     22 C          -3.1338  -18.9685   19.4143 C.ar    1  UNL1        0.0112
     23 C          -1.9838  -18.5101   20.2612 C.ar    1  UNL1        0.0585
     24 CL         -0.6120  -18.3965   19.6653 Cl      1  UNL1       -0.0822
     25 C          -2.2057  -18.1654   21.7041 C.ar    1  UNL1        0.0226
     26 C          -3.5776  -18.2791   22.3000 C.ar    1  UNL1        0.0580
     27 CL         -3.7994  -17.9343   23.7429 Cl      1  UNL1       -0.0824
@<TRIPOS>UNITY_ATOM_ATTR
17 1
charge -1
@<TRIPOS>BOND
     1    15    16   ar
     2    16    17   ar
     3    16     9    1
     4     9    10   ar
     5    10    11   ar
     6    11    12   ar
     7    12    13   ar
     8    13     8    1
     9     8     1    1
    10     1     2   ar
    11     2     3   ar
    12     3     4    1
    13     3     5   ar
    14     5     6   ar
    15     6     7   ar
    16     7    18    1
    17    18    19    1
    18    19    20    1
    19    20    21   ar
    20    21    22   ar
    21    22    23   ar
    22    23    24    1
    23    23    25   ar
    24    25    26   ar
    25    26    27    1
    26    13    14   ar
    27    14     9   ar
    28     7     1   ar
    29    26    20   ar
@<TRIPOS>MOLECULE
*****
 27 29 0 0 0
SMALL
GASTEIGER

@<TRIPOS>ATOM
      1 C          -7.4670  -15.5111   24.3234 C.ar    1  UNL1        0.0186
      2 C          -8.4342  -15.2478   25.4393 C.ar    1  UNL1        0.0105
      3 C          -7.9432  -15.1691   26.8545 C.ar    1  UNL1        0.0576
      4 CL         -8.9105  -14.9058   27.9703 Cl      1  UNL1       -0.0823
      5 C          -6.4851  -15.3536   27.1538 C.ar    1  UNL1        0.0145
      6 C          -5.5178  -15.6169   26.0379 C.ar    1  UNL1        0.0375
      7 C          -6.0087  -15.6956   24.6228 C.ar    1  UNL1        0.1354
      8 C          -7.9579  -15.5898   22.9082 C.3     1  UNL1        0.0751
      9 CA         -8.6069  -18.9359   20.8754 C.ar    1  UNL1        0.0948
     10 C          -9.9431  -19.3444   21.4209 C.ar    1  UNL1        0.0203
     11 C         -10.6176  -18.5014   22.4622 C.ar    1  UNL1        0.0028
     12 C          -9.9559  -17.2499   22.9580 C.ar    1  UNL1        0.0151
     13 C          -8.6197  -16.8414   22.4125 C.ar    1  UNL1        0.0635
     14 N          -7.9452  -17.6844   21.3711 N.ar    1  UNL1       -0.2482
     15 O          -8.6306  -20.0730   18.5395 O.co2   1  UNL1       -0.5430
     16 C          -7.9324  -19.7790   19.8341 C.2     1  UNL1        0.0905
     17 OXT        -6.5597  -20.3280   20.0873 O.co2   1  UNL1       -0.5430
     18 O          -5.0415  -15.9589   23.5069 O.3     1  UNL1       -0.4709
     19 C          -4.1576  -17.1700   23.5506 C.3     1  UNL1        0.2328
     20 C          -3.1604  -17.4106   22.4563 C.ar    1  UNL1        0.0318
     21 C          -2.2705  -16.2951   21.9940 C.ar    1  UNL1        0.0010
     22 C          -1.2732  -16.5357   20.8996 C.ar    1  UNL1        0.0112
     23 C          -1.1659  -17.8918   20.2676 C.ar    1  UNL1        0.0585
     24 CL         -0.1686  -18.1324   19.1732 Cl      1  UNL1       -0.0822
     25 C          -2.0557  -19.0072   20.7299 C.ar    1  UNL1        0.0226
     26 C          -3.0530  -18.7667   21.8242 C.ar    1  UNL1        0.0580
     27 CL         -3.9429  -19.8822   22.2865 Cl      1  UNL1       -0.0824
@<TRIPOS>UNITY_ATOM_ATTR
17 1
charge -1
@<TRIPOS>BOND
     1    15    16   ar
     2    16    17   ar
     3    16     9    1
     4     9    10   ar
     5    10    11   ar
     6    11    12   ar
     7    12    13   ar
     8    13     8    1
     9     8     1    1
    10     1     2   ar
    11     2     3   ar
    12     3     4    1
    13     3     5   ar
    14     5     6   ar
    15     6     7   ar
    16     7    18    1
    17    18    19    1
    18    19    20    1
    19    20    21   ar
    20    21    22   ar
    21    22    23   ar
    22    23    24    1
    23    23    25   ar
    24    25    26   ar
    25    26    27    1
    26    13    14   ar
    27    14     9   ar
    28     7     1   ar
    29    26    20   ar
@<TRIPOS>MOLECULE
*****
 27 29 0 0 0
SMALL
GASTEIGER

@<TRIPOS>ATOM
      1 C          -7.9873  -18.4261   22.8467 C.ar    1  UNL1        0.0186
      2 C          -7.2573  -17.1307   23.0442 C.ar    1  UNL1        0.0105
      3 C          -7.6523  -16.2096   24.1603 C.ar    1  UNL1        0.0576
      4 CL         -6.9223  -14.9142   24.3577 Cl      1  UNL1       -0.0823
      5 C          -8.7774  -16.5841   25.0790 C.ar    1  UNL1        0.0145
      6 C          -9.5075  -17.8794   24.8815 C.ar    1  UNL1        0.0375
      7 C          -9.1124  -18.8004   23.7655 C.ar    1  UNL1        0.1354
      8 C          -7.5923  -19.3471   21.7307 C.3     1  UNL1        0.0751
      9 CA         -3.7008  -18.6176   21.4575 C.ar    1  UNL1        0.0948
     10 C          -3.2644  -19.7391   20.5622 C.ar    1  UNL1        0.0203
     11 C          -4.2705  -20.7299   20.0563 C.ar    1  UNL1        0.0028
     12 C          -5.7131  -20.5992   20.4457 C.ar    1  UNL1        0.0151
     13 C          -6.1496  -19.4778   21.3411 C.ar    1  UNL1        0.0635
     14 N          -5.1434  -18.4869   21.8470 N.ar    1  UNL1       -0.2482
     15 O          -1.9757  -17.8810   23.2551 O.co2   1  UNL1       -0.5430
     16 C          -2.6947  -17.6268   21.9634 C.2     1  UNL1        0.0905
     17 OXT        -2.4075  -16.3817   21.1777 O.co2   1  UNL1       -0.5430
     18 O          -9.8425  -20.0958   23.5680 O.3     1  UNL1       -0.4709
     19 C         -11.0178  -20.1602   22.6383 C.3     1  UNL1        0.2328
     20 C         -11.3291  -18.9989   21.7414 C.ar    1  UNL1        0.0318
     21 C         -10.7159  -18.9214   20.3747 C.ar    1  UNL1        0.0010
     22 C         -11.0272  -17.7601   19.4777 C.ar    1  UNL1        0.0112
     23 C         -11.9517  -16.6764   19.9475 C.ar    1  UNL1        0.0585
     24 CL        -12.2630  -15.5151   19.0506 Cl      1  UNL1       -0.0822
     25 C         -12.5649  -16.7539   21.3142 C.ar    1  UNL1        0.0226
     26 C         -12.2536  -17.9152   22.2112 C.ar    1  UNL1        0.0580
     27 CL        -12.8668  -17.9926   23.5780 Cl      1  UNL1       -0.0824
@<TRIPOS>UNITY_ATOM_ATTR
17 1
charge -1
@<TRIPOS>BOND
     1    15    16   ar
     2    16    17   ar
     3    16     9    1
     4     9    10   ar
     5    10    11   ar
     6    11    12   ar
     7    12    13   ar
     8    13     8    1
     9     8     1    1
    10     1     2   ar
    11     2     3   ar
    12     3     4    1
    13     3     5   ar
    14     5     6   ar
    15     6     7   ar
    16     7    18    1
    17    18    19    1
    18    19    20    1
    19    20    21   ar
    20    21    22   ar
    21    22    23   ar
    22    23    24    1
    23    23    25   ar
    24    25    26   ar
    25    26    27    1
    26    13    14   ar
    27    14     9   ar
    28     7     1   ar
    29    26    20   ar
@<TRIPOS>MOLECULE
*****
 27 29 0 0 0
SMALL
GASTEIGER

@<TRIPOS>ATOM
      1 C          -3.3490  -18.2623   22.1552 C.ar    1  UNL1        0.0186
      2 C          -2.1255  -17.4825   21.7742 C.ar    1  UNL1        0.0105
      3 C          -1.5614  -17.6015   20.3894 C.ar    1  UNL1        0.0576
      4 CL         -0.3379  -16.8218   20.0085 Cl      1  UNL1       -0.0823
      5 C          -2.2206  -18.5003   19.3857 C.ar    1  UNL1        0.0145
      6 C          -3.4441  -19.2800   19.7666 C.ar    1  UNL1        0.0375
      7 C          -4.0083  -19.1611   21.1514 C.ar    1  UNL1        0.1354
      8 C          -3.9132  -18.1433   23.5399 C.3     1  UNL1        0.0751
      9 CA         -7.0934  -15.7919   23.2124 C.ar    1  UNL1        0.0948
     10 C          -6.9672  -14.9689   24.4601 C.ar    1  UNL1        0.0203
     11 C          -5.8229  -15.2041   25.4010 C.ar    1  UNL1        0.0028
     12 C          -4.8049  -16.2621   25.0943 C.ar    1  UNL1        0.0151
     13 C          -4.9312  -17.0851   23.8467 C.ar    1  UNL1        0.0635
     14 N          -6.0755  -16.8500   22.9057 N.ar    1  UNL1       -0.2482
     15 O          -9.5950  -16.1113   22.5878 O.co2   1  UNL1       -0.5430
     16 C          -8.2377  -15.5568   22.2714 C.2     1  UNL1        0.0905
     17 OXT        -8.0246  -14.7672   21.0140 O.co2   1  UNL1       -0.5430
     18 O          -5.2317  -19.9408   21.5323 O.3     1  UNL1       -0.4709
     19 C          -6.4171  -19.9724   20.6138 C.3     1  UNL1        0.2328
     20 C          -7.7935  -19.7263   21.1569 C.ar    1  UNL1        0.0318
     21 C          -8.0212  -19.6994   22.6393 C.ar    1  UNL1        0.0010
     22 C          -9.3976  -19.4533   23.1824 C.ar    1  UNL1        0.0112
     23 C         -10.5464  -19.2342   22.2431 C.ar    1  UNL1        0.0585
     24 CL        -11.9228  -18.9882   22.7862 Cl      1  UNL1       -0.0822
     25 C         -10.3187  -19.2612   20.7608 C.ar    1  UNL1        0.0226
     26 C          -8.9423  -19.5073   20.2177 C.ar    1  UNL1        0.0580
     27 CL         -8.7148  -19.5342   18.7352 Cl      1  UNL1       -0.0824
@<TRIPOS>UNITY_ATOM_ATTR
17 1
charge -1
@<TRIPOS>BOND
     1    15    16   ar
     2    16    17   ar
     3    16     9    1
     4     9    10   ar
     5    10    11   ar
     6    11    12   ar
     7    12    13   ar
     8    13     8    1
     9     8     1    1
    10     1     2   ar
    11     2     3   ar
    12     3     4    1
    13     3     5   ar
    14     5     6   ar
    15     6     7   ar
    16     7    18    1
    17    18    19    1
    18    19    20    1
    19    20    21   ar
    20    21    22   ar
    21    22    23   ar
    22    23    24    1
    23    23    25   ar
    24    25    26   ar
    25    26    27    1
    26    13    14   ar
    27    14     9   ar
    28     7     1   ar
    29    26    20   ar
@<TRIPOS>MOLECULE
*****
 27 29 0 0 0
SMALL
GASTEIGER

@<TRIPOS>ATOM
      1 C          -6.5674  -17.8427   22.6687 C.ar    1  UNL1        0.0186
      2 C          -6.0453  -17.0747   23.8467 C.ar    1  UNL1        0.0105
      3 C          -6.7280  -15.8114   24.2807 C.ar    1  UNL1        0.0576
      4 CL         -6.2059  -15.0434   25.4587 Cl      1  UNL1       -0.0823
      5 C          -7.9325  -15.3162   23.5366 C.ar    1  UNL1        0.0145
      6 C          -8.4546  -16.0842   22.3586 C.ar    1  UNL1        0.0375
      7 C          -7.7720  -17.3474   21.9247 C.ar    1  UNL1        0.1354
      8 C          -5.8848  -19.1059   22.2348 C.3     1  UNL1        0.0751
      9 CA         -2.4792  -17.9232   20.5755 C.ar    1  UNL1        0.0948
     10 C          -2.3504  -18.9133   19.4562 C.ar    1  UNL1        0.0203
     11 C          -3.3997  -19.9676   19.2630 C.ar    1  UNL1        0.0028
     12 C          -4.5779  -20.0319   20.1892 C.ar    1  UNL1        0.0151
     13 C          -4.7067  -19.0417   21.3085 C.ar    1  UNL1        0.0635
     14 N          -3.6573  -17.9874   21.5017 N.ar    1  UNL1       -0.2482
     15 O          -1.7282  -15.6576   21.6016 O.co2   1  UNL1       -0.5430
     16 C          -1.4299  -16.8689   20.7687 C.2     1  UNL1        0.0905
     17 OXT        -0.0823  -17.0258   20.1290 O.co2   1  UNL1       -0.5430
     18 O          -8.2941  -18.1154   20.7467 O.3     1  UNL1       -0.4709
     19 C          -9.3658  -19.1470   20.9392 C.3     1  UNL1        0.2328
     20 C         -10.5453  -18.8484   21.8164 C.ar    1  UNL1        0.0318
     21 C         -11.7180  -18.0931   21.2649 C.ar    1  UNL1        0.0010
     22 C         -12.8976  -17.7946   22.1421 C.ar    1  UNL1        0.0112
     23 C         -12.9044  -18.2513   23.5708 C.ar    1  UNL1        0.0585
     24 CL        -14.0840  -17.9528   24.4481 Cl      1  UNL1       -0.0822
     25 C         -11.7317  -19.0066   24.1223 C.ar    1  UNL1        0.0226
     26 C         -10.5522  -19.3052   23.2451 C.ar    1  UNL1        0.0580
     27 CL         -9.3794  -20.0606   23.7967 Cl      1  UNL1       -0.0824
@<TRIPOS>UNITY_ATOM_ATTR
17 1
charge -1
@<TRIPOS>BOND
     1    15    16   ar
     2    16    17   ar
     3    16     9    1
     4     9    10   ar
     5    10    11   ar
     6    11    12   ar
     7    12    13   ar
     8    13     8    1
     9     8     1    1
    10     1     2   ar
    11     2     3   ar
    12     3     4    1
    13     3     5   ar
    14     5     6   ar
    15     6     7   ar
    16     7    18    1
    17    18    19    1
    18    19    20    1
    19    20    21   ar
    20    21    22   ar
    21    22    23   ar
    22    23    24    1
    23    23    25   ar
    24    25    26   ar
    25    26    27    1
    26    13    14   ar
    27    14     9   ar
    28     7     1   ar
    29    26    20   ar
@<TRIPOS>MOLECULE
*****
 27 29 0 0 0
SMALL
GASTEIGER

@<TRIPOS>ATOM
      1 C          -5.7203  -15.7973   24.1566 C.ar    1  UNL1        0.0186
      2 C          -5.5561  -15.4627   25.6095 C.ar    1  UNL1        0.0105
      3 C          -6.7441  -15.4925   26.5249 C.ar    1  UNL1        0.0576
      4 CL         -6.5799  -15.1579   27.9778 Cl      1  UNL1       -0.0823
      5 C          -8.0962  -15.8570   25.9873 C.ar    1  UNL1        0.0145
      6 C          -8.2603  -16.1917   24.5344 C.ar    1  UNL1        0.0375
      7 C          -7.0724  -16.1618   23.6190 C.ar    1  UNL1        0.1354
      8 C          -4.5324  -15.7675   23.2412 C.3     1  UNL1        0.0751
      9 CA         -2.3986  -18.2791   21.0300 C.ar    1  UNL1        0.0948
     10 C          -2.9362  -19.5980   21.5006 C.ar    1  UNL1        0.0203
     11 C          -4.0058  -19.6401   22.5514 C.ar    1  UNL1        0.0028
     12 C          -4.5379  -18.3633   23.1315 C.ar    1  UNL1        0.0151
     13 C          -4.0003  -17.0444   22.6610 C.ar    1  UNL1        0.0635
     14 N          -2.9307  -17.0023   21.6102 N.ar    1  UNL1       -0.2482
     15 O          -1.7042  -18.2290   18.5270 O.co2   1  UNL1       -0.5430
     16 C          -1.3290  -18.2370   19.9793 C.2     1  UNL1        0.0905
     17 OXT         0.1159  -18.2029   20.3808 O.co2   1  UNL1       -0.5430
     18 O          -7.2366  -16.4965   22.1661 O.3     1  UNL1       -0.4709
     19 C          -8.1033  -17.6498   21.7553 C.3     1  UNL1        0.2328
     20 C          -9.5192  -17.7348   22.2431 C.ar    1  UNL1        0.0318
     21 C         -10.4908  -16.6386   21.9203 C.ar    1  UNL1        0.0010
     22 C         -11.9068  -16.7237   22.4080 C.ar    1  UNL1        0.0112
     23 C         -12.3511  -17.9050   23.2186 C.ar    1  UNL1        0.0585
     24 CL        -13.7670  -17.9901   23.7063 Cl      1  UNL1       -0.0822
     25 C         -11.3795  -19.0012   23.5414 C.ar    1  UNL1        0.0226
     26 C          -9.9636  -18.9162   23.0536 C.ar    1  UNL1        0.0580
     27 CL         -8.9920  -20.0125   23.3764 Cl      1  UNL1       -0.0824
@<TRIPOS>UNITY_ATOM_ATTR
17 1
charge -1
@<TRIPOS>BOND
     1    15    16   ar
     2    16    17   ar
     3    16     9    1
     4     9    10   ar
     5    10    11   ar
     6    11    12   ar
     7    12    13   ar
     8    13     8    1
     9     8     1    1
    10     1     2   ar
    11     2     3   ar
    12     3     4    1
    13     3     5   ar
    14     5     6   ar
    15     6     7   ar
    16     7    18    1
    17    18    19    1
    18    19    20    1
    19    20    21   ar
    20    21    22   ar
    21    22    23   ar
    22    23    24    1
    23    23    25   ar
    24    25    26   ar
    25    26    27    1
    26    13    14   ar
    27    14     9   ar
    28     7     1   ar
    29    26    20   ar
@<TRIPOS>MOLECULE
*****
 27 29 0 0 0
SMALL
GASTEIGER

@<TRIPOS>ATOM
      1 C          -6.4430  -17.5833   22.6641 C.ar    1  UNL1        0.0186
      2 C          -5.6385  -16.9698   23.7716 C.ar    1  UNL1        0.0105
      3 C          -6.1199  -15.7181   24.4436 C.ar    1  UNL1        0.0576
      4 CL         -5.3155  -15.1045   25.5511 Cl      1  UNL1       -0.0823
      5 C          -7.4057  -15.0800   24.0082 C.ar    1  UNL1        0.0145
      6 C          -8.2101  -15.6935   22.9007 C.ar    1  UNL1        0.0375
      7 C          -7.7288  -16.9452   22.2287 C.ar    1  UNL1        0.1354
      8 C          -5.9616  -18.8350   21.9921 C.3     1  UNL1        0.0751
      9 CA         -2.7751  -18.2675   19.6955 C.ar    1  UNL1        0.0948
     10 C          -1.7472  -19.0735   20.4328 C.ar    1  UNL1        0.0203
     11 C          -2.1240  -19.7999   21.6899 C.ar    1  UNL1        0.0028
     12 C          -3.5288  -19.7204   22.2097 C.ar    1  UNL1        0.0151
     13 C          -4.5567  -18.9145   21.4724 C.ar    1  UNL1        0.0635
     14 N          -4.1799  -18.1881   20.2153 N.ar    1  UNL1       -0.2482
     15 O          -1.1863  -17.9640   17.6624 O.co2   1  UNL1       -0.5430
     16 C          -2.3983  -17.5411   18.4384 C.2     1  UNL1        0.0905
     17 OXT        -3.2335  -16.3918   17.9573 O.co2   1  UNL1       -0.5430
     18 O          -8.5332  -17.5587   21.1212 O.3     1  UNL1       -0.4709
     19 C          -9.4055  -18.7473   21.3975 C.3     1  UNL1        0.2328
     20 C         -10.6103  -18.6045   22.2795 C.ar    1  UNL1        0.0318
     21 C         -10.5739  -19.1190   23.6880 C.ar    1  UNL1        0.0010
     22 C         -11.7787  -18.9762   24.5700 C.ar    1  UNL1        0.0112
     23 C         -13.0200  -18.3191   24.0435 C.ar    1  UNL1        0.0585
     24 CL        -14.2249  -18.1763   24.9255 Cl      1  UNL1       -0.0822
     25 C         -13.0565  -17.8046   22.6350 C.ar    1  UNL1        0.0226
     26 C         -11.8516  -17.9474   21.7530 C.ar    1  UNL1        0.0580
     27 CL        -11.8881  -17.4329   20.3444 Cl      1  UNL1       -0.0824
@<TRIPOS>UNITY_ATOM_ATTR
17 1
charge -1
@<TRIPOS>BOND
     1    15    16   ar
     2    16    17   ar
     3    16     9    1
     4     9    10   ar
     5    10    11   ar
     6    11    12   ar
     7    12    13   ar
     8    13     8    1
     9     8     1    1
    10     1     2   ar
    11     2     3   ar
    12     3     4    1
    13     3     5   ar
    14     5     6   ar
    15     6     7   ar
    16     7    18    1
    17    18    19    1
    18    19    20    1
    19    20    21   ar
    20    21    22   ar
    21    22    23   ar
    22    23    24    1
    23    23    25   ar
    24    25    26   ar
    25    26    27    1
    26    13    14   ar
    27    14     9   ar
    28     7     1   ar
    29    26    20   ar
@<TRIPOS>MOLECULE
*****
 27 29 0 0 0
SMALL
GASTEIGER

@<TRIPOS>ATOM
      1 C          -7.6255  -18.2772   22.7223 C.ar    1  UNL1        0.0186
      2 C          -7.0548  -16.9341   23.0695 C.ar    1  UNL1        0.0105
      3 C          -7.6763  -16.1147   24.1615 C.ar    1  UNL1        0.0576
      4 CL         -7.1056  -14.7717   24.5087 Cl      1  UNL1       -0.0823
      5 C          -8.8684  -16.6384   24.9062 C.ar    1  UNL1        0.0145
      6 C          -9.4391  -17.9814   24.5590 C.ar    1  UNL1        0.0375
      7 C          -8.8176  -18.8008   23.4670 C.ar    1  UNL1        0.1354
      8 C          -7.0041  -19.0966   21.6303 C.3     1  UNL1        0.0751
      9 CA         -3.4002  -18.4657   20.0926 C.ar    1  UNL1        0.0948
     10 C          -2.5338  -19.1390   21.1153 C.ar    1  UNL1        0.0203
     11 C          -3.1575  -19.7982   22.3097 C.ar    1  UNL1        0.0028
     12 C          -4.6475  -19.7840   22.4814 C.ar    1  UNL1        0.0151
     13 C          -5.5139  -19.1107   21.4587 C.ar    1  UNL1        0.0635
     14 N          -4.8903  -18.4516   20.2643 N.ar    1  UNL1       -0.2482
     15 O          -3.4612  -16.6458   18.2394 O.co2   1  UNL1       -0.5430
     16 C          -2.7766  -17.8065   18.8982 C.2     1  UNL1        0.0905
     17 OXT        -1.4683  -18.3081   18.3626 O.co2   1  UNL1       -0.5430
     18 O          -9.3883  -20.1438   23.1198 O.3     1  UNL1       -0.4709
     19 C         -10.6257  -20.2379   22.2772 C.3     1  UNL1        0.2328
     20 C         -11.1016  -19.0416   21.5075 C.ar    1  UNL1        0.0318
     21 C         -12.0258  -18.0529   22.1541 C.ar    1  UNL1        0.0010
     22 C         -12.5018  -16.8566   21.3845 C.ar    1  UNL1        0.0112
     23 C         -12.0535  -16.6490   19.9682 C.ar    1  UNL1        0.0585
     24 CL        -12.5295  -15.4527   19.1985 Cl      1  UNL1       -0.0822
     25 C         -11.1293  -17.6377   19.3215 C.ar    1  UNL1        0.0226
     26 C         -10.6534  -18.8340   20.0912 C.ar    1  UNL1        0.0580
     27 CL         -9.7291  -19.8228   19.4445 Cl      1  UNL1       -0.0824
@<TRIPOS>UNITY_ATOM_ATTR
17 1
charge -1
@<TRIPOS>BOND
     1    15    16   ar
     2    16    17   ar
     3    16     9    1
     4     9    10   ar
     5    10    11   ar
     6    11    12   ar
     7    12    13   ar
     8    13     8    1
     9     8     1    1
    10     1     2   ar
    11     2     3   ar
    12     3     4    1
    13     3     5   ar
    14     5     6   ar
    15     6     7   ar
    16     7    18    1
    17    18    19    1
    18    19    20    1
    19    20    21   ar
    20    21    22   ar
    21    22    23   ar
    22    23    24    1
    23    23    25   ar
    24    25    26   ar
    25    26    27    1
    26    13    14   ar
    27    14     9   ar
    28     7     1   ar
    29    26    20   ar
