@<TRIPOS>MOLECULE
*****
 55 59 0 0 0
SMALL
GASTEIGER

@<TRIPOS>ATOM
      1 C           1.8481    3.0302   27.3543 C.3     1  UNL1        0.2170
      2 C           3.1147    3.8236   27.4823 C.3     1  UNL1        0.0525
      3 C           3.6573    4.1563   28.8406 C.3     1  UNL1        0.0257
      4 C           2.9333    3.6956   30.0709 C.3     1  UNL1        0.0939
      5 N           1.6667    2.9022   29.9429 N.am    1  UNL1       -0.2737
      6 C           0.9427    2.4416   31.1732 C.2     1  UNL1        0.2506
      7 O          -0.3271    1.6451   31.2283 O.2     1  UNL1       -0.2699
      8 C           1.1242    2.5695   28.5846 C.3     1  UNL1        0.1230
      9 N           3.3254   -0.2612   23.3252 N.pl3   1  UNL1       -0.3017
     10 C           3.0023   -0.4717   24.7748 C.3     1  UNL1        0.1124
     11 C           2.6176    0.6955   25.6346 C.3     1  UNL1        0.1149
     12 N           2.5559    2.0734   25.0449 N.am    1  UNL1       -0.2732
     13 C           2.1712    3.2407   25.9048 C.2     1  UNL1        0.2636
     14 O           2.1095    4.6185   25.3150 O.2     1  UNL1       -0.2711
     15 C           2.8790    2.2839   23.5953 C.3     1  UNL1        0.1149
     16 C           3.2638    1.1166   22.7355 C.3     1  UNL1        0.1124
     17 C           3.3163   -1.4563   21.0183 C.ar    1  UNL1        0.1518
     18 C           3.7010   -2.6236   20.1585 C.ar    1  UNL1        0.0382
     19 C           4.4796   -3.7633   20.7458 C.ar    1  UNL1        0.0032
     20 C           4.8735   -3.7356   22.1928 C.ar    1  UNL1        0.0015
     21 C           4.4888   -2.5683   23.0526 C.ar    1  UNL1        0.0176
     22 C           3.7101   -1.4286   22.4653 C.ar    1  UNL1        0.0824
     23 O           2.5376   -0.3166   20.4310 O.3     1  UNL1       -0.4715
     24 C           1.0770   -0.4815   20.1319 C.3     1  UNL1        0.2374
     25 C           0.1695    0.7128   20.1440 C.3     1  UNL1        0.1894
     26 C          -0.4779    2.8518   21.4690 C.3     1  UNL1        0.1743
     27 O          -0.1693    1.3841   21.4420 O.3     1  UNL1       -0.3471
     28 C           1.4853    2.7743   32.5315 C.ar    1  UNL1        0.0766
     29 C           2.3852    1.8041   33.2379 C.ar    1  UNL1        0.1033
     30 N           2.9278    2.1369   34.5962 N.ar    1  UNL1       -0.2422
     31 C           2.5705    3.4397   35.2480 C.ar    1  UNL1        0.0988
     32 C           1.6706    4.4099   34.5416 C.ar    1  UNL1        0.0247
     33 C           1.1280    4.0772   33.1834 C.ar    1  UNL1        0.0788
     34 C           0.2282    5.0473   32.4769 C.3     1  UNL1        0.4188
     35 F          -0.6718    6.0174   31.7704 F       1  UNL1       -0.1659
     36 F          -0.9702    4.2744   32.9421 F       1  UNL1       -0.1659
     37 F           1.4265    5.8202   32.0117 F       1  UNL1       -0.1659
     38 O           0.6938    2.3099   26.7229 O.3     1  UNL1       -0.4723
     39 C          -0.4871    3.0842   26.2169 C.ar    1  UNL1        0.1390
     40 C          -0.8489    4.3968   26.8464 C.ar    1  UNL1        0.0369
     41 C          -2.0298    5.1711   26.3404 C.ar    1  UNL1        0.0070
     42 C          -2.8489    4.6327   25.2050 C.ar    1  UNL1        0.0716
     43 C          -2.4871    3.3202   24.5755 C.ar    1  UNL1        0.0070
     44 C          -1.3062    2.5459   25.0815 C.ar    1  UNL1        0.0369
     45 C          -4.0298    5.4071   24.6990 C.3     1  UNL1        0.4186
     46 F          -5.2106    6.1815   24.1931 F       1  UNL1       -0.1659
     47 F          -5.0222    4.2836   24.7534 F       1  UNL1       -0.1659
     48 F          -3.1749    6.6341   24.5821 F       1  UNL1       -0.1659
     49 C          -0.1425    1.7761   28.4566 C.3     1  UNL1        0.0557
     50 C          -0.0956    0.2773   28.4942 C.3     1  UNL1        0.1415
     51 O           1.1132   -0.5929   28.3166 O.3     1  UNL1       -0.3818
     52 H           0.8541   -1.5249   28.3886 H       1  UNL1        0.2104
     53 C          -1.3525   -0.5066   28.7300 C.3     1  UNL1        0.1663
     54 O          -2.2387    0.1068   29.7732 O.3     1  UNL1       -0.3795
     55 H          -1.7698    0.1315   30.6220 H       1  UNL1        0.2105
@<TRIPOS>BOND
     1    26    27    1
     2    27    25    1
     3    25    24    1
     4    24    23    1
     5    23    17    1
     6    17    18   ar
     7    18    19   ar
     8    19    20   ar
     9    20    21   ar
    10    21    22   ar
    11    22     9    1
    12     9    10    1
    13    10    11    1
    14    11    12    1
    15    12    13   am
    16    13    14    2
    17    13     1    1
    18     1    38    1
    19    38    39    1
    20    39    40   ar
    21    40    41   ar
    22    41    42   ar
    23    42    45    1
    24    45    46    1
    25    45    47    1
    26    45    48    1
    27    42    43   ar
    28    43    44   ar
    29     1     2    1
    30     2     3    1
    31     3     4    1
    32     4     5    1
    33     5     6   am
    34     6     7    2
    35     6    28    1
    36    28    29   ar
    37    29    30   ar
    38    30    31   ar
    39    31    32   ar
    40    32    33   ar
    41    33    34    1
    42    34    35    1
    43    34    36    1
    44    34    37    1
    45     5     8    1
    46     8    49    1
    47    49    50    1
    48    50    51    1
    49    50    53    1
    50    53    54    1
    51    12    15    1
    52    15    16    1
    53    22    17   ar
    54    16     9    1
    55     8     1    1
    56    44    39   ar
    57    33    28   ar
    58    51    52    1
    59    54    55    1
@<TRIPOS>MOLECULE
*****
 55 59 0 0 0
SMALL
GASTEIGER

@<TRIPOS>ATOM
      1 C           1.5546    3.3678   27.4346 C.3     1  UNL1        0.2170
      2 C           2.7274    4.2929   27.5711 C.3     1  UNL1        0.0525
      3 C           3.2708    4.6195   28.9306 C.3     1  UNL1        0.0257
      4 C           2.6413    4.0210   30.1535 C.3     1  UNL1        0.0939
      5 N           1.4684    3.0958   30.0170 N.am    1  UNL1       -0.2737
      6 C           0.8389    2.4973   31.2398 C.2     1  UNL1        0.2506
      7 O          -0.3312    1.5600   31.2861 O.2     1  UNL1       -0.2699
      8 C           0.9251    2.7693   28.6575 C.3     1  UNL1        0.1230
      9 N           2.9419    0.3954   23.1346 N.pl3   1  UNL1       -0.3017
     10 C           2.6892    0.0801   24.5792 C.3     1  UNL1        0.1124
     11 C           2.3110    1.1760   25.5310 C.3     1  UNL1        0.1149
     12 N           2.1854    2.5872   25.0383 N.am    1  UNL1       -0.2732
     13 C           1.8072    3.6831   25.9901 C.2     1  UNL1        0.2636
     14 O           1.6816    5.0942   25.4973 O.2     1  UNL1       -0.2711
     15 C           2.4381    2.9025   23.5937 C.3     1  UNL1        0.1149
     16 C           2.8163    1.8066   22.6419 C.3     1  UNL1        0.1124
     17 C           4.4922   -1.5861   22.4862 C.ar    1  UNL1        0.1518
     18 C           4.8703   -2.6819   21.5344 C.ar    1  UNL1        0.0382
     19 C           4.0765   -2.8923   20.2792 C.ar    1  UNL1        0.0032
     20 C           2.9044   -2.0068   19.9758 C.ar    1  UNL1        0.0015
     21 C           2.5262   -0.9109   20.9276 C.ar    1  UNL1        0.0176
     22 C           3.3201   -0.7005   22.1828 C.ar    1  UNL1        0.0824
     23 O           5.2861   -1.3757   23.7414 O.3     1  UNL1       -0.4715
     24 C           5.7210   -2.5548   24.5602 C.3     1  UNL1        0.2374
     25 C           5.9263   -2.4065   26.0386 C.3     1  UNL1        0.1894
     26 C           5.2387   -0.2823   27.3671 C.3     1  UNL1        0.1743
     27 O           4.9211   -1.6593   26.8641 O.3     1  UNL1       -0.3471
     28 C           1.3823    2.8239   32.5993 C.ar    1  UNL1        0.0766
     29 C           2.3066    1.8640   33.2880 C.ar    1  UNL1        0.1033
     30 N           2.8499    2.1905   34.6475 N.ar    1  UNL1       -0.2422
     31 C           2.4690    3.4770   35.3183 C.ar    1  UNL1        0.0988
     32 C           1.5447    4.4369   34.6295 C.ar    1  UNL1        0.0247
     33 C           1.0014    4.1104   33.2702 C.ar    1  UNL1        0.0788
     34 C           0.0771    5.0702   32.5814 C.3     1  UNL1        0.4188
     35 F          -0.8472    6.0302   31.8926 F       1  UNL1       -0.1659
     36 F           1.2487    5.9271   32.2032 F       1  UNL1       -0.1659
     37 F          -1.0946    4.2134   32.9596 F       1  UNL1       -0.1659
     38 O           0.4695    2.5523   26.7964 O.3     1  UNL1       -0.4723
     39 C          -0.7718    3.2230   26.2870 C.ar    1  UNL1        0.1390
     40 C          -1.4587    2.6982   25.0612 C.ar    1  UNL1        0.0369
     41 C          -2.7000    3.3689   24.5519 C.ar    1  UNL1        0.0070
     42 C          -3.2543    4.5644   25.2684 C.ar    1  UNL1        0.0716
     43 C          -2.5674    5.0892   26.4943 C.ar    1  UNL1        0.0070
     44 C          -1.3261    4.4185   27.0036 C.ar    1  UNL1        0.0369
     45 C          -4.4956    5.2351   24.7591 C.3     1  UNL1        0.4186
     46 F          -5.7368    5.9058   24.2496 F       1  UNL1       -0.1659
     47 F          -5.3701    4.9201   25.9363 F       1  UNL1       -0.1659
     48 F          -3.7670    5.6349   23.5103 F       1  UNL1       -0.1659
     49 C          -0.2478    1.8442   28.5210 C.3     1  UNL1        0.0557
     50 C          -0.0342    0.3595   28.5057 C.3     1  UNL1        0.1415
     51 O          -1.0636   -0.6980   28.2376 O.3     1  UNL1       -0.3818
     52 H          -0.6494   -1.5735   28.2913 H       1  UNL1        0.2104
     53 C           1.3285   -0.2049   28.7787 C.3     1  UNL1        0.1663
     54 O           1.4827   -0.7109   30.1824 O.3     1  UNL1       -0.3795
     55 H           1.3617    0.0225   30.8056 H       1  UNL1        0.2105
@<TRIPOS>BOND
     1    26    27    1
     2    27    25    1
     3    25    24    1
     4    24    23    1
     5    23    17    1
     6    17    18   ar
     7    18    19   ar
     8    19    20   ar
     9    20    21   ar
    10    21    22   ar
    11    22     9    1
    12     9    10    1
    13    10    11    1
    14    11    12    1
    15    12    13   am
    16    13    14    2
    17    13     1    1
    18     1    38    1
    19    38    39    1
    20    39    40   ar
    21    40    41   ar
    22    41    42   ar
    23    42    45    1
    24    45    46    1
    25    45    47    1
    26    45    48    1
    27    42    43   ar
    28    43    44   ar
    29     1     2    1
    30     2     3    1
    31     3     4    1
    32     4     5    1
    33     5     6   am
    34     6     7    2
    35     6    28    1
    36    28    29   ar
    37    29    30   ar
    38    30    31   ar
    39    31    32   ar
    40    32    33   ar
    41    33    34    1
    42    34    35    1
    43    34    36    1
    44    34    37    1
    45     5     8    1
    46     8    49    1
    47    49    50    1
    48    50    51    1
    49    50    53    1
    50    53    54    1
    51    12    15    1
    52    15    16    1
    53    22    17   ar
    54    16     9    1
    55     8     1    1
    56    44    39   ar
    57    33    28   ar
    58    51    52    1
    59    54    55    1
@<TRIPOS>MOLECULE
*****
 55 59 0 0 0
SMALL
GASTEIGER

@<TRIPOS>ATOM
      1 C           2.1755    3.0822   27.5434 C.3     1  UNL1        0.2170
      2 C           3.4111    3.9286   27.4614 C.3     1  UNL1        0.0525
      3 C           4.1363    4.3205   28.7147 C.3     1  UNL1        0.0257
      4 C           3.6258    3.8660   30.0499 C.3     1  UNL1        0.0939
      5 N           2.3900    3.0196   30.1319 N.am    1  UNL1       -0.2737
      6 C           1.8795    2.5651   31.4670 C.2     1  UNL1        0.2506
      7 O           0.6682    1.7207   31.7306 O.2     1  UNL1       -0.2699
      8 C           1.6650    2.6277   28.8786 C.3     1  UNL1        0.1230
      9 N           3.3239   -0.2274   23.4230 N.pl3   1  UNL1       -0.3017
     10 C           3.2313   -0.4099   24.9090 C.3     1  UNL1        0.1124
     11 C           2.8794    0.7541   25.7871 C.3     1  UNL1        0.1149
     12 N           2.6200    2.1007   25.1793 N.am    1  UNL1       -0.2732
     13 C           2.2680    3.2647   26.0575 C.2     1  UNL1        0.2636
     14 O           2.0087    4.6112   25.4496 O.2     1  UNL1       -0.2711
     15 C           2.7125    2.2833   23.6933 C.3     1  UNL1        0.1149
     16 C           3.0645    1.1192   22.8152 C.3     1  UNL1        0.1124
     17 C           3.3137   -1.3695   21.0894 C.ar    1  UNL1        0.1518
     18 C           3.6657   -2.5335   20.2113 C.ar    1  UNL1        0.0382
     19 C           4.3798   -3.7196   20.7887 C.ar    1  UNL1        0.0032
     20 C           4.7419   -3.7416   22.2441 C.ar    1  UNL1        0.0015
     21 C           4.3900   -2.5775   23.1222 C.ar    1  UNL1        0.0176
     22 C           3.6759   -1.3915   22.5448 C.ar    1  UNL1        0.0824
     23 O           2.5996   -0.1834   20.5120 O.3     1  UNL1       -0.4715
     24 C           1.1788   -0.3154   20.0497 C.3     1  UNL1        0.2374
     25 C           0.3690    0.9122   19.7546 C.3     1  UNL1        0.1894
     26 C          -0.3353    2.7152   21.4876 C.3     1  UNL1        0.1743
     27 O          -0.6088    1.4274   20.7688 O.3     1  UNL1       -0.3471
     28 C           2.6047    2.9571   32.7203 C.ar    1  UNL1        0.0766
     29 C           2.1919    4.1878   33.4719 C.ar    1  UNL1        0.1033
     30 N           2.9170    4.5797   34.7251 N.ar    1  UNL1       -0.2422
     31 C           4.0549    3.7410   35.2268 C.ar    1  UNL1        0.0988
     32 C           4.4676    2.5101   34.4751 C.ar    1  UNL1        0.0247
     33 C           3.7426    2.1182   33.2220 C.ar    1  UNL1        0.0788
     34 C           4.1553    0.8875   32.4704 C.3     1  UNL1        0.4188
     35 F           4.5680   -0.3432   31.7186 F       1  UNL1       -0.1659
     36 F           5.2035    1.6805   31.7475 F       1  UNL1       -0.1659
     37 F           3.1071    0.0945   33.1931 F       1  UNL1       -0.1659
     38 O           0.9720    2.2992   27.1093 O.3     1  UNL1       -0.4723
     39 C          -0.2346    3.0129   26.5754 C.ar    1  UNL1        0.1390
     40 C          -0.9698    2.4600   25.3907 C.ar    1  UNL1        0.0369
     41 C          -2.1764    3.1737   24.8569 C.ar    1  UNL1        0.0070
     42 C          -2.6475    4.4403   25.5078 C.ar    1  UNL1        0.0716
     43 C          -1.9123    4.9932   26.6925 C.ar    1  UNL1        0.0070
     44 C          -0.7057    4.2795   27.2264 C.ar    1  UNL1        0.0369
     45 C          -3.8540    5.1540   24.9739 C.3     1  UNL1        0.4186
     46 F          -5.0606    5.8676   24.4400 F       1  UNL1       -0.1659
     47 F          -3.3967    5.2453   23.5482 F       1  UNL1       -0.1659
     48 F          -4.4631    5.1497   26.3447 F       1  UNL1       -0.1659
     49 C           0.4292    1.7812   28.9606 C.3     1  UNL1        0.0557
     50 C           0.5334    0.2891   28.8474 C.3     1  UNL1        0.1415
     51 O          -0.5415   -0.6601   28.4076 O.3     1  UNL1       -0.3818
     52 H          -0.1998   -1.5677   28.4285 H       1  UNL1        0.2104
     53 C           1.8191   -0.4013   29.1940 C.3     1  UNL1        0.1663
     54 O           1.8088   -1.0042   30.5675 O.3     1  UNL1       -0.3795
     55 H           1.6895   -0.3033   31.2274 H       1  UNL1        0.2105
@<TRIPOS>BOND
     1    26    27    1
     2    27    25    1
     3    25    24    1
     4    24    23    1
     5    23    17    1
     6    17    18   ar
     7    18    19   ar
     8    19    20   ar
     9    20    21   ar
    10    21    22   ar
    11    22     9    1
    12     9    10    1
    13    10    11    1
    14    11    12    1
    15    12    13   am
    16    13    14    2
    17    13     1    1
    18     1    38    1
    19    38    39    1
    20    39    40   ar
    21    40    41   ar
    22    41    42   ar
    23    42    45    1
    24    45    46    1
    25    45    47    1
    26    45    48    1
    27    42    43   ar
    28    43    44   ar
    29     1     2    1
    30     2     3    1
    31     3     4    1
    32     4     5    1
    33     5     6   am
    34     6     7    2
    35     6    28    1
    36    28    29   ar
    37    29    30   ar
    38    30    31   ar
    39    31    32   ar
    40    32    33   ar
    41    33    34    1
    42    34    35    1
    43    34    36    1
    44    34    37    1
    45     5     8    1
    46     8    49    1
    47    49    50    1
    48    50    51    1
    49    50    53    1
    50    53    54    1
    51    12    15    1
    52    15    16    1
    53    22    17   ar
    54    16     9    1
    55     8     1    1
    56    44    39   ar
    57    33    28   ar
    58    51    52    1
    59    54    55    1
@<TRIPOS>MOLECULE
*****
 55 59 0 0 0
SMALL
GASTEIGER

@<TRIPOS>ATOM
      1 C           3.2580    2.3074   21.8932 C.3     1  UNL1        0.2170
      2 C           4.4465    3.2203   21.8300 C.3     1  UNL1        0.0525
      3 C           5.7916    2.6752   21.4509 C.3     1  UNL1        0.0257
      4 C           5.9481    1.2173   21.1350 C.3     1  UNL1        0.0939
      5 N           4.7594    0.3043   21.1981 N.am    1  UNL1       -0.2737
      6 C           4.9159   -1.1536   20.8822 C.2     1  UNL1        0.2506
      7 O           3.8419   -2.2006   20.8960 O.2     1  UNL1       -0.2699
      8 C           3.4145    0.8495   21.5773 C.3     1  UNL1        0.1230
      9 N          -0.2810    5.5969   19.4631 N.pl3   1  UNL1       -0.3017
     10 C           0.3663    4.2995   19.0789 C.3     1  UNL1        0.1124
     11 C           1.3302    3.6354   20.0170 C.3     1  UNL1        0.1149
     12 N           1.6468    4.2689   21.3394 N.am    1  UNL1       -0.2732
     13 C           2.6106    3.6049   22.2774 C.2     1  UNL1        0.2636
     14 O           2.9272    4.2383   23.5997 O.2     1  UNL1       -0.2711
     15 C           0.9994    5.5663   21.7236 C.3     1  UNL1        0.1149
     16 C           0.0355    6.2303   20.7855 C.3     1  UNL1        0.1124
     17 C          -2.7218    6.1394   18.7573 C.ar    1  UNL1        0.1518
     18 C          -3.6856    6.8034   17.8191 C.ar    1  UNL1        0.0382
     19 C          -3.1725    7.5889   16.6487 C.ar    1  UNL1        0.0032
     20 C          -1.6956    7.7103   16.4165 C.ar    1  UNL1        0.0015
     21 C          -0.7318    7.0463   17.3546 C.ar    1  UNL1        0.0176
     22 C          -1.2449    6.2609   18.5250 C.ar    1  UNL1        0.0824
     23 O          -3.2349    5.3540   19.9277 O.3     1  UNL1       -0.4715
     24 C          -3.4966    3.8837   19.7875 C.3     1  UNL1        0.2374
     25 C          -4.7521    3.2882   20.3522 C.3     1  UNL1        0.1894
     26 C          -4.8791    3.2550   22.9470 C.3     1  UNL1        0.1743
     27 O          -4.7066    2.5296   21.6455 O.3     1  UNL1       -0.3471
     28 C           6.2610   -1.6987   20.5031 C.ar    1  UNL1        0.0766
     29 C           7.2167   -2.1458   21.5692 C.ar    1  UNL1        0.1033
     30 N           8.5617   -2.6910   21.1901 N.ar    1  UNL1       -0.2422
     31 C           8.9511   -2.7890   19.7449 C.ar    1  UNL1        0.0988
     32 C           7.9953   -2.3418   18.6787 C.ar    1  UNL1        0.0247
     33 C           6.6504   -1.7967   19.0578 C.ar    1  UNL1        0.0788
     34 C           5.6946   -1.3496   17.9917 C.3     1  UNL1        0.4188
     35 F           4.7388   -0.9025   16.9255 F       1  UNL1       -0.1659
     36 F           5.1855   -2.7543   17.8589 F       1  UNL1       -0.1659
     37 F           6.2037    0.0551   18.1243 F       1  UNL1       -0.1659
     38 O           1.8446    1.8452   22.0898 O.3     1  UNL1       -0.4723
     39 C           1.2845    1.7133   23.4751 C.ar    1  UNL1        0.1390
     40 C           2.1213    1.1191   24.5690 C.ar    1  UNL1        0.0369
     41 C           1.5612    0.9872   25.9543 C.ar    1  UNL1        0.0070
     42 C           0.1643    1.4495   26.2456 C.ar    1  UNL1        0.0716
     43 C          -0.6725    2.0437   25.1517 C.ar    1  UNL1        0.0070
     44 C          -0.1124    2.1756   23.7664 C.ar    1  UNL1        0.0369
     45 C          -0.3957    1.3175   27.6308 C.3     1  UNL1        0.4186
     46 F          -0.9557    1.1855   29.0161 F       1  UNL1       -0.1659
     47 F          -1.6208    2.1553   27.4135 F       1  UNL1       -0.1659
     48 F           0.7698    0.4572   28.0200 F       1  UNL1       -0.1659
     49 C           2.2258   -0.0634   21.6404 C.3     1  UNL1        0.0557
     50 C           1.2453   -0.0976   20.5058 C.3     1  UNL1        0.1415
     51 O          -0.2502   -0.1549   20.6064 O.3     1  UNL1       -0.3818
     52 H          -0.6340   -0.1670   19.7156 H       1  UNL1        0.2104
     53 C           1.7369   -0.0749   19.0888 C.3     1  UNL1        0.1663
     54 O           0.8293    0.6828   18.1657 O.3     1  UNL1       -0.3795
     55 H          -0.0412    0.2552   18.1452 H       1  UNL1        0.2105
@<TRIPOS>BOND
     1    26    27    1
     2    27    25    1
     3    25    24    1
     4    24    23    1
     5    23    17    1
     6    17    18   ar
     7    18    19   ar
     8    19    20   ar
     9    20    21   ar
    10    21    22   ar
    11    22     9    1
    12     9    10    1
    13    10    11    1
    14    11    12    1
    15    12    13   am
    16    13    14    2
    17    13     1    1
    18     1    38    1
    19    38    39    1
    20    39    40   ar
    21    40    41   ar
    22    41    42   ar
    23    42    45    1
    24    45    46    1
    25    45    47    1
    26    45    48    1
    27    42    43   ar
    28    43    44   ar
    29     1     2    1
    30     2     3    1
    31     3     4    1
    32     4     5    1
    33     5     6   am
    34     6     7    2
    35     6    28    1
    36    28    29   ar
    37    29    30   ar
    38    30    31   ar
    39    31    32   ar
    40    32    33   ar
    41    33    34    1
    42    34    35    1
    43    34    36    1
    44    34    37    1
    45     5     8    1
    46     8    49    1
    47    49    50    1
    48    50    51    1
    49    50    53    1
    50    53    54    1
    51    12    15    1
    52    15    16    1
    53    22    17   ar
    54    16     9    1
    55     8     1    1
    56    44    39   ar
    57    33    28   ar
    58    51    52    1
    59    54    55    1
@<TRIPOS>MOLECULE
*****
 55 59 0 0 0
SMALL
GASTEIGER

@<TRIPOS>ATOM
      1 C           0.7870    4.3787   27.2057 C.3     1  UNL1        0.2170
      2 C           1.7467    5.5057   27.4479 C.3     1  UNL1        0.0525
      3 C           2.4607    5.6133   28.7627 C.3     1  UNL1        0.0257
      4 C           2.2150    4.5939   29.8352 C.3     1  UNL1        0.0939
      5 N           1.2552    3.4668   29.5930 N.am    1  UNL1       -0.2737
      6 C           1.0094    2.4474   30.6655 C.2     1  UNL1        0.2506
      7 O           0.0898    1.2646   30.5930 O.2     1  UNL1       -0.2699
      8 C           0.5412    3.3593   28.2782 C.3     1  UNL1        0.1230
      9 N           1.6327    2.9126   22.0690 N.pl3   1  UNL1       -0.3017
     10 C           1.7323    2.1984   23.3843 C.3     1  UNL1        0.1124
     11 C           1.4172    2.9252   24.6581 C.3     1  UNL1        0.1149
     12 N           1.0025    4.3662   24.6166 N.am    1  UNL1       -0.2732
     13 C           0.6874    5.0929   25.8904 C.2     1  UNL1        0.2636
     14 O           0.2727    6.5338   25.8489 O.2     1  UNL1       -0.2711
     15 C           0.9029    5.0804   23.3013 C.3     1  UNL1        0.1149
     16 C           1.2181    4.3535   22.0275 C.3     1  UNL1        0.1124
     17 C           0.8501    1.5178   20.0216 C.ar    1  UNL1        0.1518
     18 C           1.1652    0.7910   18.7479 C.ar    1  UNL1        0.0382
     19 C           2.5782    0.7323   18.2477 C.ar    1  UNL1        0.0032
     20 C           3.6760    1.4004   19.0214 C.ar    1  UNL1        0.0015
     21 C           3.3608    2.1271   20.2951 C.ar    1  UNL1        0.0176
     22 C           1.9479    2.1858   20.7952 C.ar    1  UNL1        0.0824
     23 O          -0.5629    1.5765   20.5218 O.3     1  UNL1       -0.4715
     24 C          -1.4200    2.7673   20.2099 C.3     1  UNL1        0.2374
     25 C          -2.3389    3.3246   21.2563 C.3     1  UNL1        0.1894
     26 C          -4.8724    3.8833   21.3954 C.3     1  UNL1        0.1743
     27 O          -3.7677    2.8717   21.3179 O.3     1  UNL1       -0.3471
     28 C           1.7234    2.5549   31.9803 C.ar    1  UNL1        0.0766
     29 C           1.1632    3.4211   33.0693 C.ar    1  UNL1        0.1033
     30 N           1.8772    3.5287   34.3841 N.ar    1  UNL1       -0.2422
     31 C           3.1513    2.7701   34.6099 C.ar    1  UNL1        0.0988
     32 C           3.7116    1.9039   33.5208 C.ar    1  UNL1        0.0247
     33 C           2.9977    1.7964   32.2061 C.ar    1  UNL1        0.0788
     34 C           3.5578    0.9302   31.1171 C.3     1  UNL1        0.4188
     35 F           4.1181    0.0641   30.0279 F       1  UNL1       -0.1659
     36 F           4.3489    2.0943   30.5982 F       1  UNL1       -0.1659
     37 F           2.7668   -0.2338   31.6359 F       1  UNL1       -0.1659
     38 O          -0.2073    3.4997   26.5066 O.3     1  UNL1       -0.4723
     39 C          -1.6279    3.9542   26.3464 C.ar    1  UNL1        0.1390
     40 C          -2.4672    3.4117   25.2279 C.ar    1  UNL1        0.0369
     41 C          -3.8878    3.8662   25.0676 C.ar    1  UNL1        0.0070
     42 C          -4.4688    4.8632   26.0260 C.ar    1  UNL1        0.0716
     43 C          -3.6295    5.4057   27.1445 C.ar    1  UNL1        0.0070
     44 C          -2.2089    4.9512   27.3047 C.ar    1  UNL1        0.0369
     45 C          -5.8893    5.3176   25.8657 C.3     1  UNL1        0.4186
     46 F          -7.3098    5.7721   25.7053 F       1  UNL1       -0.1659
     47 F          -6.1635    5.5767   27.3175 F       1  UNL1       -0.1659
     48 F          -5.7876    5.1124   24.3832 F       1  UNL1       -0.1659
     49 C          -0.4186    2.2322   28.0359 C.3     1  UNL1        0.0557
     50 C           0.0958    0.8345   27.8570 C.3     1  UNL1        0.1415
     51 O          -0.6731   -0.4406   28.0386 O.3     1  UNL1       -0.3818
     52 H          -0.0929   -1.1966   27.8577 H       1  UNL1        0.2104
     53 C           1.5224    0.6063   27.4538 C.3     1  UNL1        0.1663
     54 O           2.0498   -0.7271   27.8943 O.3     1  UNL1       -0.3795
     55 H           2.0287   -0.7792   28.8627 H       1  UNL1        0.2105
@<TRIPOS>BOND
     1    26    27    1
     2    27    25    1
     3    25    24    1
     4    24    23    1
     5    23    17    1
     6    17    18   ar
     7    18    19   ar
     8    19    20   ar
     9    20    21   ar
    10    21    22   ar
    11    22     9    1
    12     9    10    1
    13    10    11    1
    14    11    12    1
    15    12    13   am
    16    13    14    2
    17    13     1    1
    18     1    38    1
    19    38    39    1
    20    39    40   ar
    21    40    41   ar
    22    41    42   ar
    23    42    45    1
    24    45    46    1
    25    45    47    1
    26    45    48    1
    27    42    43   ar
    28    43    44   ar
    29     1     2    1
    30     2     3    1
    31     3     4    1
    32     4     5    1
    33     5     6   am
    34     6     7    2
    35     6    28    1
    36    28    29   ar
    37    29    30   ar
    38    30    31   ar
    39    31    32   ar
    40    32    33   ar
    41    33    34    1
    42    34    35    1
    43    34    36    1
    44    34    37    1
    45     5     8    1
    46     8    49    1
    47    49    50    1
    48    50    51    1
    49    50    53    1
    50    53    54    1
    51    12    15    1
    52    15    16    1
    53    22    17   ar
    54    16     9    1
    55     8     1    1
    56    44    39   ar
    57    33    28   ar
    58    51    52    1
    59    54    55    1
@<TRIPOS>MOLECULE
*****
 55 59 0 0 0
SMALL
GASTEIGER

@<TRIPOS>ATOM
      1 C           3.6453    1.3006   27.4742 C.3     1  UNL1        0.2170
      2 C           4.8865    2.1411   27.5276 C.3     1  UNL1        0.0525
      3 C           5.6735    2.2364   28.8011 C.3     1  UNL1        0.0257
      4 C           5.2193    1.4913   30.0210 C.3     1  UNL1        0.0939
      5 N           3.9779    0.6508   29.9676 N.am    1  UNL1       -0.2737
      6 C           3.5236   -0.0943   31.1876 C.2     1  UNL1        0.2506
      7 O           2.3151   -0.9742   31.3101 O.2     1  UNL1       -0.2699
      8 C           3.1910    0.5555   28.6942 C.3     1  UNL1        0.1230
      9 N           4.2798   -1.0349   22.6377 N.pl3   1  UNL1       -0.3017
     10 C           4.2535   -1.5503   24.0461 C.3     1  UNL1        0.1124
     11 C           4.0507   -0.6000   25.1888 C.3     1  UNL1        0.1149
     12 N           3.8744    0.8657   24.9231 N.am    1  UNL1       -0.2732
     13 C           3.6717    1.8160   26.0658 C.2     1  UNL1        0.2636
     14 O           3.4953    3.2817   25.8001 O.2     1  UNL1       -0.2711
     15 C           3.9008    1.3811   23.5147 C.3     1  UNL1        0.1149
     16 C           4.1035    0.4307   22.3719 C.3     1  UNL1        0.1124
     17 C           3.4445   -2.0954   20.4178 C.ar    1  UNL1        0.1518
     18 C           3.6473   -3.0458   19.2752 C.ar    1  UNL1        0.0382
     19 C           4.8881   -3.8860   19.2096 C.ar    1  UNL1        0.0032
     20 C           5.9262   -3.7759   20.2868 C.ar    1  UNL1        0.0015
     21 C           5.7234   -2.8255   21.4294 C.ar    1  UNL1        0.0176
     22 C           4.4826   -1.9853   21.4949 C.ar    1  UNL1        0.0824
     23 O           2.2036   -1.2552   20.4834 O.3     1  UNL1       -0.4715
     24 C           1.8343   -0.3716   19.3289 C.3     1  UNL1        0.2374
     25 C           2.7465    0.7461   18.9182 C.3     1  UNL1        0.1894
     26 C           3.7965   -0.5787   16.9453 C.3     1  UNL1        0.1743
     27 O           3.9091    0.4706   18.0112 O.3     1  UNL1       -0.3471
     28 C           4.3106    0.0011   32.4611 C.ar    1  UNL1        0.0766
     29 C           4.0004    1.0805   33.4554 C.ar    1  UNL1        0.1033
     30 N           4.7874    1.1758   34.7288 N.ar    1  UNL1       -0.2422
     31 C           5.8846    0.1918   35.0079 C.ar    1  UNL1        0.0988
     32 C           6.1948   -0.8876   34.0135 C.ar    1  UNL1        0.0247
     33 C           5.4079   -0.9829   32.7402 C.ar    1  UNL1        0.0788
     34 C           5.7181   -2.0622   31.7458 C.3     1  UNL1        0.4188
     35 F           6.0282   -3.1417   30.7514 F       1  UNL1       -0.1659
     36 F           4.7165   -2.9608   32.4086 F       1  UNL1       -0.1659
     37 F           6.7197   -1.1638   31.0829 F       1  UNL1       -0.1659
     38 O           2.4132    0.6392   26.9317 O.3     1  UNL1       -0.4723
     39 C           1.2288    1.4699   26.5351 C.ar    1  UNL1        0.1390
     40 C           0.8587    2.6806   27.3395 C.ar    1  UNL1        0.0369
     41 C          -0.3257    3.5113   26.9429 C.ar    1  UNL1        0.0070
     42 C          -1.1399    3.1312   25.7418 C.ar    1  UNL1        0.0716
     43 C          -0.7698    1.9205   24.9374 C.ar    1  UNL1        0.0070
     44 C           0.4146    1.0898   25.3340 C.ar    1  UNL1        0.0369
     45 C          -2.3242    3.9619   25.3453 C.3     1  UNL1        0.4186
     46 F          -3.5085    4.7928   24.9488 F       1  UNL1       -0.1659
     47 F          -2.7717    3.1065   24.1973 F       1  UNL1       -0.1659
     48 F          -2.0189    4.9260   26.4532 F       1  UNL1       -0.1659
     49 C           1.9496   -0.2850   28.6408 C.3     1  UNL1        0.0557
     50 C           0.7057    0.1690   29.3455 C.3     1  UNL1        0.1415
     51 O           0.6108    1.1837   30.4460 O.3     1  UNL1       -0.3818
     52 H          -0.3158    1.2827   30.7155 H       1  UNL1        0.2104
     53 C          -0.6252   -0.4083   28.9642 C.3     1  UNL1        0.1663
     54 O          -1.7807    0.4368   29.4124 O.3     1  UNL1       -0.3795
     55 H          -1.7785    0.5003   30.3803 H       1  UNL1        0.2105
@<TRIPOS>BOND
     1    26    27    1
     2    27    25    1
     3    25    24    1
     4    24    23    1
     5    23    17    1
     6    17    18   ar
     7    18    19   ar
     8    19    20   ar
     9    20    21   ar
    10    21    22   ar
    11    22     9    1
    12     9    10    1
    13    10    11    1
    14    11    12    1
    15    12    13   am
    16    13    14    2
    17    13     1    1
    18     1    38    1
    19    38    39    1
    20    39    40   ar
    21    40    41   ar
    22    41    42   ar
    23    42    45    1
    24    45    46    1
    25    45    47    1
    26    45    48    1
    27    42    43   ar
    28    43    44   ar
    29     1     2    1
    30     2     3    1
    31     3     4    1
    32     4     5    1
    33     5     6   am
    34     6     7    2
    35     6    28    1
    36    28    29   ar
    37    29    30   ar
    38    30    31   ar
    39    31    32   ar
    40    32    33   ar
    41    33    34    1
    42    34    35    1
    43    34    36    1
    44    34    37    1
    45     5     8    1
    46     8    49    1
    47    49    50    1
    48    50    51    1
    49    50    53    1
    50    53    54    1
    51    12    15    1
    52    15    16    1
    53    22    17   ar
    54    16     9    1
    55     8     1    1
    56    44    39   ar
    57    33    28   ar
    58    51    52    1
    59    54    55    1
@<TRIPOS>MOLECULE
*****
 55 59 0 0 0
SMALL
GASTEIGER

@<TRIPOS>ATOM
      1 C           1.6213    3.4839   27.5050 C.3     1  UNL1        0.2170
      2 C           2.7457    4.4755   27.5533 C.3     1  UNL1        0.0525
      3 C           3.3937    4.8114   28.8638 C.3     1  UNL1        0.0257
      4 C           2.9173    4.1557   30.1259 C.3     1  UNL1        0.0939
      5 N           1.7928    3.1641   30.0776 N.am    1  UNL1       -0.2737
      6 C           1.3164    2.5084   31.3397 C.2     1  UNL1        0.2506
      7 O           0.2124    1.5017   31.4729 O.2     1  UNL1       -0.2699
      8 C           1.1449    2.8282   28.7672 C.3     1  UNL1        0.1230
      9 N           2.9301    0.7106   23.0502 N.pl3   1  UNL1       -0.3017
     10 C           2.8323    0.3565   24.5045 C.3     1  UNL1        0.1124
     11 C           2.4287    1.3990   25.5047 C.3     1  UNL1        0.1149
     12 N           2.1227    2.7955   25.0505 N.am    1  UNL1       -0.2732
     13 C           1.7190    3.8379   26.0507 C.2     1  UNL1        0.2636
     14 O           1.4131    5.2343   25.5965 O.2     1  UNL1       -0.2711
     15 C           2.2204    3.1495   23.5962 C.3     1  UNL1        0.1149
     16 C           2.6241    2.1070   22.5960 C.3     1  UNL1        0.1124
     17 C           4.7076   -0.9316   22.1047 C.ar    1  UNL1        0.1518
     18 C           5.1112   -1.9740   21.1045 C.ar    1  UNL1        0.0382
     19 C           4.1410   -2.4168   20.0497 C.ar    1  UNL1        0.0032
     20 C           2.7672   -1.8172   19.9950 C.ar    1  UNL1        0.0015
     21 C           2.3636   -0.7748   20.9952 C.ar    1  UNL1        0.0176
     22 C           3.3338   -0.3319   22.0500 C.ar    1  UNL1        0.0824
     23 O           5.6778   -0.4888   23.1595 O.3     1  UNL1       -0.4715
     24 C           6.3520   -1.5052   24.0326 C.3     1  UNL1        0.2374
     25 C           5.5564   -2.2618   25.0546 C.3     1  UNL1        0.1894
     26 C           5.2621   -0.7563   27.1514 C.3     1  UNL1        0.1743
     27 O           5.7821   -2.0117   26.5163 O.3     1  UNL1       -0.3471
     28 C           1.9644    2.8443   32.6502 C.ar    1  UNL1        0.0766
     29 C           1.3547    3.8835   33.5438 C.ar    1  UNL1        0.1033
     30 N           2.0027    4.2194   34.8543 N.ar    1  UNL1       -0.2422
     31 C           3.2603    3.5162   35.2711 C.ar    1  UNL1        0.0988
     32 C           3.8700    2.4770   34.3775 C.ar    1  UNL1        0.0247
     33 C           3.2220    2.1411   33.0672 C.ar    1  UNL1        0.0788
     34 C           3.8317    1.1019   32.1736 C.3     1  UNL1        0.4188
     35 F           4.4413    0.0627   31.2799 F       1  UNL1       -0.1659
     36 F           2.8844    0.0757   32.7208 F       1  UNL1       -0.1659
     37 F           4.7790    2.1282   31.6263 F       1  UNL1       -0.1659
     38 O           0.5308    2.6152   26.9516 O.3     1  UNL1       -0.4723
     39 C          -0.7558    3.2310   26.4874 C.ar    1  UNL1        0.1390
     40 C          -1.3615    4.3697   27.2532 C.ar    1  UNL1        0.0369
     41 C          -2.6481    4.9855   26.7889 C.ar    1  UNL1        0.0070
     42 C          -3.3289    4.4626   25.5588 C.ar    1  UNL1        0.0716
     43 C          -2.7231    3.3240   24.7930 C.ar    1  UNL1        0.0070
     44 C          -1.4365    2.7082   25.2573 C.ar    1  UNL1        0.0369
     45 C          -4.6154    5.0785   25.0946 C.3     1  UNL1        0.4186
     46 F          -5.9020    5.6944   24.6304 F       1  UNL1       -0.1659
     47 F          -5.5269    3.9978   25.5959 F       1  UNL1       -0.1659
     48 F          -3.8551    6.2430   24.5325 F       1  UNL1       -0.1659
     49 C           0.0204    1.8365   28.7189 C.3     1  UNL1        0.0557
     50 C           0.3002    0.3754   28.9110 C.3     1  UNL1        0.1415
     51 O          -0.6720   -0.6803   29.3470 O.3     1  UNL1       -0.3818
     52 H          -0.2213   -1.5383   29.3873 H       1  UNL1        0.2104
     53 C           1.6771   -0.1639   28.6595 C.3     1  UNL1        0.1663
     54 O           2.1578   -1.0751   29.7498 O.3     1  UNL1       -0.3795
     55 H           2.2061   -0.5832   30.5844 H       1  UNL1        0.2105
@<TRIPOS>BOND
     1    26    27    1
     2    27    25    1
     3    25    24    1
     4    24    23    1
     5    23    17    1
     6    17    18   ar
     7    18    19   ar
     8    19    20   ar
     9    20    21   ar
    10    21    22   ar
    11    22     9    1
    12     9    10    1
    13    10    11    1
    14    11    12    1
    15    12    13   am
    16    13    14    2
    17    13     1    1
    18     1    38    1
    19    38    39    1
    20    39    40   ar
    21    40    41   ar
    22    41    42   ar
    23    42    45    1
    24    45    46    1
    25    45    47    1
    26    45    48    1
    27    42    43   ar
    28    43    44   ar
    29     1     2    1
    30     2     3    1
    31     3     4    1
    32     4     5    1
    33     5     6   am
    34     6     7    2
    35     6    28    1
    36    28    29   ar
    37    29    30   ar
    38    30    31   ar
    39    31    32   ar
    40    32    33   ar
    41    33    34    1
    42    34    35    1
    43    34    36    1
    44    34    37    1
    45     5     8    1
    46     8    49    1
    47    49    50    1
    48    50    51    1
    49    50    53    1
    50    53    54    1
    51    12    15    1
    52    15    16    1
    53    22    17   ar
    54    16     9    1
    55     8     1    1
    56    44    39   ar
    57    33    28   ar
    58    51    52    1
    59    54    55    1
@<TRIPOS>MOLECULE
*****
 55 59 0 0 0
SMALL
GASTEIGER

@<TRIPOS>ATOM
      1 C           0.2793    4.6249   26.9326 C.3     1  UNL1        0.2170
      2 C           0.9217    5.9331   27.2875 C.3     1  UNL1        0.0525
      3 C           1.5172    6.1311   28.6499 C.3     1  UNL1        0.0257
      4 C           1.4703    5.0209   29.6575 C.3     1  UNL1        0.0939
      5 N           0.8278    3.7126   29.3026 N.am    1  UNL1       -0.2737
      6 C           0.7808    2.6024   30.3101 C.2     1  UNL1        0.2506
      7 O           0.1818    1.2398   30.1247 O.2     1  UNL1       -0.2699
      8 C           0.2324    3.5147   27.9401 C.3     1  UNL1        0.1230
      9 N           2.3146    4.1186   21.9475 N.pl3   1  UNL1       -0.3017
     10 C           2.5149    3.3727   23.2334 C.3     1  UNL1        0.1124
     11 C           1.7697    3.7901   24.4664 C.3     1  UNL1        0.1149
     12 N           0.8242    4.9534   24.4136 N.am    1  UNL1       -0.2732
     13 C           0.0790    5.3708   25.6467 C.2     1  UNL1        0.2636
     14 O          -0.8664    6.5341   25.5938 O.2     1  UNL1       -0.2711
     15 C           0.6239    5.6993   23.1277 C.3     1  UNL1        0.1149
     16 C           1.3691    5.2818   21.8946 C.3     1  UNL1        0.1124
     17 C           2.4764    2.6647   19.8003 C.ar    1  UNL1        0.1518
     18 C           3.2217    2.2473   18.5673 C.ar    1  UNL1        0.0382
     19 C           4.5502    2.8663   18.2484 C.ar    1  UNL1        0.0032
     20 C           5.1336    3.9027   19.1624 C.ar    1  UNL1        0.0015
     21 C           4.3883    4.3201   20.3954 C.ar    1  UNL1        0.0176
     22 C           3.0598    3.7011   20.7144 C.ar    1  UNL1        0.0824
     23 O           1.1479    2.0457   20.1193 O.3     1  UNL1       -0.4715
     24 C           1.0855    0.7523   20.8764 C.3     1  UNL1        0.2374
     25 C           1.0406   -0.5501   20.1337 C.3     1  UNL1        0.1894
     26 C           3.5806   -0.9752   20.4769 C.3     1  UNL1        0.1743
     27 O           2.2000   -1.4986   20.2121 O.3     1  UNL1       -0.3471
     28 C           1.3763    2.8003   31.6726 C.ar    1  UNL1        0.0766
     29 C           0.6690    3.6534   32.6835 C.ar    1  UNL1        0.1033
     30 N           1.2644    3.8514   34.0459 N.ar    1  UNL1       -0.2422
     31 C           2.5672    3.1963   34.3975 C.ar    1  UNL1        0.0988
     32 C           3.2746    2.3431   33.3865 C.ar    1  UNL1        0.0247
     33 C           2.6791    2.1452   32.0242 C.ar    1  UNL1        0.0788
     34 C           3.3864    1.2922   31.0132 C.3     1  UNL1        0.4188
     35 F           4.0938    0.4391   30.0021 F       1  UNL1       -0.1659
     36 F           4.0713    2.5091   30.4656 F       1  UNL1       -0.1659
     37 F           2.7015    0.0752   31.5608 F       1  UNL1       -0.1659
     38 O          -0.4327    3.5758   26.1311 O.3     1  UNL1       -0.4723
     39 C          -1.8733    3.7657   25.7586 C.ar    1  UNL1        0.1390
     40 C          -2.3350    3.4550   24.3658 C.ar    1  UNL1        0.0369
     41 C          -3.7756    3.6449   23.9933 C.ar    1  UNL1        0.0070
     42 C          -4.7544    4.1456   25.0138 C.ar    1  UNL1        0.0716
     43 C          -4.2926    4.4563   26.4066 C.ar    1  UNL1        0.0070
     44 C          -2.8520    4.2664   26.7791 C.ar    1  UNL1        0.0369
     45 C          -6.1949    4.3354   24.6413 C.3     1  UNL1        0.4186
     46 F          -7.6355    4.5254   24.2688 F       1  UNL1       -0.1659
     47 F          -6.1522    3.5726   23.3505 F       1  UNL1       -0.1659
     48 F          -6.4149    5.1274   25.8961 F       1  UNL1       -0.1659
     49 C          -0.4101    2.2065   27.5852 C.3     1  UNL1        0.0557
     50 C           0.3454    1.1954   26.7746 C.3     1  UNL1        0.1415
     51 O          -0.0735    0.5913   25.4671 O.3     1  UNL1       -0.3818
     52 H           0.6054   -0.0332   25.1672 H       1  UNL1        0.2104
     53 C           1.6705    0.6853   27.2581 C.3     1  UNL1        0.1663
     54 O           1.5426   -0.4622   28.2158 O.3     1  UNL1       -0.3795
     55 H           1.0579   -0.1726   29.0045 H       1  UNL1        0.2105
@<TRIPOS>BOND
     1    26    27    1
     2    27    25    1
     3    25    24    1
     4    24    23    1
     5    23    17    1
     6    17    18   ar
     7    18    19   ar
     8    19    20   ar
     9    20    21   ar
    10    21    22   ar
    11    22     9    1
    12     9    10    1
    13    10    11    1
    14    11    12    1
    15    12    13   am
    16    13    14    2
    17    13     1    1
    18     1    38    1
    19    38    39    1
    20    39    40   ar
    21    40    41   ar
    22    41    42   ar
    23    42    45    1
    24    45    46    1
    25    45    47    1
    26    45    48    1
    27    42    43   ar
    28    43    44   ar
    29     1     2    1
    30     2     3    1
    31     3     4    1
    32     4     5    1
    33     5     6   am
    34     6     7    2
    35     6    28    1
    36    28    29   ar
    37    29    30   ar
    38    30    31   ar
    39    31    32   ar
    40    32    33   ar
    41    33    34    1
    42    34    35    1
    43    34    36    1
    44    34    37    1
    45     5     8    1
    46     8    49    1
    47    49    50    1
    48    50    51    1
    49    50    53    1
    50    53    54    1
    51    12    15    1
    52    15    16    1
    53    22    17   ar
    54    16     9    1
    55     8     1    1
    56    44    39   ar
    57    33    28   ar
    58    51    52    1
    59    54    55    1
@<TRIPOS>MOLECULE
*****
 55 59 0 0 0
SMALL
GASTEIGER

@<TRIPOS>ATOM
      1 C           2.1175    3.8306   22.9906 C.3     1  UNL1        0.2170
      2 C           1.3952    4.5247   21.8741 C.3     1  UNL1        0.0525
      3 C           1.5859    4.0670   20.4585 C.3     1  UNL1        0.0257
      4 C           2.4990    2.9152   20.1592 C.3     1  UNL1        0.0939
      5 N           3.2214    2.2210   21.2757 N.am    1  UNL1       -0.2737
      6 C           4.1344    1.0692   20.9765 C.2     1  UNL1        0.2506
      7 O           4.9290    0.2670   21.9639 O.2     1  UNL1       -0.2699
      8 C           3.0306    2.6788   22.6914 C.3     1  UNL1        0.1230
      9 N          -3.1282    5.0161   23.5626 N.pl3   1  UNL1       -0.3017
     10 C          -2.3751    3.9804   22.7814 C.3     1  UNL1        0.1124
     11 C          -0.8776    3.9305   22.8511 C.3     1  UNL1        0.1149
     12 N          -0.1331    4.9163   23.7020 N.am    1  UNL1       -0.2732
     13 C           1.3644    4.8663   23.7717 C.2     1  UNL1        0.2636
     14 O           2.1089    5.8521   24.6226 O.2     1  UNL1       -0.2711
     15 C          -0.8861    5.9520   24.4832 C.3     1  UNL1        0.1149
     16 C          -2.3837    6.0019   24.4135 C.3     1  UNL1        0.1124
     17 C          -5.4488    4.3729   24.5379 C.ar    1  UNL1        0.1518
     18 C          -6.9463    4.4229   24.4682 C.ar    1  UNL1        0.0382
     19 C          -7.6208    5.1659   23.3533 C.ar    1  UNL1        0.0032
     20 C          -6.7978    5.8590   22.3082 C.ar    1  UNL1        0.0015
     21 C          -5.3003    5.8091   22.3780 C.ar    1  UNL1        0.0176
     22 C          -4.6258    5.0660   23.4928 C.ar    1  UNL1        0.0824
     23 O          -4.7743    3.6299   25.6528 O.3     1  UNL1       -0.4715
     24 C          -4.2516    4.3772   26.8437 C.3     1  UNL1        0.2374
     25 C          -4.9098    5.6538   27.2762 C.3     1  UNL1        0.1894
     26 C          -7.2999    6.6450   27.5110 C.3     1  UNL1        0.1743
     27 O          -6.2746    5.6207   27.8978 O.3     1  UNL1       -0.3471
     28 C           4.3252    0.6115   19.5608 C.ar    1  UNL1        0.0766
     29 C           5.5393    1.0400   18.7912 C.ar    1  UNL1        0.1033
     30 N           5.7301    0.5823   17.3755 N.ar    1  UNL1       -0.2422
     31 C           4.7068   -0.3040   16.7295 C.ar    1  UNL1        0.0988
     32 C           3.4926   -0.7325   17.4992 C.ar    1  UNL1        0.0247
     33 C           3.3019   -0.2748   18.9148 C.ar    1  UNL1        0.0788
     34 C           2.0878   -0.7033   19.6844 C.3     1  UNL1        0.4188
     35 F           0.8737   -1.1318   20.4541 F       1  UNL1       -0.1659
     36 F           1.2677    0.3249   18.9633 F       1  UNL1       -0.1659
     37 F           2.9079   -1.7316   20.4057 F       1  UNL1       -0.1659
     38 O           2.5783    3.4962   24.3783 O.3     1  UNL1       -0.4723
     39 C           1.6481    2.8060   25.3315 C.ar    1  UNL1        0.1390
     40 C           1.6660    3.1635   26.7881 C.ar    1  UNL1        0.0369
     41 C           0.7358    2.4733   27.7413 C.ar    1  UNL1        0.0070
     42 C          -0.2121    1.4256   27.2377 C.ar    1  UNL1        0.0716
     43 C          -0.2300    1.0680   25.7811 C.ar    1  UNL1        0.0070
     44 C           0.7001    1.7583   24.8279 C.ar    1  UNL1        0.0369
     45 C          -1.1422    0.7354   28.1909 C.3     1  UNL1        0.4186
     46 F          -2.0724    0.0453   29.1441 F       1  UNL1       -0.1659
     47 F          -0.2363   -0.4099   28.5336 F       1  UNL1       -0.1659
     48 F          -2.1693    1.8046   27.9628 F       1  UNL1       -0.1659
     49 C           3.7529    1.9847   23.8079 C.3     1  UNL1        0.0557
     50 C           5.0837    2.4972   24.2732 C.3     1  UNL1        0.1415
     51 O           5.6349    3.8794   24.0846 O.3     1  UNL1       -0.3818
     52 H           6.5163    3.9335   24.4859 H       1  UNL1        0.2104
     53 C           6.0198    1.5890   25.0140 C.3     1  UNL1        0.1663
     54 O           6.8741    0.7584   24.1027 O.3     1  UNL1       -0.3795
     55 H           6.3082    0.1847   23.5628 H       1  UNL1        0.2105
@<TRIPOS>BOND
     1    26    27    1
     2    27    25    1
     3    25    24    1
     4    24    23    1
     5    23    17    1
     6    17    18   ar
     7    18    19   ar
     8    19    20   ar
     9    20    21   ar
    10    21    22   ar
    11    22     9    1
    12     9    10    1
    13    10    11    1
    14    11    12    1
    15    12    13   am
    16    13    14    2
    17    13     1    1
    18     1    38    1
    19    38    39    1
    20    39    40   ar
    21    40    41   ar
    22    41    42   ar
    23    42    45    1
    24    45    46    1
    25    45    47    1
    26    45    48    1
    27    42    43   ar
    28    43    44   ar
    29     1     2    1
    30     2     3    1
    31     3     4    1
    32     4     5    1
    33     5     6   am
    34     6     7    2
    35     6    28    1
    36    28    29   ar
    37    29    30   ar
    38    30    31   ar
    39    31    32   ar
    40    32    33   ar
    41    33    34    1
    42    34    35    1
    43    34    36    1
    44    34    37    1
    45     5     8    1
    46     8    49    1
    47    49    50    1
    48    50    51    1
    49    50    53    1
    50    53    54    1
    51    12    15    1
    52    15    16    1
    53    22    17   ar
    54    16     9    1
    55     8     1    1
    56    44    39   ar
    57    33    28   ar
    58    51    52    1
    59    54    55    1
