@<TRIPOS>MOLECULE
*****
 30 32 0 0 0
SMALL
GASTEIGER

@<TRIPOS>ATOM
      1 C          -8.1847  -17.3189   22.4398 C.2     1  UNL1        0.4125
      2 O          -6.7237  -16.9860   22.3723 O.2     1  UNL1       -0.2255
      3 N          -8.9609  -17.0377   23.6923 N.am    1  UNL1       -0.2037
      4 C         -10.4219  -17.3707   23.7598 C.ar    1  UNL1        0.0613
      5 C         -11.4165  -16.5382   23.0064 C.ar    1  UNL1        0.0162
      6 C         -12.8776  -16.8712   23.0740 C.ar    1  UNL1        0.0127
      7 C         -13.3439  -18.0366   23.8950 C.ar    1  UNL1        0.0578
      8 CL        -14.8049  -18.3696   23.9626 Cl      1  UNL1       -0.0822
      9 C         -12.3494  -18.8692   24.6485 C.ar    1  UNL1        0.0127
     10 C         -10.8884  -18.5362   24.5809 C.ar    1  UNL1        0.0162
     11 C          -8.2761  -16.4236   24.8771 C.ar    1  UNL1        0.0613
     12 C          -7.0810  -15.5394   24.6775 C.ar    1  UNL1        0.0153
     13 C          -6.3961  -14.9253   25.8623 C.ar    1  UNL1        0.0013
     14 C          -6.9063  -15.1954   27.2468 C.ar    1  UNL1        0.0001
     15 C          -8.1015  -16.0796   27.4464 C.ar    1  UNL1        0.0013
     16 C          -8.7863  -16.6938   26.2616 C.ar    1  UNL1        0.0153
     17 O          -8.8696  -17.9330   21.2550 O.3     1  UNL1       -0.4341
     18 C          -8.2632  -19.1227   20.5717 C.3     1  UNL1        0.2100
     19 C          -3.8352  -19.8696   20.8621 C.3     1  UNL1        0.0297
     20 C          -4.3920  -19.1045   19.6982 C.3     1  UNL1        0.0026
     21 C          -5.8680  -18.8556   19.6014 C.3     1  UNL1        0.0038
     22 C          -6.7872  -19.3717   20.6685 C.3     1  UNL1        0.0439
     23 C          -6.2304  -20.1367   21.8323 C.3     1  UNL1        0.0038
     24 C          -4.7544  -20.3857   21.9291 C.3     1  UNL1        0.0026
     25 C          -2.3591  -20.1185   20.9589 C.3     1  UNL1        0.1426
     26 O          -1.5250  -19.3198   21.9160 O.3     1  UNL1       -0.3478
     27 C          -2.0349  -18.0118   22.4443 C.3     1  UNL1        0.1835
     28 O          -2.8755  -15.6129   21.9068 O.co2   1  UNL1       -0.5466
     29 C          -2.0064  -16.7896   21.5750 C.2     1  UNL1        0.0801
     30 O          -1.1089  -16.7442   20.3741 O.co2   1  UNL1       -0.5466
@<TRIPOS>UNITY_ATOM_ATTR
28 1
charge -1
@<TRIPOS>BOND
     1    28    29   ar
     2    29    30   ar
     3    29    27    1
     4    27    26    1
     5    26    25    1
     6    19    25    1
     7    19    20    1
     8    20    21    1
     9    21    22    1
    10    22    18    1
    11    18    17    1
    12    17     1    1
    13     1     2    2
    14     1     3   am
    15     3    11    1
    16    11    12   ar
    17    12    13   ar
    18    13    14   ar
    19    14    15   ar
    20    15    16   ar
    21     3     4    1
    22     4     5   ar
    23     5     6   ar
    24     6     7   ar
    25     7     8    1
    26     7     9   ar
    27     9    10   ar
    28    22    23    1
    29    23    24    1
    30    24    19    1
    31    16    11   ar
    32    10     4   ar
@<TRIPOS>MOLECULE
*****
 30 32 0 0 0
SMALL
GASTEIGER

@<TRIPOS>ATOM
      1 C          -9.5981  -18.6260   21.4713 C.2     1  UNL1        0.4125
      2 O         -10.6442  -19.4090   20.7349 O.2     1  UNL1       -0.2255
      3 N          -9.9527  -17.9088   22.7402 N.am    1  UNL1       -0.2037
      4 C          -8.9066  -17.1258   23.4766 C.ar    1  UNL1        0.0613
      5 C          -7.8057  -16.4460   22.7177 C.ar    1  UNL1        0.0162
      6 C          -6.7595  -15.6630   23.4542 C.ar    1  UNL1        0.0127
      7 C          -6.8142  -15.5597   24.9496 C.ar    1  UNL1        0.0578
      8 CL         -5.7681  -14.7766   25.6860 Cl      1  UNL1       -0.0822
      9 C          -7.9151  -16.2395   25.7086 C.ar    1  UNL1        0.0127
     10 C          -8.9612  -17.0225   24.9721 C.ar    1  UNL1        0.0162
     11 C         -11.3535  -17.9748   23.2726 C.ar    1  UNL1        0.0613
     12 C         -11.6539  -18.7919   24.4941 C.ar    1  UNL1        0.0153
     13 C         -13.0547  -18.8579   25.0265 C.ar    1  UNL1        0.0013
     14 C         -14.1551  -18.1067   24.3374 C.ar    1  UNL1        0.0001
     15 C         -13.8547  -17.2896   23.1158 C.ar    1  UNL1        0.0013
     16 C         -12.4539  -17.2236   22.5834 C.ar    1  UNL1        0.0153
     17 O          -8.1973  -18.5600   20.9389 O.3     1  UNL1       -0.4341
     18 C          -7.3482  -19.7961   20.9066 C.3     1  UNL1        0.2100
     19 C          -2.8881  -19.4760   21.4115 C.3     1  UNL1        0.0297
     20 C          -3.4592  -20.2875   20.2866 C.3     1  UNL1        0.0026
     21 C          -4.9460  -20.3942   20.1184 C.3     1  UNL1        0.0038
     22 C          -5.8615  -19.6894   21.0749 C.3     1  UNL1        0.0439
     23 C          -5.2903  -18.8780   22.1997 C.3     1  UNL1        0.0038
     24 C          -3.8036  -18.7713   22.3680 C.3     1  UNL1        0.0026
     25 C          -1.4014  -19.3693   21.5797 C.3     1  UNL1        0.1426
     26 O          -0.5524  -18.8704   20.4483 O.3     1  UNL1       -0.3478
     27 C          -0.8776  -17.5644   19.7859 C.3     1  UNL1        0.1835
     28 O          -3.2380  -17.1220   18.7943 O.co2   1  UNL1       -0.5466
     29 C          -1.8069  -17.5314   18.6088 C.2     1  UNL1        0.0801
     30 O          -1.3051  -17.9079   17.2463 O.co2   1  UNL1       -0.5466
@<TRIPOS>UNITY_ATOM_ATTR
28 1
charge -1
@<TRIPOS>BOND
     1    28    29   ar
     2    29    30   ar
     3    29    27    1
     4    27    26    1
     5    26    25    1
     6    19    25    1
     7    19    20    1
     8    20    21    1
     9    21    22    1
    10    22    18    1
    11    18    17    1
    12    17     1    1
    13     1     2    2
    14     1     3   am
    15     3    11    1
    16    11    12   ar
    17    12    13   ar
    18    13    14   ar
    19    14    15   ar
    20    15    16   ar
    21     3     4    1
    22     4     5   ar
    23     5     6   ar
    24     6     7   ar
    25     7     8    1
    26     7     9   ar
    27     9    10   ar
    28    22    23    1
    29    23    24    1
    30    24    19    1
    31    16    11   ar
    32    10     4   ar
@<TRIPOS>MOLECULE
*****
 30 32 0 0 0
SMALL
GASTEIGER

@<TRIPOS>ATOM
      1 C         -10.1315  -18.3185   25.1314 C.2     1  UNL1        0.4125
      2 O          -9.5528  -18.7533   26.4452 O.2     1  UNL1       -0.2255
      3 N          -9.5700  -17.1207   24.4242 N.am    1  UNL1       -0.2037
      4 C         -10.1487  -16.6860   23.1104 C.ar    1  UNL1        0.0613
      5 C          -9.2407  -16.2575   21.9960 C.ar    1  UNL1        0.0162
      6 C          -9.8194  -15.8227   20.6821 C.ar    1  UNL1        0.0127
      7 C         -11.3060  -15.8164   20.4828 C.ar    1  UNL1        0.0578
      8 CL        -11.8847  -15.3817   19.1690 Cl      1  UNL1       -0.0822
      9 C         -12.2140  -16.2449   21.5972 C.ar    1  UNL1        0.0127
     10 C         -11.6354  -16.6797   22.9110 C.ar    1  UNL1        0.0162
     11 C          -8.4299  -16.3577   25.0309 C.ar    1  UNL1        0.0613
     12 C          -7.2190  -16.0369   24.2059 C.ar    1  UNL1        0.0153
     13 C          -6.0789  -15.2739   24.8126 C.ar    1  UNL1        0.0013
     14 C          -6.1497  -14.8317   26.2442 C.ar    1  UNL1        0.0001
     15 C          -7.3608  -15.1526   27.0692 C.ar    1  UNL1        0.0013
     16 C          -8.5009  -15.9156   26.4625 C.ar    1  UNL1        0.0153
     17 O         -11.2716  -19.0815   24.5248 O.3     1  UNL1       -0.4341
     18 C         -11.0060  -20.1135   23.4692 C.3     1  UNL1        0.2100
     19 C          -7.6379  -19.5245   20.5435 C.3     1  UNL1        0.0297
     20 C          -9.0608  -19.4272   20.0787 C.3     1  UNL1        0.0026
     21 C         -10.1834  -19.6235   21.0540 C.3     1  UNL1        0.0038
     22 C          -9.8833  -19.9172   22.4939 C.3     1  UNL1        0.0439
     23 C          -8.4605  -20.0145   22.9587 C.3     1  UNL1        0.0038
     24 C          -7.3378  -19.8182   21.9835 C.3     1  UNL1        0.0026
     25 C          -6.5153  -19.3282   19.5683 C.3     1  UNL1        0.1426
     26 O          -5.2157  -18.7381   20.0296 O.3     1  UNL1       -0.3478
     27 C          -3.9978  -19.6057   20.1472 C.3     1  UNL1        0.1835
     28 O          -4.0776  -19.5092   22.7423 O.co2   1  UNL1       -0.5466
     29 C          -3.3189  -19.7694   21.4748 C.2     1  UNL1        0.0801
     30 O          -1.8813  -20.1933   21.5348 O.co2   1  UNL1       -0.5466
@<TRIPOS>UNITY_ATOM_ATTR
28 1
charge -1
@<TRIPOS>BOND
     1    28    29   ar
     2    29    30   ar
     3    29    27    1
     4    27    26    1
     5    26    25    1
     6    19    25    1
     7    19    20    1
     8    20    21    1
     9    21    22    1
    10    22    18    1
    11    18    17    1
    12    17     1    1
    13     1     2    2
    14     1     3   am
    15     3    11    1
    16    11    12   ar
    17    12    13   ar
    18    13    14   ar
    19    14    15   ar
    20    15    16   ar
    21     3     4    1
    22     4     5   ar
    23     5     6   ar
    24     6     7   ar
    25     7     8    1
    26     7     9   ar
    27     9    10   ar
    28    22    23    1
    29    23    24    1
    30    24    19    1
    31    16    11   ar
    32    10     4   ar
@<TRIPOS>MOLECULE
*****
 30 32 0 0 0
SMALL
GASTEIGER

@<TRIPOS>ATOM
      1 C         -10.1353  -18.3811   25.0448 C.2     1  UNL1        0.4125
      2 O          -9.5843  -18.8417   26.3617 O.2     1  UNL1       -0.2255
      3 N          -9.5713  -17.1594   24.3818 N.am    1  UNL1       -0.2037
      4 C         -10.1223  -16.6988   23.0649 C.ar    1  UNL1        0.0613
      5 C         -11.6047  -16.6837   22.8361 C.ar    1  UNL1        0.0162
      6 C         -12.1556  -16.2230   21.5192 C.ar    1  UNL1        0.0127
      7 C         -11.2242  -15.7776   20.4311 C.ar    1  UNL1        0.0578
      8 CL        -11.7752  -15.3170   19.1142 Cl      1  UNL1       -0.0822
      9 C          -9.7418  -15.7927   20.6599 C.ar    1  UNL1        0.0127
     10 C          -9.1909  -16.2533   21.9767 C.ar    1  UNL1        0.0162
     11 C          -8.4564  -16.3983   25.0358 C.ar    1  UNL1        0.0613
     12 C          -8.5782  -15.9734   26.4692 C.ar    1  UNL1        0.0153
     13 C          -7.4633  -15.2123   27.1232 C.ar    1  UNL1        0.0013
     14 C          -6.2265  -14.8762   26.3438 C.ar    1  UNL1        0.0001
     15 C          -6.1046  -15.3012   24.9104 C.ar    1  UNL1        0.0013
     16 C          -7.2196  -16.0622   24.2564 C.ar    1  UNL1        0.0153
     17 O         -11.2502  -19.1422   24.3908 O.3     1  UNL1       -0.4341
     18 C         -10.9453  -20.1451   23.3179 C.3     1  UNL1        0.2100
     19 C          -7.4509  -19.4955   20.5580 C.3     1  UNL1        0.0297
     20 C          -7.2148  -19.8284   22.0014 C.3     1  UNL1        0.0026
     21 C          -8.3796  -20.0449   22.9213 C.3     1  UNL1        0.0038
     22 C          -9.7805  -19.9286   22.3979 C.3     1  UNL1        0.0439
     23 C         -10.0165  -19.5956   20.9545 C.3     1  UNL1        0.0038
     24 C          -8.8517  -19.3791   20.0346 C.3     1  UNL1        0.0026
     25 C          -6.2861  -19.2789   19.6380 C.3     1  UNL1        0.1426
     26 O          -5.0093  -18.6972   20.1686 O.3     1  UNL1       -0.3478
     27 C          -3.6962  -19.0885   19.5582 C.3     1  UNL1        0.1835
     28 O          -1.6268  -18.2060   18.2587 O.co2   1  UNL1       -0.5466
     29 C          -2.6187  -18.0612   19.3745 C.2     1  UNL1        0.0801
     30 O          -2.5332  -16.8891   20.3066 O.co2   1  UNL1       -0.5466
@<TRIPOS>UNITY_ATOM_ATTR
28 1
charge -1
@<TRIPOS>BOND
     1    28    29   ar
     2    29    30   ar
     3    29    27    1
     4    27    26    1
     5    26    25    1
     6    19    25    1
     7    19    20    1
     8    20    21    1
     9    21    22    1
    10    22    18    1
    11    18    17    1
    12    17     1    1
    13     1     2    2
    14     1     3   am
    15     3    11    1
    16    11    12   ar
    17    12    13   ar
    18    13    14   ar
    19    14    15   ar
    20    15    16   ar
    21     3     4    1
    22     4     5   ar
    23     5     6   ar
    24     6     7   ar
    25     7     8    1
    26     7     9   ar
    27     9    10   ar
    28    22    23    1
    29    23    24    1
    30    24    19    1
    31    16    11   ar
    32    10     4   ar
@<TRIPOS>MOLECULE
*****
 30 32 0 0 0
SMALL
GASTEIGER

@<TRIPOS>ATOM
      1 C          -9.3727  -20.0180   23.2576 C.2     1  UNL1        0.4125
      2 O          -8.5264  -20.9831   24.0336 O.2     1  UNL1       -0.2255
      3 N          -8.7866  -19.2735   22.0947 N.am    1  UNL1       -0.2037
      4 C          -9.6329  -18.3084   21.3186 C.ar    1  UNL1        0.0613
      5 C          -9.4764  -16.8322   21.5340 C.ar    1  UNL1        0.0162
      6 C         -10.3227  -15.8671   20.7579 C.ar    1  UNL1        0.0127
      7 C         -11.3256  -16.3781   19.7665 C.ar    1  UNL1        0.0578
      8 CL        -12.1720  -15.4130   18.9905 Cl      1  UNL1       -0.0822
      9 C         -11.4822  -17.8543   19.5511 C.ar    1  UNL1        0.0127
     10 C         -10.6359  -18.8194   20.3271 C.ar    1  UNL1        0.0162
     11 C          -7.3542  -19.4941   21.7079 C.ar    1  UNL1        0.0613
     12 C          -7.0112  -20.4835   20.6340 C.ar    1  UNL1        0.0153
     13 C          -5.5788  -20.7041   20.2472 C.ar    1  UNL1        0.0013
     14 C          -4.4895  -19.9353   20.9343 C.ar    1  UNL1        0.0001
     15 C          -4.8325  -18.9458   22.0083 C.ar    1  UNL1        0.0013
     16 C          -6.2649  -18.7252   22.3951 C.ar    1  UNL1        0.0153
     17 O         -10.8051  -19.7974   23.6443 O.3     1  UNL1       -0.4341
     18 C         -11.2008  -18.5488   24.3753 C.3     1  UNL1        0.2100
     19 C          -8.0470  -15.9458   26.2535 C.3     1  UNL1        0.0297
     20 C          -8.4092  -17.2580   26.8834 C.3     1  UNL1        0.0026
     21 C          -9.4604  -18.1257   26.2573 C.3     1  UNL1        0.0038
     22 C         -10.1495  -17.6811   25.0014 C.3     1  UNL1        0.0439
     23 C          -9.7873  -16.3689   24.3715 C.3     1  UNL1        0.0038
     24 C          -8.7361  -15.5012   24.9975 C.3     1  UNL1        0.0026
     25 C          -6.9957  -15.0781   26.8795 C.3     1  UNL1        0.1426
     26 O          -5.7345  -14.7681   26.1291 O.3     1  UNL1       -0.3478
     27 C          -5.1289  -15.7982   25.2222 C.3     1  UNL1        0.1835
     28 O          -3.8325  -15.7836   22.9708 O.co2   1  UNL1       -0.5466
     29 C          -5.1024  -15.5698   23.7399 C.2     1  UNL1        0.0801
     30 O          -6.3457  -15.1275   23.0268 O.co2   1  UNL1       -0.5466
@<TRIPOS>UNITY_ATOM_ATTR
28 1
charge -1
@<TRIPOS>BOND
     1    28    29   ar
     2    29    30   ar
     3    29    27    1
     4    27    26    1
     5    26    25    1
     6    19    25    1
     7    19    20    1
     8    20    21    1
     9    21    22    1
    10    22    18    1
    11    18    17    1
    12    17     1    1
    13     1     2    2
    14     1     3   am
    15     3    11    1
    16    11    12   ar
    17    12    13   ar
    18    13    14   ar
    19    14    15   ar
    20    15    16   ar
    21     3     4    1
    22     4     5   ar
    23     5     6   ar
    24     6     7   ar
    25     7     8    1
    26     7     9   ar
    27     9    10   ar
    28    22    23    1
    29    23    24    1
    30    24    19    1
    31    16    11   ar
    32    10     4   ar
@<TRIPOS>MOLECULE
*****
 30 32 0 0 0
SMALL
GASTEIGER

@<TRIPOS>ATOM
      1 C          -8.4898  -16.5152   24.1639 C.2     1  UNL1        0.4125
      2 O          -9.4272  -15.5650   24.8483 O.2     1  UNL1       -0.2255
      3 N          -8.9715  -17.3427   23.0092 N.am    1  UNL1       -0.2037
      4 C          -8.0340  -18.2929   22.3248 C.ar    1  UNL1        0.0613
      5 C          -7.3031  -17.8642   21.0871 C.ar    1  UNL1        0.0162
      6 C          -6.3656  -18.8145   20.4027 C.ar    1  UNL1        0.0127
      7 C          -6.1592  -20.1933   20.9560 C.ar    1  UNL1        0.0578
      8 CL         -5.2218  -21.1434   20.2717 Cl      1  UNL1       -0.0822
      9 C          -6.8901  -20.6219   22.1938 C.ar    1  UNL1        0.0127
     10 C          -7.8275  -19.6717   22.8781 C.ar    1  UNL1        0.0162
     11 C         -10.3905  -17.2200   22.5389 C.ar    1  UNL1        0.0613
     12 C         -11.4953  -17.8823   23.3075 C.ar    1  UNL1        0.0153
     13 C         -12.9144  -17.7596   22.8372 C.ar    1  UNL1        0.0013
     14 C         -13.2287  -16.9746   21.5984 C.ar    1  UNL1        0.0001
     15 C         -12.1239  -16.3122   20.8297 C.ar    1  UNL1        0.0013
     16 C         -10.7048  -16.4349   21.2999 C.ar    1  UNL1        0.0153
     17 O          -7.0707  -16.6379   24.6342 O.3     1  UNL1       -0.4341
     18 C          -6.0093  -15.7501   24.0552 C.3     1  UNL1        0.2100
     19 C          -2.3578  -17.5591   22.1463 C.3     1  UNL1        0.0297
     20 C          -3.3555  -18.4388   22.8395 C.3     1  UNL1        0.0026
     21 C          -4.5727  -17.8358   23.4758 C.3     1  UNL1        0.0038
     22 C          -4.7921  -16.3531   23.4189 C.3     1  UNL1        0.0439
     23 C          -3.7944  -15.4734   22.7258 C.3     1  UNL1        0.0038
     24 C          -2.5772  -16.0763   22.0895 C.3     1  UNL1        0.0026
     25 C          -1.1406  -18.1621   21.5100 C.3     1  UNL1        0.1426
     26 O          -1.2900  -19.2396   20.4773 O.3     1  UNL1       -0.3478
     27 C          -2.3113  -19.0979   19.3879 C.3     1  UNL1        0.1835
     28 O          -1.2319  -17.8120   17.4052 O.co2   1  UNL1       -0.5466
     29 C          -2.2764  -17.9062   18.4775 C.2     1  UNL1        0.0801
     30 O          -3.2861  -16.8089   18.6395 O.co2   1  UNL1       -0.5466
@<TRIPOS>UNITY_ATOM_ATTR
28 1
charge -1
@<TRIPOS>BOND
     1    28    29   ar
     2    29    30   ar
     3    29    27    1
     4    27    26    1
     5    26    25    1
     6    19    25    1
     7    19    20    1
     8    20    21    1
     9    21    22    1
    10    22    18    1
    11    18    17    1
    12    17     1    1
    13     1     2    2
    14     1     3   am
    15     3    11    1
    16    11    12   ar
    17    12    13   ar
    18    13    14   ar
    19    14    15   ar
    20    15    16   ar
    21     3     4    1
    22     4     5   ar
    23     5     6   ar
    24     6     7   ar
    25     7     8    1
    26     7     9   ar
    27     9    10   ar
    28    22    23    1
    29    23    24    1
    30    24    19    1
    31    16    11   ar
    32    10     4   ar
@<TRIPOS>MOLECULE
*****
 30 32 0 0 0
SMALL
GASTEIGER

@<TRIPOS>ATOM
      1 C          -8.9955  -16.7006   23.2565 C.2     1  UNL1        0.4125
      2 O          -9.3518  -15.9143   24.4831 O.2     1  UNL1       -0.2255
      3 N          -9.9829  -17.6667   22.6718 N.am    1  UNL1       -0.2037
      4 C          -9.6265  -18.4530   21.4451 C.ar    1  UNL1        0.0613
      5 C         -10.6919  -18.8245   20.4566 C.ar    1  UNL1        0.0162
      6 C         -10.3355  -19.6108   19.2299 C.ar    1  UNL1        0.0127
      7 C          -8.9138  -20.0256   18.9917 C.ar    1  UNL1        0.0578
      8 CL         -8.5574  -20.8119   17.7651 Cl      1  UNL1       -0.0822
      9 C          -7.8485  -19.6541   19.9802 C.ar    1  UNL1        0.0127
     10 C          -8.2048  -18.8678   21.2068 C.ar    1  UNL1        0.0162
     11 C         -11.3266  -17.8464   23.3137 C.ar    1  UNL1        0.0613
     12 C         -12.5225  -17.1269   22.7644 C.ar    1  UNL1        0.0153
     13 C         -13.8662  -17.3066   23.4064 C.ar    1  UNL1        0.0013
     14 C         -14.0140  -18.2059   24.5977 C.ar    1  UNL1        0.0001
     15 C         -12.8180  -18.9255   25.1472 C.ar    1  UNL1        0.0013
     16 C         -11.4743  -18.7458   24.5052 C.ar    1  UNL1        0.0153
     17 O          -7.6518  -16.5209   22.6145 O.3     1  UNL1       -0.4341
     18 C          -6.4243  -16.3932   23.4670 C.3     1  UNL1        0.2100
     19 C          -2.6173  -18.4637   22.2546 C.3     1  UNL1        0.0297
     20 C          -2.5896  -17.0195   22.6589 C.3     1  UNL1        0.0026
     21 C          -3.8586  -16.3293   23.0630 C.3     1  UNL1        0.0038
     22 C          -5.1553  -17.0833   23.0629 C.3     1  UNL1        0.0439
     23 C          -5.1830  -18.5275   22.6587 C.3     1  UNL1        0.0038
     24 C          -3.9140  -19.2177   22.2545 C.3     1  UNL1        0.0026
     25 C          -1.3483  -19.1539   21.8505 C.3     1  UNL1        0.1426
     26 O          -0.9803  -19.2579   20.4001 O.3     1  UNL1       -0.3478
     27 C          -0.8256  -18.0150   19.5746 C.3     1  UNL1        0.1835
     28 O          -1.4488  -17.6962   17.0725 O.co2   1  UNL1       -0.5466
     29 C          -1.8402  -17.6838   18.5205 C.2     1  UNL1        0.0801
     30 O          -3.2462  -17.3402   18.9144 O.co2   1  UNL1       -0.5466
@<TRIPOS>UNITY_ATOM_ATTR
28 1
charge -1
@<TRIPOS>BOND
     1    28    29   ar
     2    29    30   ar
     3    29    27    1
     4    27    26    1
     5    26    25    1
     6    19    25    1
     7    19    20    1
     8    20    21    1
     9    21    22    1
    10    22    18    1
    11    18    17    1
    12    17     1    1
    13     1     2    2
    14     1     3   am
    15     3    11    1
    16    11    12   ar
    17    12    13   ar
    18    13    14   ar
    19    14    15   ar
    20    15    16   ar
    21     3     4    1
    22     4     5   ar
    23     5     6   ar
    24     6     7   ar
    25     7     8    1
    26     7     9   ar
    27     9    10   ar
    28    22    23    1
    29    23    24    1
    30    24    19    1
    31    16    11   ar
    32    10     4   ar
@<TRIPOS>MOLECULE
*****
 30 32 0 0 0
SMALL
GASTEIGER

@<TRIPOS>ATOM
      1 C           4.3559   -1.2944   17.6539 C.2     1  UNL1        0.4125
      2 O           3.9278   -0.8954   16.2728 O.2     1  UNL1       -0.2255
      3 N           3.9084   -0.4914   18.8392 N.am    1  UNL1       -0.2037
      4 C           4.3365   -0.8904   20.2203 C.ar    1  UNL1        0.0613
      5 C           5.4171   -0.1223   20.9218 C.ar    1  UNL1        0.0162
      6 C           5.8452   -0.5214   22.3030 C.ar    1  UNL1        0.0127
      7 C           5.1927   -1.6886   22.9825 C.ar    1  UNL1        0.0578
      8 CL          5.6208   -2.0876   24.3636 Cl      1  UNL1       -0.0822
      9 C           4.1120   -2.4567   22.2810 C.ar    1  UNL1        0.0127
     10 C           3.6839   -2.0576   20.8999 C.ar    1  UNL1        0.0162
     11 C           3.0328    0.7107   18.6434 C.ar    1  UNL1        0.0613
     12 C           3.6467    2.0738   18.5205 C.ar    1  UNL1        0.0153
     13 C           2.7711    3.2758   18.3247 C.ar    1  UNL1        0.0013
     14 C           1.2816    3.1148   18.2517 C.ar    1  UNL1        0.0001
     15 C           0.6676    1.7517   18.3745 C.ar    1  UNL1        0.0013
     16 C           1.5432    0.5497   18.5704 C.ar    1  UNL1        0.0153
     17 O           5.2315   -2.4965   17.8497 O.3     1  UNL1       -0.4341
     18 C           6.7042   -2.3229   18.0752 C.3     1  UNL1        0.2100
     19 C           8.5202   -3.4356   22.0393 C.3     1  UNL1        0.0297
     20 C           7.3604   -4.2188   21.4993 C.3     1  UNL1        0.0026
     21 C           6.7551   -3.8478   20.1780 C.3     1  UNL1        0.0038
     22 C           7.3095   -2.6938   19.3965 C.3     1  UNL1        0.0439
     23 C           8.4693   -1.9107   19.9365 C.3     1  UNL1        0.0038
     24 C           9.0746   -2.2816   21.2578 C.3     1  UNL1        0.0026
     25 C           9.1255   -3.8065   23.3606 C.3     1  UNL1        0.1426
     26 O           8.2643   -4.3841   24.4444 O.3     1  UNL1       -0.3478
     27 C           8.6506   -5.6763   25.1008 C.3     1  UNL1        0.1835
     28 O           8.3699   -7.2289   23.0366 O.co2   1  UNL1       -0.5466
     29 C           8.2080   -6.9808   24.5070 C.2     1  UNL1        0.0801
     30 O           7.6034   -8.0372   25.3838 O.co2   1  UNL1       -0.5466
@<TRIPOS>UNITY_ATOM_ATTR
28 1
charge -1
@<TRIPOS>BOND
     1    28    29   ar
     2    29    30   ar
     3    29    27    1
     4    27    26    1
     5    26    25    1
     6    19    25    1
     7    19    20    1
     8    20    21    1
     9    21    22    1
    10    22    18    1
    11    18    17    1
    12    17     1    1
    13     1     2    2
    14     1     3   am
    15     3    11    1
    16    11    12   ar
    17    12    13   ar
    18    13    14   ar
    19    14    15   ar
    20    15    16   ar
    21     3     4    1
    22     4     5   ar
    23     5     6   ar
    24     6     7   ar
    25     7     8    1
    26     7     9   ar
    27     9    10   ar
    28    22    23    1
    29    23    24    1
    30    24    19    1
    31    16    11   ar
    32    10     4   ar
@<TRIPOS>MOLECULE
*****
 30 32 0 0 0
SMALL
GASTEIGER

@<TRIPOS>ATOM
      1 C           8.0537   -2.7269   24.6461 C.2     1  UNL1        0.4125
      2 O           8.8617   -2.8557   25.9032 O.2     1  UNL1       -0.2255
      3 N           7.4338   -3.9434   24.0249 N.am    1  UNL1       -0.2037
      4 C           6.6257   -3.8146   22.7678 C.ar    1  UNL1        0.0613
      5 C           5.1282   -3.8741   22.8294 C.ar    1  UNL1        0.0162
      6 C           4.3201   -3.7453   21.5722 C.ar    1  UNL1        0.0127
      7 C           5.0096   -3.5568   20.2534 C.ar    1  UNL1        0.0578
      8 CL          4.2015   -3.4280   18.9963 Cl      1  UNL1       -0.0822
      9 C           6.5071   -3.4973   20.1918 C.ar    1  UNL1        0.0127
     10 C           7.3152   -3.6261   21.4490 C.ar    1  UNL1        0.0162
     11 C           7.6220   -5.2888   24.6609 C.ar    1  UNL1        0.0613
     12 C           8.4954   -6.3146   24.0014 C.ar    1  UNL1        0.0153
     13 C           8.6837   -7.6600   24.6374 C.ar    1  UNL1        0.0013
     14 C           7.9985   -7.9796   25.9328 C.ar    1  UNL1        0.0001
     15 C           7.1251   -6.9538   26.5924 C.ar    1  UNL1        0.0013
     16 C           6.9368   -5.6084   25.9564 C.ar    1  UNL1        0.0153
     17 O           7.8654   -1.3815   24.0101 O.3     1  UNL1       -0.4341
     18 C           6.6853   -0.5340   24.3832 C.3     1  UNL1        0.2100
     19 C           3.1832   -0.1934   21.5780 C.3     1  UNL1        0.0297
     20 C           2.9523   -0.4409   23.0393 C.3     1  UNL1        0.0026
     21 C           4.1197   -0.5544   23.9744 C.3     1  UNL1        0.0038
     22 C           5.5179   -0.4205   23.4481 C.3     1  UNL1        0.0439
     23 C           5.7488   -0.1729   21.9868 C.3     1  UNL1        0.0038
     24 C           4.5814   -0.0594   21.0518 C.3     1  UNL1        0.0026
     25 C           2.0158   -0.0798   20.6430 C.3     1  UNL1        0.1426
     26 O           2.1040   -0.6538   19.2600 O.3     1  UNL1       -0.3478
     27 C           2.5019    0.2215   18.1087 C.3     1  UNL1        0.1835
     28 O           5.0155    0.7264   17.6881 O.co2   1  UNL1       -0.5466
     29 C           3.7749   -0.0518   17.3637 C.2     1  UNL1        0.0801
     30 O           3.8072   -1.1033   16.2945 O.co2   1  UNL1       -0.5466
@<TRIPOS>UNITY_ATOM_ATTR
28 1
charge -1
@<TRIPOS>BOND
     1    28    29   ar
     2    29    30   ar
     3    29    27    1
     4    27    26    1
     5    26    25    1
     6    19    25    1
     7    19    20    1
     8    20    21    1
     9    21    22    1
    10    22    18    1
    11    18    17    1
    12    17     1    1
    13     1     2    2
    14     1     3   am
    15     3    11    1
    16    11    12   ar
    17    12    13   ar
    18    13    14   ar
    19    14    15   ar
    20    15    16   ar
    21     3     4    1
    22     4     5   ar
    23     5     6   ar
    24     6     7   ar
    25     7     8    1
    26     7     9   ar
    27     9    10   ar
    28    22    23    1
    29    23    24    1
    30    24    19    1
    31    16    11   ar
    32    10     4   ar
