@<TRIPOS>MOLECULE
*****
 29 31 0 0 0
SMALL
GASTEIGER

@<TRIPOS>ATOM
      1 C          -8.8174  -21.2131   17.1944 C.3     1  UNL1        0.0327
      2 C          -9.0447  -20.4836   18.4853 C.ar    1  UNL1       -0.0013
      3 C         -10.3870  -19.8831   18.7811 C.ar    1  UNL1        0.0946
      4 N         -10.6143  -19.1537   20.0719 N.ar    1  UNL1       -0.2425
      5 C          -9.4993  -19.0247   21.0669 C.ar    1  UNL1        0.1028
      6 C          -9.4266  -18.3678   22.4134 C.ar    1  UNL1        0.0895
      7 C          -8.0393  -18.5623   22.9499 C.ar    1  UNL1        0.0823
      8 N          -7.2546  -19.3395   21.9348 N.ar    1  UNL1       -0.3190
      9 C          -8.1570  -19.6252   20.7711 C.ar    1  UNL1        0.0780
     10 C          -7.9297  -20.3547   19.4803 C.ar    1  UNL1        0.0160
     11 C         -10.5449  -17.6436   23.1026 C.2     1  UNL1        0.2489
     12 O         -10.2623  -16.3900   23.8762 O.2     1  UNL1       -0.2700
     13 N         -11.9458  -18.1729   23.0181 N.am    1  UNL1       -0.2984
     14 H         -12.1314  -18.9957   22.5103 H       1  UNL1        0.1498
     15 C         -13.0641  -17.4486   23.7072 C.3     1  UNL1        0.1215
     16 C         -14.1893  -18.2227   24.3274 C.3     1  UNL1        0.1583
     17 O         -14.1440  -18.5741   25.7849 O.3     1  UNL1       -0.3802
     18 H         -13.4138  -19.1919   25.9461 H       1  UNL1        0.2105
     19 C          -5.8196  -19.7575   22.0613 C.3     1  UNL1        0.1517
     20 C          -4.7290  -18.7316   21.9717 C.ar    1  UNL1        0.0823
     21 N          -4.6469  -17.6332   22.9900 N.ar    1  UNL1       -0.2266
     22 C          -3.5563  -16.6073   22.9004 C.ar    1  UNL1        0.1998
     23 N          -2.5476  -16.6798   21.7925 N.ar    1  UNL1       -0.2093
     24 C          -2.6297  -17.7782   20.7742 C.ar    1  UNL1        0.1307
     25 C          -3.7203  -18.8041   20.8638 C.ar    1  UNL1        0.0253
     26 C          -3.8023  -19.9024   19.8455 C.3     1  UNL1        0.0353
     27 N          -1.6210  -17.8506   19.6664 N.pl3   1  UNL1       -0.2899
     28 C          -2.0248  -17.5150   18.2613 C.3     1  UNL1        0.1136
     29 C          -0.2086  -18.2588   19.9636 C.3     1  UNL1        0.1136
@<TRIPOS>BOND
     1     1     2    1
     2     2     3   ar
     3     3     4   ar
     4     4     5   ar
     5     5     6   ar
     6     6    11    1
     7    11    12    2
     8    11    13   am
     9    13    15    1
    10    15    16    1
    11    16    17    1
    12     6     7   ar
    13     7     8   ar
    14     8    19    1
    15    19    20    1
    16    20    21   ar
    17    21    22   ar
    18    22    23   ar
    19    23    24   ar
    20    24    27    1
    21    27    28    1
    22    27    29    1
    23    24    25   ar
    24    25    26    1
    25     8     9   ar
    26     9    10   ar
    27    10     2   ar
    28     9     5   ar
    29    25    20   ar
    30    13    14    1
    31    17    18    1
@<TRIPOS>MOLECULE
*****
 29 31 0 0 0
SMALL
GASTEIGER

@<TRIPOS>ATOM
      1 C          -6.9841  -14.5763   28.2359 C.3     1  UNL1        0.0327
      2 C          -7.3292  -15.1298   26.8851 C.ar    1  UNL1       -0.0013
      3 C          -8.7575  -15.1558   26.4278 C.ar    1  UNL1        0.0946
      4 N          -9.1026  -15.7092   25.0771 N.ar    1  UNL1       -0.2425
      5 C          -8.0194  -16.2367   24.1836 C.ar    1  UNL1        0.1028
      6 C          -8.0554  -16.8382   22.8099 C.ar    1  UNL1        0.0895
      7 C          -6.6493  -17.1840   22.4183 C.ar    1  UNL1        0.0823
      8 N          -5.7443  -16.7962   23.5498 N.ar    1  UNL1       -0.3190
      9 C          -6.5910  -16.2107   24.6408 C.ar    1  UNL1        0.0780
     10 C          -6.2459  -15.6572   25.9916 C.ar    1  UNL1        0.0160
     11 C          -9.2822  -17.0558   21.9747 C.2     1  UNL1        0.2489
     12 O          -9.4262  -18.3110   21.1662 O.2     1  UNL1       -0.2700
     13 N         -10.3650  -16.0181   21.9478 N.am    1  UNL1       -0.2984
     14 H         -10.2705  -15.1942   22.4785 H       1  UNL1        0.1498
     15 C         -11.5918  -16.2356   21.1125 C.3     1  UNL1        0.1215
     16 C         -11.5056  -16.1518   19.6174 C.3     1  UNL1        0.1583
     17 O         -12.4783  -15.3003   18.8566 O.3     1  UNL1       -0.3802
     18 H         -13.3708  -15.6692   18.9474 H       1  UNL1        0.2105
     19 C          -4.2541  -16.9643   23.5843 C.3     1  UNL1        0.1517
     20 C          -3.5883  -17.9432   22.6633 C.ar    1  UNL1        0.0823
     21 N          -3.9416  -19.3992   22.7339 N.ar    1  UNL1       -0.2266
     22 C          -3.2758  -20.3782   21.8128 C.ar    1  UNL1        0.1998
     23 N          -2.2566  -19.9010   20.8211 N.ar    1  UNL1       -0.2093
     24 C          -1.9032  -18.4449   20.7505 C.ar    1  UNL1        0.1307
     25 C          -2.5691  -17.4659   21.6715 C.ar    1  UNL1        0.0253
     26 C          -2.2157  -16.0099   21.6008 C.3     1  UNL1        0.0353
     27 N          -0.8840  -17.9677   19.7587 N.pl3   1  UNL1       -0.2899
     28 C          -1.2812  -17.7257   18.3326 C.3     1  UNL1        0.1136
     29 C           0.5323  -17.7326   20.1930 C.3     1  UNL1        0.1136
@<TRIPOS>BOND
     1     1     2    1
     2     2     3   ar
     3     3     4   ar
     4     4     5   ar
     5     5     6   ar
     6     6    11    1
     7    11    12    2
     8    11    13   am
     9    13    15    1
    10    15    16    1
    11    16    17    1
    12     6     7   ar
    13     7     8   ar
    14     8    19    1
    15    19    20    1
    16    20    21   ar
    17    21    22   ar
    18    22    23   ar
    19    23    24   ar
    20    24    27    1
    21    27    28    1
    22    27    29    1
    23    24    25   ar
    24    25    26    1
    25     8     9   ar
    26     9    10   ar
    27    10     2   ar
    28     9     5   ar
    29    25    20   ar
    30    13    14    1
    31    17    18    1
@<TRIPOS>MOLECULE
*****
 29 31 0 0 0
SMALL
GASTEIGER

@<TRIPOS>ATOM
      1 C          -9.1997   -6.2747   18.0585 C.3     1  UNL1        0.0327
      2 C         -10.6644   -6.3307   18.3771 C.ar    1  UNL1       -0.0013
      3 C         -11.4401   -7.5886   18.1206 C.ar    1  UNL1        0.0946
      4 N         -12.9048   -7.6446   18.4392 N.ar    1  UNL1       -0.2425
      5 C         -13.5938   -6.4427   19.0143 C.ar    1  UNL1        0.1028
      6 C         -15.0160   -6.2022   19.4257 C.ar    1  UNL1        0.0895
      7 C         -15.1193   -4.7956   19.9365 C.ar    1  UNL1        0.0823
      8 N         -13.7609   -4.1668   19.8407 N.ar    1  UNL1       -0.3190
      9 C         -12.8180   -5.1848   19.2707 C.ar    1  UNL1        0.0780
     10 C         -11.3533   -5.1288   18.9521 C.ar    1  UNL1        0.0160
     11 C         -16.1380   -7.1941   19.3413 C.2     1  UNL1        0.2489
     12 O         -17.4849   -6.7624   18.8418 O.2     1  UNL1       -0.2700
     13 N         -15.9132   -8.6180   19.7562 N.am    1  UNL1       -0.2984
     14 H         -15.0292   -8.9014   20.0840 H       1  UNL1        0.1498
     15 C         -17.0352   -9.6099   19.6718 C.3     1  UNL1        0.1215
     16 C         -16.9905  -10.7077   18.6506 C.3     1  UNL1        0.1583
     17 O         -17.0276  -12.1418   19.0890 O.3     1  UNL1       -0.3802
     18 H         -16.2206  -12.3490   19.5856 H       1  UNL1        0.2105
     19 C         -13.4073   -2.7660   20.2441 C.3     1  UNL1        0.1517
     20 C         -13.1331   -1.7299   19.1946 C.ar    1  UNL1        0.0823
     21 N         -11.7670   -1.6235   18.5845 N.ar    1  UNL1       -0.2266
     22 C         -11.4929   -0.5875   17.5350 C.ar    1  UNL1        0.1998
     23 N         -12.5849    0.3423   17.0956 N.ar    1  UNL1       -0.2093
     24 C         -13.9511    0.2358   17.7058 C.ar    1  UNL1        0.1307
     25 C         -14.2253   -0.8002   18.7553 C.ar    1  UNL1        0.0253
     26 C         -15.5914   -0.9066   19.3654 C.3     1  UNL1        0.0353
     27 N         -15.0432    1.1656   17.2665 N.pl3   1  UNL1       -0.2899
     28 C         -15.2387    2.4772   17.9674 C.3     1  UNL1        0.1136
     29 C         -15.9397    0.7836   16.1262 C.3     1  UNL1        0.1136
@<TRIPOS>BOND
     1     1     2    1
     2     2     3   ar
     3     3     4   ar
     4     4     5   ar
     5     5     6   ar
     6     6    11    1
     7    11    12    2
     8    11    13   am
     9    13    15    1
    10    15    16    1
    11    16    17    1
    12     6     7   ar
    13     7     8   ar
    14     8    19    1
    15    19    20    1
    16    20    21   ar
    17    21    22   ar
    18    22    23   ar
    19    23    24   ar
    20    24    27    1
    21    27    28    1
    22    27    29    1
    23    24    25   ar
    24    25    26    1
    25     8     9   ar
    26     9    10   ar
    27    10     2   ar
    28     9     5   ar
    29    25    20   ar
    30    13    14    1
    31    17    18    1
@<TRIPOS>MOLECULE
*****
 29 31 0 0 0
SMALL
GASTEIGER

@<TRIPOS>ATOM
      1 C          -6.4880  -15.0672   26.8237 C.3     1  UNL1        0.0327
      2 C          -7.1240  -15.6423   25.5928 C.ar    1  UNL1       -0.0013
      3 C          -8.5329  -15.2732   25.2344 C.ar    1  UNL1        0.0946
      4 N          -9.1689  -15.8482   24.0036 N.ar    1  UNL1       -0.2425
      5 C          -8.3959  -16.7923   23.1312 C.ar    1  UNL1        0.1028
      6 C          -8.7560  -17.5124   21.8656 C.ar    1  UNL1        0.0895
      7 C          -7.5695  -18.3265   21.4418 C.ar    1  UNL1        0.0823
      8 N          -6.4762  -18.1096   22.4455 N.ar    1  UNL1       -0.3190
      9 C          -6.9869  -17.1613   23.4896 C.ar    1  UNL1        0.0780
     10 C          -6.3509  -16.5863   24.7204 C.ar    1  UNL1        0.0160
     11 C         -10.0716  -17.4324   21.1495 C.2     1  UNL1        0.2489
     12 O         -10.2711  -18.1754   19.8619 O.2     1  UNL1       -0.2700
     13 N         -11.1878  -16.6093   21.7211 N.am    1  UNL1       -0.2984
     14 H         -11.0569  -16.1215   22.5662 H       1  UNL1        0.1498
     15 C         -12.5034  -16.5293   21.0050 C.3     1  UNL1        0.1215
     16 C         -12.5809  -15.8970   19.6469 C.3     1  UNL1        0.1583
     17 O         -11.3717  -15.2318   19.0592 O.3     1  UNL1       -0.3802
     18 H         -11.1424  -14.4520   19.5885 H       1  UNL1        0.2105
     19 C          -5.1116  -18.7316   22.4112 C.3     1  UNL1        0.1517
     20 C          -3.9257  -17.9153   21.9902 C.ar    1  UNL1        0.0823
     21 N          -3.5927  -16.6461   22.7169 N.ar    1  UNL1       -0.2266
     22 C          -2.4067  -15.8298   22.2959 C.ar    1  UNL1        0.1998
     23 N          -1.5538  -16.2828   21.1481 N.ar    1  UNL1       -0.2093
     24 C          -1.8868  -17.5521   20.4214 C.ar    1  UNL1        0.1307
     25 C          -3.0728  -18.3683   20.8424 C.ar    1  UNL1        0.0253
     26 C          -3.4058  -19.6376   20.1156 C.3     1  UNL1        0.0353
     27 N          -1.0339  -18.0050   19.2737 N.pl3   1  UNL1       -0.2899
     28 C           0.3142  -18.6091   19.5337 C.3     1  UNL1        0.1136
     29 C          -1.5290  -17.8539   17.8659 C.3     1  UNL1        0.1136
@<TRIPOS>BOND
     1     1     2    1
     2     2     3   ar
     3     3     4   ar
     4     4     5   ar
     5     5     6   ar
     6     6    11    1
     7    11    12    2
     8    11    13   am
     9    13    15    1
    10    15    16    1
    11    16    17    1
    12     6     7   ar
    13     7     8   ar
    14     8    19    1
    15    19    20    1
    16    20    21   ar
    17    21    22   ar
    18    22    23   ar
    19    23    24   ar
    20    24    27    1
    21    27    28    1
    22    27    29    1
    23    24    25   ar
    24    25    26    1
    25     8     9   ar
    26     9    10   ar
    27    10     2   ar
    28     9     5   ar
    29    25    20   ar
    30    13    14    1
    31    17    18    1
@<TRIPOS>MOLECULE
*****
 29 31 0 0 0
SMALL
GASTEIGER

@<TRIPOS>ATOM
      1 C          -5.4470  -14.7987   25.8621 C.3     1  UNL1        0.0327
      2 C          -6.2906  -15.5283   24.8591 C.ar    1  UNL1       -0.0013
      3 C          -7.6751  -15.0421   24.5483 C.ar    1  UNL1        0.0946
      4 N          -8.5187  -15.7717   23.5453 N.ar    1  UNL1       -0.2425
      5 C          -7.9778  -16.9875   22.8532 C.ar    1  UNL1        0.1028
      6 C          -8.5719  -17.9055   21.8263 C.ar    1  UNL1        0.0895
      7 C          -7.5545  -18.9591   21.5025 C.ar    1  UNL1        0.0823
      8 N          -6.3316  -18.6923   22.3292 N.ar    1  UNL1       -0.3190
      9 C          -6.5933  -17.4738   23.1640 C.ar    1  UNL1        0.0780
     10 C          -5.7497  -16.7442   24.1670 C.ar    1  UNL1        0.0160
     11 C          -9.9426  -17.7901   21.2283 C.2     1  UNL1        0.2489
     12 O         -10.1494  -18.0640   19.7681 O.2     1  UNL1       -0.2700
     13 N         -11.1067  -17.4008   22.0904 N.am    1  UNL1       -0.2984
     14 H         -10.9711  -17.2210   23.0488 H       1  UNL1        0.1498
     15 C         -12.4775  -17.2854   21.4924 C.3     1  UNL1        0.1215
     16 C         -12.8273  -16.1005   20.6417 C.3     1  UNL1        0.1583
     17 O         -12.2224  -15.9521   19.2772 O.3     1  UNL1       -0.3802
     18 H         -11.2657  -15.8151   19.3607 H       1  UNL1        0.2105
     19 C          -5.0689  -19.5018   22.3225 C.3     1  UNL1        0.1517
     20 C          -4.0657  -19.3174   21.2227 C.ar    1  UNL1        0.0823
     21 N          -4.2171  -20.0719   19.9351 N.ar    1  UNL1       -0.2266
     22 C          -3.2139  -19.8875   18.8353 C.ar    1  UNL1        0.1998
     23 N          -2.0592  -18.9486   19.0230 N.ar    1  UNL1       -0.2093
     24 C          -1.9079  -18.1941   20.3107 C.ar    1  UNL1        0.1307
     25 C          -2.9111  -18.3785   21.4105 C.ar    1  UNL1        0.0253
     26 C          -2.7596  -17.6240   22.6980 C.3     1  UNL1        0.0353
     27 N          -0.7532  -17.2552   20.4984 N.pl3   1  UNL1       -0.2899
     28 C          -0.9798  -15.8975   21.0945 C.3     1  UNL1        0.1136
     29 C           0.6280  -17.6739   20.0900 C.3     1  UNL1        0.1136
@<TRIPOS>BOND
     1     1     2    1
     2     2     3   ar
     3     3     4   ar
     4     4     5   ar
     5     5     6   ar
     6     6    11    1
     7    11    12    2
     8    11    13   am
     9    13    15    1
    10    15    16    1
    11    16    17    1
    12     6     7   ar
    13     7     8   ar
    14     8    19    1
    15    19    20    1
    16    20    21   ar
    17    21    22   ar
    18    22    23   ar
    19    23    24   ar
    20    24    27    1
    21    27    28    1
    22    27    29    1
    23    24    25   ar
    24    25    26    1
    25     8     9   ar
    26     9    10   ar
    27    10     2   ar
    28     9     5   ar
    29    25    20   ar
    30    13    14    1
    31    17    18    1
@<TRIPOS>MOLECULE
*****
 29 31 0 0 0
SMALL
GASTEIGER

@<TRIPOS>ATOM
      1 C           1.7465    1.3984   24.8663 C.3     1  UNL1        0.0327
      2 C           2.6269    0.2426   24.4933 C.ar    1  UNL1       -0.0013
      3 C           3.4772   -0.4196   25.5365 C.ar    1  UNL1        0.0946
      4 N           4.3576   -1.5754   25.1636 N.ar    1  UNL1       -0.2425
      5 C           4.3876   -2.0690   23.7475 C.ar    1  UNL1        0.1028
      6 C           5.1502   -3.1793   23.0874 C.ar    1  UNL1        0.0895
      7 C           4.7712   -3.2033   21.6363 C.ar    1  UNL1        0.0823
      8 N           3.7743   -2.1078   21.3995 N.ar    1  UNL1       -0.3190
      9 C           3.5372   -1.4068   22.7043 C.ar    1  UNL1        0.0780
     10 C           2.6569   -0.2510   23.0772 C.ar    1  UNL1        0.0160
     11 C           6.1214   -4.1034   23.7604 C.2     1  UNL1        0.2489
     12 O           7.0442   -4.9512   22.9362 O.2     1  UNL1       -0.2700
     13 N           6.1697   -4.1796   25.2577 N.am    1  UNL1       -0.2984
     14 H           5.5640   -3.6231   25.7987 H       1  UNL1        0.1498
     15 C           7.1408   -5.1037   25.9307 C.3     1  UNL1        0.1215
     16 C           6.6442   -6.1447   26.8897 C.3     1  UNL1        0.1583
     17 O           5.4798   -5.8439   27.7863 O.3     1  UNL1       -0.3802
     18 H           5.7274   -5.1485   28.4155 H       1  UNL1        0.2105
     19 C           3.1280   -1.7722   20.0881 C.3     1  UNL1        0.1517
     20 C           3.2221   -0.3789   19.5404 C.ar    1  UNL1        0.0823
     21 N           4.5143    0.1126   18.9587 N.ar    1  UNL1       -0.2266
     22 C           4.6084    1.5059   18.4110 C.ar    1  UNL1        0.1998
     23 N           3.4102    2.4076   18.4450 N.ar    1  UNL1       -0.2093
     24 C           2.1179    1.9160   19.0267 C.ar    1  UNL1        0.1307
     25 C           2.0238    0.5228   19.5744 C.ar    1  UNL1        0.0253
     26 C           0.7315    0.0313   20.1561 C.3     1  UNL1        0.0353
     27 N           0.9197    2.8178   19.0607 N.pl3   1  UNL1       -0.2899
     28 C           0.6648    3.6815   20.2602 C.3     1  UNL1        0.1136
     29 C          -0.0237    2.8557   17.8951 C.3     1  UNL1        0.1136
@<TRIPOS>BOND
     1     1     2    1
     2     2     3   ar
     3     3     4   ar
     4     4     5   ar
     5     5     6   ar
     6     6    11    1
     7    11    12    2
     8    11    13   am
     9    13    15    1
    10    15    16    1
    11    16    17    1
    12     6     7   ar
    13     7     8   ar
    14     8    19    1
    15    19    20    1
    16    20    21   ar
    17    21    22   ar
    18    22    23   ar
    19    23    24   ar
    20    24    27    1
    21    27    28    1
    22    27    29    1
    23    24    25   ar
    24    25    26    1
    25     8     9   ar
    26     9    10   ar
    27    10     2   ar
    28     9     5   ar
    29    25    20   ar
    30    13    14    1
    31    17    18    1
@<TRIPOS>MOLECULE
*****
 29 31 0 0 0
SMALL
GASTEIGER

@<TRIPOS>ATOM
      1 C          -5.4598  -15.0047   25.1081 C.3     1  UNL1        0.0327
      2 C          -6.5544  -15.7645   24.4191 C.ar    1  UNL1       -0.0013
      3 C          -7.9847  -15.3518   24.6034 C.ar    1  UNL1        0.0946
      4 N          -9.0792  -16.1116   23.9144 N.ar    1  UNL1       -0.2425
      5 C          -8.7435  -17.2840   23.0411 C.ar    1  UNL1        0.1028
      6 C          -9.6020  -18.2175   22.2402 C.ar    1  UNL1        0.0895
      7 C          -8.7024  -19.2071   21.5609 C.ar    1  UNL1        0.0823
      8 N          -7.2878  -18.8852   21.9420 N.ar    1  UNL1       -0.3190
      9 C          -7.3132  -17.6967   22.8568 C.ar    1  UNL1        0.0780
     10 C          -6.2186  -16.9369   23.5458 C.ar    1  UNL1        0.0160
     11 C         -11.0977  -18.1698   22.1368 C.2     1  UNL1        0.2489
     12 O         -11.7614  -18.2983   20.7978 O.2     1  UNL1       -0.2700
     13 N         -11.9297  -17.9935   23.3724 N.am    1  UNL1       -0.2984
     14 H         -11.4941  -17.9092   24.2512 H       1  UNL1        0.1498
     15 C         -13.4254  -17.9458   23.2690 C.3     1  UNL1        0.1215
     16 C         -14.2709  -18.2924   24.4585 C.3     1  UNL1        0.1583
     17 O         -13.6217  -18.6150   25.7717 O.3     1  UNL1       -0.3802
     18 H         -13.1142  -19.4374   25.6881 H       1  UNL1        0.2105
     19 C          -6.0629  -19.6224   21.4880 C.3     1  UNL1        0.1517
     20 C          -4.7009  -19.0703   21.7883 C.ar    1  UNL1        0.0823
     21 N          -4.2537  -18.9097   23.2110 N.ar    1  UNL1       -0.2266
     22 C          -2.8917  -18.3576   23.5114 C.ar    1  UNL1        0.1998
     23 N          -1.9769  -17.9660   22.3890 N.ar    1  UNL1       -0.2093
     24 C          -2.4242  -18.1266   20.9662 C.ar    1  UNL1        0.1307
     25 C          -3.7862  -18.6787   20.6658 C.ar    1  UNL1        0.0253
     26 C          -4.2333  -18.8392   19.2431 C.3     1  UNL1        0.0353
     27 N          -1.5094  -17.7349   19.8437 N.pl3   1  UNL1       -0.2899
     28 C          -0.1119  -17.2776   20.1400 C.3     1  UNL1        0.1136
     29 C          -1.9921  -17.8007   18.4251 C.3     1  UNL1        0.1136
@<TRIPOS>BOND
     1     1     2    1
     2     2     3   ar
     3     3     4   ar
     4     4     5   ar
     5     5     6   ar
     6     6    11    1
     7    11    12    2
     8    11    13   am
     9    13    15    1
    10    15    16    1
    11    16    17    1
    12     6     7   ar
    13     7     8   ar
    14     8    19    1
    15    19    20    1
    16    20    21   ar
    17    21    22   ar
    18    22    23   ar
    19    23    24   ar
    20    24    27    1
    21    27    28    1
    22    27    29    1
    23    24    25   ar
    24    25    26    1
    25     8     9   ar
    26     9    10   ar
    27    10     2   ar
    28     9     5   ar
    29    25    20   ar
    30    13    14    1
    31    17    18    1
@<TRIPOS>MOLECULE
*****
 29 31 0 0 0
SMALL
GASTEIGER

@<TRIPOS>ATOM
      1 C           1.8234    1.2589   24.7048 C.3     1  UNL1        0.0327
      2 C           2.7194    0.0997   24.3833 C.ar    1  UNL1       -0.0013
      3 C           3.5342   -0.5416   25.4672 C.ar    1  UNL1        0.0946
      4 N           4.4303   -1.7008   25.1458 N.ar    1  UNL1       -0.2425
      5 C           4.5115   -2.2188   23.7404 C.ar    1  UNL1        0.1028
      6 C           5.2999   -3.3378   23.1272 C.ar    1  UNL1        0.0895
      7 C           4.9723   -3.3882   21.6642 C.ar    1  UNL1        0.0823
      8 N           3.9815   -2.3003   21.3733 N.ar    1  UNL1       -0.3190
      9 C           3.6967   -1.5775   22.6565 C.ar    1  UNL1        0.0780
     10 C           2.8007   -0.4183   22.9780 C.ar    1  UNL1        0.0160
     11 C           6.2492   -4.2469   23.8499 C.2     1  UNL1        0.2489
     12 O           7.2186   -5.0888   23.0745 O.2     1  UNL1       -0.2700
     13 N           6.2290   -4.3141   25.3483 N.am    1  UNL1       -0.2984
     14 H           5.5928   -3.7616   25.8573 H       1  UNL1        0.1498
     15 C           7.1783   -5.2232   26.0711 C.3     1  UNL1        0.1215
     16 C           6.8301   -5.7393   27.4358 C.3     1  UNL1        0.1583
     17 O           5.3926   -5.8725   27.8430 O.3     1  UNL1       -0.3802
     18 H           4.9881   -4.9924   27.8943 H       1  UNL1        0.2105
     19 C           3.3809   -1.9897   20.0344 C.3     1  UNL1        0.1517
     20 C           3.5702   -0.6325   19.4242 C.ar    1  UNL1        0.0823
     21 N           2.4317    0.3437   19.3986 N.ar    1  UNL1       -0.2266
     22 C           2.6209    1.7009   18.7884 C.ar    1  UNL1        0.1998
     23 N           3.9487    2.0818   18.2037 N.ar    1  UNL1       -0.2093
     24 C           5.0873    1.1055   18.2293 C.ar    1  UNL1        0.1307
     25 C           4.8980   -0.2517   18.8395 C.ar    1  UNL1        0.0253
     26 C           6.0366   -1.2279   18.8650 C.3     1  UNL1        0.0353
     27 N           6.4151    1.4864   17.6446 N.pl3   1  UNL1       -0.2899
     28 C           6.7361    1.1369   16.2217 C.3     1  UNL1        0.1136
     29 C           7.4219    2.2168   18.4829 C.3     1  UNL1        0.1136
@<TRIPOS>BOND
     1     1     2    1
     2     2     3   ar
     3     3     4   ar
     4     4     5   ar
     5     5     6   ar
     6     6    11    1
     7    11    12    2
     8    11    13   am
     9    13    15    1
    10    15    16    1
    11    16    17    1
    12     6     7   ar
    13     7     8   ar
    14     8    19    1
    15    19    20    1
    16    20    21   ar
    17    21    22   ar
    18    22    23   ar
    19    23    24   ar
    20    24    27    1
    21    27    28    1
    22    27    29    1
    23    24    25   ar
    24    25    26    1
    25     8     9   ar
    26     9    10   ar
    27    10     2   ar
    28     9     5   ar
    29    25    20   ar
    30    13    14    1
    31    17    18    1
@<TRIPOS>MOLECULE
*****
 29 31 0 0 0
SMALL
GASTEIGER

@<TRIPOS>ATOM
      1 C           2.2269   -0.4839   21.0666 C.3     1  UNL1        0.0327
      2 C           2.8577   -0.7875   22.3932 C.ar    1  UNL1       -0.0013
      3 C           3.9102   -1.8512   22.4974 C.ar    1  UNL1        0.0946
      4 N           4.5409   -2.1548   23.8240 N.ar    1  UNL1       -0.2425
      5 C           4.1192   -1.3947   25.0465 C.ar    1  UNL1        0.1028
      6 C           4.5593   -1.4727   26.4783 C.ar    1  UNL1        0.0895
      7 C           3.7787   -0.4573   27.2591 C.ar    1  UNL1        0.0823
      8 N           2.8563    0.2483   26.3098 N.ar    1  UNL1       -0.3190
      9 C           3.0668   -0.3311   24.9423 C.ar    1  UNL1        0.0780
     10 C           2.4360   -0.0275   23.6157 C.ar    1  UNL1        0.0160
     11 C           5.5975   -2.4029   27.0322 C.2     1  UNL1        0.2489
     12 O           6.0468   -2.2630   28.4564 O.2     1  UNL1       -0.2700
     13 N           6.1867   -3.4730   26.1617 N.am    1  UNL1       -0.2984
     14 H           5.8919   -3.5649   25.2269 H       1  UNL1        0.1498
     15 C           7.2250   -4.4032   26.7155 C.3     1  UNL1        0.1215
     16 C           6.8094   -5.6894   27.3659 C.3     1  UNL1        0.1583
     17 O           5.3984   -5.8669   27.8429 O.3     1  UNL1       -0.3802
     18 H           5.2241   -5.2522   28.5728 H       1  UNL1        0.2105
     19 C           1.8926    1.3413   26.6655 C.3     1  UNL1        0.1517
     20 C           1.0135    1.2026   27.8730 C.ar    1  UNL1        0.0823
     21 N          -0.2164    0.3463   27.8109 N.ar    1  UNL1       -0.2266
     22 C          -1.0955    0.2075   29.0184 C.ar    1  UNL1        0.1998
     23 N          -0.7446    0.9251   30.2880 N.ar    1  UNL1       -0.2093
     24 C           0.4855    1.7815   30.3501 C.ar    1  UNL1        0.1307
     25 C           1.3645    1.9202   29.1426 C.ar    1  UNL1        0.0253
     26 C           2.5944    2.7766   29.2048 C.3     1  UNL1        0.0353
     27 N           0.8363    2.4990   31.6197 N.pl3   1  UNL1       -0.2899
     28 C           0.2707    3.8613   31.8922 C.3     1  UNL1        0.1136
     29 C           1.7529    1.8544   32.6169 C.3     1  UNL1        0.1136
@<TRIPOS>BOND
     1     1     2    1
     2     2     3   ar
     3     3     4   ar
     4     4     5   ar
     5     5     6   ar
     6     6    11    1
     7    11    12    2
     8    11    13   am
     9    13    15    1
    10    15    16    1
    11    16    17    1
    12     6     7   ar
    13     7     8   ar
    14     8    19    1
    15    19    20    1
    16    20    21   ar
    17    21    22   ar
    18    22    23   ar
    19    23    24   ar
    20    24    27    1
    21    27    28    1
    22    27    29    1
    23    24    25   ar
    24    25    26    1
    25     8     9   ar
    26     9    10   ar
    27    10     2   ar
    28     9     5   ar
    29    25    20   ar
    30    13    14    1
    31    17    18    1
