@<TRIPOS>MOLECULE
*****
 38 43 0 0 0
SMALL
GASTEIGER

@<TRIPOS>ATOM
      1 C           4.0801   -1.4793   21.9860 C.3     1  UNL1        0.2088
      2 C           4.7788   -2.6267   21.3189 C.2     1  UNL1        0.3171
      3 N           5.6597   -3.5375   22.1217 N.2     1  UNL1       -0.0232
      4 C           5.8418   -3.3009   23.5916 C.ar    1  UNL1        0.2809
      5 C           6.6414   -4.0256   24.6334 C.ar    1  UNL1        0.0772
      6 C           6.4368   -3.3261   25.9445 C.ar    1  UNL1        0.1063
      7 N           5.5108   -2.1690   25.7130 N.ar    1  UNL1       -0.1596
      8 N           5.1431   -2.1534   24.2588 N.ar    1  UNL1       -0.1573
      9 C           4.2622   -1.2426   23.4560 C.2     1  UNL1        0.2752
     10 O           3.5634   -0.0951   24.1232 O.2     1  UNL1       -0.2691
     11 C           1.4375    1.2532   19.5776 C.ar    1  UNL1        0.1387
     12 C           0.9479   -0.1091   19.9705 C.ar    1  UNL1        0.0366
     13 C           1.8287   -1.0200   20.7733 C.ar    1  UNL1       -0.0001
     14 C           3.1992   -0.5685   21.1832 C.ar    1  UNL1       -0.0018
     15 C           3.6888    0.7939   20.7902 C.ar    1  UNL1       -0.0001
     16 C           2.8079    1.7047   19.9874 C.ar    1  UNL1        0.0366
     17 C          -0.4095    3.0772   19.4695 C.3     1  UNL1        0.2525
     18 O           0.5566    2.1639   18.7748 O.3     1  UNL1       -0.4714
     19 C           7.4956   -5.2372   24.4045 C.2     1  UNL1       -0.0198
     20 C           7.3957   -6.4116   25.3323 C.2     1  UNL1       -0.0302
     21 C           8.2500   -7.6230   25.1032 C.3     1  UNL1        0.0257
     22 C           9.2042   -7.6602   23.9464 C.3     1  UNL1        0.0050
     23 C           9.3041   -6.4859   23.0186 C.3     1  UNL1        0.0050
     24 C           8.4498   -5.2743   23.2476 C.3     1  UNL1        0.0263
     25 C           7.0505   -3.7153   27.2567 C.ar    1  UNL1        0.0195
     26 C           6.2516   -4.4995   28.2550 C.ar    1  UNL1        0.0016
     27 C           6.8653   -4.8888   29.5673 C.ar    1  UNL1        0.0000
     28 C           8.2779   -4.4939   29.8811 C.ar    1  UNL1        0.0000
     29 C           9.0768   -3.7097   28.8827 C.ar    1  UNL1        0.0000
     30 C           8.4632   -3.3204   27.5705 C.ar    1  UNL1        0.0016
     31 N           4.5968   -2.8634   19.8488 N.pl3   1  UNL1       -0.1866
     32 H           4.1802   -3.6974   19.5324 H       1  UNL1        0.2997
     33 C           5.0493   -1.8294   18.8610 C.ar    1  UNL1        0.2214
     34 C           4.1080   -1.3444   17.7986 C.ar    1  UNL1        0.0610
     35 C           4.5605   -0.3103   16.8107 C.ar    1  UNL1        0.0068
     36 C           5.9544    0.2387   16.8851 C.ar    1  UNL1        0.0209
     37 C           6.8958   -0.2463   17.9476 C.ar    1  UNL1        0.1024
     38 N           6.4433   -1.2803   18.9354 N.ar    1  UNL1       -0.2076
@<TRIPOS>BOND
     1    17    18    1
     2    18    11    1
     3    11    12   ar
     4    12    13   ar
     5    13    14   ar
     6    14     1    1
     7     1     2    1
     8     2    31    1
     9    31    33    1
    10    33    34   ar
    11    34    35   ar
    12    35    36   ar
    13    36    37   ar
    14    37    38   ar
    15     2     3    2
    16     3     4    1
    17     4     5   ar
    18     5    19    1
    19    19    20    2
    20    20    21    1
    21    21    22    1
    22    22    23    1
    23    23    24    1
    24     5     6   ar
    25     6    25    1
    26    25    26   ar
    27    26    27   ar
    28    27    28   ar
    29    28    29   ar
    30    29    30   ar
    31     6     7   ar
    32     7     8   ar
    33     8     9   am
    34     9    10    2
    35    14    15   ar
    36    15    16   ar
    37    16    11   ar
    38     9     1    1
    39    38    33   ar
    40     8     4   ar
    41    24    19    1
    42    30    25   ar
    43    31    32    1
@<TRIPOS>MOLECULE
*****
 38 43 0 0 0
SMALL
GASTEIGER

@<TRIPOS>ATOM
      1 C           3.8159   -0.9604   21.9268 C.3     1  UNL1        0.2088
      2 C           4.1133   -0.3182   23.2492 C.2     1  UNL1        0.3171
      3 N           5.0030   -1.0127   24.2371 N.2     1  UNL1       -0.0232
      4 C           5.5954   -2.3495   23.9025 C.ar    1  UNL1        0.2809
      5 C           6.5012   -3.2665   24.6698 C.ar    1  UNL1        0.0772
      6 C           6.7636   -4.4754   23.8215 C.ar    1  UNL1        0.1063
      7 N           6.0200   -4.3057   22.5299 N.ar    1  UNL1       -0.1596
      8 N           5.2981   -2.9918   22.5799 N.ar    1  UNL1       -0.1573
      9 C           4.4083   -2.2973   21.5921 C.2     1  UNL1        0.2752
     10 O           4.1109   -2.9395   20.2695 O.2     1  UNL1       -0.2691
     11 C           1.1465    1.1232   18.9631 C.ar    1  UNL1        0.1387
     12 C           0.5523    0.2149   19.9985 C.ar    1  UNL1        0.0366
     13 C           1.4421   -0.4796   20.9864 C.ar    1  UNL1       -0.0001
     14 C           2.9260   -0.2659   20.9389 C.ar    1  UNL1       -0.0018
     15 C           3.5202    0.6424   19.9035 C.ar    1  UNL1       -0.0001
     16 C           2.6304    1.3370   18.9156 C.ar    1  UNL1        0.0366
     17 C          -0.2203    3.2136   18.2474 C.3     1  UNL1        0.2525
     18 O           0.2567    1.8177   17.9753 O.3     1  UNL1       -0.4714
     19 C           7.0485   -3.0181   26.0441 C.2     1  UNL1       -0.0198
     20 C           8.4795   -2.6032   26.2179 C.2     1  UNL1       -0.0302
     21 C           9.0267   -2.3549   27.5922 C.3     1  UNL1        0.0257
     22 C           8.1430   -2.5214   28.7928 C.3     1  UNL1        0.0050
     23 C           6.7121   -2.9362   28.6191 C.3     1  UNL1        0.0050
     24 C           6.1648   -3.1846   27.2447 C.3     1  UNL1        0.0263
     25 C           7.6194   -5.6482   24.1987 C.ar    1  UNL1        0.0195
     26 C           8.6801   -6.1363   23.2571 C.ar    1  UNL1        0.0016
     27 C           9.5359   -7.3091   23.6342 C.ar    1  UNL1        0.0000
     28 C           9.3309   -7.9938   24.9529 C.ar    1  UNL1        0.0000
     29 C           8.2702   -7.5058   25.8945 C.ar    1  UNL1        0.0000
     30 C           7.4144   -6.3330   25.5174 C.ar    1  UNL1        0.0016
     31 N           3.5208    1.0186   23.5840 N.pl3   1  UNL1       -0.1866
     32 H           3.8476    1.8292   23.1308 H       1  UNL1        0.2997
     33 C           2.4306    1.1204   24.6090 C.ar    1  UNL1        0.2214
     34 C           1.0008    1.2459   24.1734 C.ar    1  UNL1        0.0610
     35 C          -0.0895    1.3477   25.1985 C.ar    1  UNL1        0.0068
     36 C           0.2500    1.3240   26.6593 C.ar    1  UNL1        0.0209
     37 C           1.6799    1.1985   27.0951 C.ar    1  UNL1        0.1024
     38 N           2.7701    1.0968   26.0700 N.ar    1  UNL1       -0.2076
@<TRIPOS>BOND
     1    17    18    1
     2    18    11    1
     3    11    12   ar
     4    12    13   ar
     5    13    14   ar
     6    14     1    1
     7     1     2    1
     8     2    31    1
     9    31    33    1
    10    33    34   ar
    11    34    35   ar
    12    35    36   ar
    13    36    37   ar
    14    37    38   ar
    15     2     3    2
    16     3     4    1
    17     4     5   ar
    18     5    19    1
    19    19    20    2
    20    20    21    1
    21    21    22    1
    22    22    23    1
    23    23    24    1
    24     5     6   ar
    25     6    25    1
    26    25    26   ar
    27    26    27   ar
    28    27    28   ar
    29    28    29   ar
    30    29    30   ar
    31     6     7   ar
    32     7     8   ar
    33     8     9   am
    34     9    10    2
    35    14    15   ar
    36    15    16   ar
    37    16    11   ar
    38     9     1    1
    39    38    33   ar
    40     8     4   ar
    41    24    19    1
    42    30    25   ar
    43    31    32    1
@<TRIPOS>MOLECULE
*****
 38 43 0 0 0
SMALL
GASTEIGER

@<TRIPOS>ATOM
      1 C          -1.2670    3.0220   25.0839 C.3     1  UNL1        0.2088
      2 C          -0.5746    1.9144   25.8211 C.2     1  UNL1        0.3171
      3 N           0.5036    1.1217   25.1435 N.2     1  UNL1       -0.0232
      4 C           0.8894    1.4368   23.7286 C.ar    1  UNL1        0.2809
      5 C           1.9072    0.8323   22.8074 C.ar    1  UNL1        0.0772
      6 C           1.8438    1.5664   21.5009 C.ar    1  UNL1        0.1063
      7 N           0.7868    2.6247   21.6146 N.ar    1  UNL1       -0.1596
      8 N           0.1969    2.5445   22.9914 N.ar    1  UNL1       -0.1573
      9 C          -0.8813    3.3372   23.6690 C.2     1  UNL1        0.2752
     10 O          -1.5738    4.4449   22.9318 O.2     1  UNL1       -0.2691
     11 C          -4.5017    5.4000   27.1169 C.ar    1  UNL1        0.1387
     12 C          -4.8657    4.3003   26.1639 C.ar    1  UNL1        0.0366
     13 C          -3.7875    3.5077   25.4862 C.ar    1  UNL1       -0.0001
     14 C          -2.3453    3.8147   25.7616 C.ar    1  UNL1       -0.0018
     15 C          -1.9813    4.9144   26.7147 C.ar    1  UNL1       -0.0001
     16 C          -3.0595    5.7070   27.3923 C.ar    1  UNL1        0.0366
     17 C          -6.9698    6.2034   27.2306 C.3     1  UNL1        0.2525
     18 O          -5.5799    6.1925   27.7945 O.3     1  UNL1       -0.4714
     19 C           2.8269   -0.3064   23.1352 C.2     1  UNL1       -0.0198
     20 C           3.3987   -0.4351   24.5160 C.2     1  UNL1       -0.0302
     21 C           4.3184   -1.5737   24.8437 C.3     1  UNL1        0.0257
     22 C           4.6664   -2.5838   23.7906 C.3     1  UNL1        0.0050
     23 C           4.0947   -2.4551   22.4100 C.3     1  UNL1        0.0050
     24 C           3.1749   -1.3164   22.0822 C.3     1  UNL1        0.0263
     25 C           2.6890    1.2907   20.2928 C.ar    1  UNL1        0.0195
     26 C           2.1176    0.5247   19.1366 C.ar    1  UNL1        0.0016
     27 C           2.9628    0.2489   17.9284 C.ar    1  UNL1        0.0000
     28 C           4.3794    0.7392   17.8765 C.ar    1  UNL1        0.0000
     29 C           4.9509    1.5052   19.0326 C.ar    1  UNL1        0.0000
     30 C           4.1057    1.7810   20.2408 C.ar    1  UNL1        0.0016
     31 N          -0.9604    1.5992   27.2361 N.pl3   1  UNL1       -0.1866
     32 H          -1.9109    1.5392   27.4854 H       1  UNL1        0.2997
     33 C           0.1020    1.3756   28.2710 C.ar    1  UNL1        0.2214
     34 C           0.6856    2.5425   29.0111 C.ar    1  UNL1        0.0610
     35 C           1.7481    2.3189   30.0461 C.ar    1  UNL1        0.0068
     36 C           2.2269    0.9284   30.3410 C.ar    1  UNL1        0.0209
     37 C           1.6433   -0.2386   29.6009 C.ar    1  UNL1        0.1024
     38 N           0.5809   -0.0150   28.5660 N.ar    1  UNL1       -0.2076
@<TRIPOS>BOND
     1    17    18    1
     2    18    11    1
     3    11    12   ar
     4    12    13   ar
     5    13    14   ar
     6    14     1    1
     7     1     2    1
     8     2    31    1
     9    31    33    1
    10    33    34   ar
    11    34    35   ar
    12    35    36   ar
    13    36    37   ar
    14    37    38   ar
    15     2     3    2
    16     3     4    1
    17     4     5   ar
    18     5    19    1
    19    19    20    2
    20    20    21    1
    21    21    22    1
    22    22    23    1
    23    23    24    1
    24     5     6   ar
    25     6    25    1
    26    25    26   ar
    27    26    27   ar
    28    27    28   ar
    29    28    29   ar
    30    29    30   ar
    31     6     7   ar
    32     7     8   ar
    33     8     9   am
    34     9    10    2
    35    14    15   ar
    36    15    16   ar
    37    16    11   ar
    38     9     1    1
    39    38    33   ar
    40     8     4   ar
    41    24    19    1
    42    30    25   ar
    43    31    32    1
@<TRIPOS>MOLECULE
*****
 38 43 0 0 0
SMALL
GASTEIGER

@<TRIPOS>ATOM
      1 C           6.5714   -2.7466   26.4507 C.3     1  UNL1        0.2088
      2 C           7.2101   -3.3706   25.2455 C.2     1  UNL1        0.3171
      3 N           6.6170   -3.1531   23.8851 N.2     1  UNL1       -0.0232
      4 C           5.3851   -2.3115   23.7298 C.ar    1  UNL1        0.2809
      5 C           4.5803   -1.9227   22.5251 C.ar    1  UNL1        0.0772
      6 C           3.4443   -1.0584   22.9858 C.ar    1  UNL1        0.1063
      7 N           3.5468   -0.9129   24.4752 N.ar    1  UNL1       -0.1596
      8 N           4.7463   -1.6874   24.9350 N.ar    1  UNL1       -0.1573
      9 C           5.3394   -1.9049   26.2955 C.2     1  UNL1        0.2752
     10 O           4.7007   -1.2809   27.5008 O.2     1  UNL1       -0.2691
     11 C           8.3509   -3.3993   30.5321 C.ar    1  UNL1        0.1387
     12 C           7.1629   -4.2039   30.0944 C.ar    1  UNL1        0.0366
     13 C           6.5698   -3.9863   28.7340 C.ar    1  UNL1       -0.0001
     14 C           7.1646   -2.9642   27.8112 C.ar    1  UNL1       -0.0018
     15 C           8.3525   -2.1596   28.2489 C.ar    1  UNL1       -0.0001
     16 C           8.9456   -2.3772   29.6093 C.ar    1  UNL1        0.0366
     17 C           9.1620   -2.4511   32.8109 C.3     1  UNL1        0.2525
     18 O           8.9439   -3.6169   31.8925 O.3     1  UNL1       -0.4714
     19 C           4.8622   -2.3272   21.1085 C.2     1  UNL1       -0.0198
     20 C           4.4077   -3.6655   20.6061 C.2     1  UNL1       -0.0302
     21 C           4.6896   -4.0700   19.1895 C.3     1  UNL1        0.0257
     22 C           5.4259   -3.1362   18.2751 C.3     1  UNL1        0.0050
     23 C           5.8804   -1.7980   18.7775 C.3     1  UNL1        0.0050
     24 C           5.5985   -1.3935   20.1943 C.3     1  UNL1        0.0263
     25 C           2.3906   -0.4468   22.1107 C.ar    1  UNL1        0.0195
     26 C           1.6270    0.7544   22.5840 C.ar    1  UNL1        0.0016
     27 C           0.5733    1.3660   21.7089 C.ar    1  UNL1        0.0000
     28 C           0.2832    0.7763   20.3606 C.ar    1  UNL1        0.0000
     29 C           1.0467   -0.4250   19.8873 C.ar    1  UNL1        0.0000
     30 C           2.1005   -1.0366   20.7624 C.ar    1  UNL1        0.0016
     31 N           8.4420   -4.2123   25.4007 N.pl3   1  UNL1       -0.1866
     32 H           9.3097   -3.8795   25.0758 H       1  UNL1        0.2997
     33 C           8.3519   -5.5610   26.0508 C.ar    1  UNL1        0.2214
     34 C           7.3780   -6.5787   25.5352 C.ar    1  UNL1        0.0610
     35 C           7.2879   -7.9275   26.1853 C.ar    1  UNL1        0.0068
     36 C           8.1717   -8.2586   27.3512 C.ar    1  UNL1        0.0209
     37 C           9.1456   -7.2409   27.8669 C.ar    1  UNL1        0.1024
     38 N           9.2357   -5.8922   27.2168 N.ar    1  UNL1       -0.2076
@<TRIPOS>BOND
     1    17    18    1
     2    18    11    1
     3    11    12   ar
     4    12    13   ar
     5    13    14   ar
     6    14     1    1
     7     1     2    1
     8     2    31    1
     9    31    33    1
    10    33    34   ar
    11    34    35   ar
    12    35    36   ar
    13    36    37   ar
    14    37    38   ar
    15     2     3    2
    16     3     4    1
    17     4     5   ar
    18     5    19    1
    19    19    20    2
    20    20    21    1
    21    21    22    1
    22    22    23    1
    23    23    24    1
    24     5     6   ar
    25     6    25    1
    26    25    26   ar
    27    26    27   ar
    28    27    28   ar
    29    28    29   ar
    30    29    30   ar
    31     6     7   ar
    32     7     8   ar
    33     8     9   am
    34     9    10    2
    35    14    15   ar
    36    15    16   ar
    37    16    11   ar
    38     9     1    1
    39    38    33   ar
    40     8     4   ar
    41    24    19    1
    42    30    25   ar
    43    31    32    1
@<TRIPOS>MOLECULE
*****
 38 43 0 0 0
SMALL
GASTEIGER

@<TRIPOS>ATOM
      1 C          -1.7927    3.6440   24.8266 C.3     1  UNL1        0.2088
      2 C          -1.6777    3.9340   23.3595 C.2     1  UNL1        0.3171
      3 N          -0.6805    3.1880   22.5234 N.2     1  UNL1       -0.0232
      4 C           0.2016    2.1519   23.1545 C.ar    1  UNL1        0.2809
      5 C           1.2691    1.2629   22.5886 C.ar    1  UNL1        0.0772
      6 C           1.8138    0.4235   23.7061 C.ar    1  UNL1        0.1063
      7 N           1.0829    0.7936   24.9626 N.ar    1  UNL1       -0.1596
      8 N           0.0866    1.8618   24.6217 N.ar    1  UNL1       -0.1573
      9 C          -0.9106    2.6078   25.4578 C.2     1  UNL1        0.2752
     10 O          -1.0257    2.3178   26.9250 O.2     1  UNL1       -0.2691
     11 C          -4.7843    5.8821   27.3349 C.ar    1  UNL1        0.1387
     12 C          -5.2157    4.6811   26.5466 C.ar    1  UNL1        0.0366
     13 C          -4.2185    3.9351   25.7105 C.ar    1  UNL1       -0.0001
     14 C          -2.7900    4.3901   25.6627 C.ar    1  UNL1       -0.0018
     15 C          -2.3586    5.5911   26.4510 C.ar    1  UNL1       -0.0001
     16 C          -3.3558    6.3371   27.2871 C.ar    1  UNL1        0.0366
     17 C          -7.2234    6.2147   28.1656 C.3     1  UNL1        0.2525
     18 O          -5.7815    6.6281   28.1709 O.3     1  UNL1       -0.4714
     19 C           1.7139    1.2208   21.1567 C.2     1  UNL1       -0.0198
     20 C           2.9983    1.8806   20.7506 C.2     1  UNL1       -0.0302
     21 C           3.4430    1.8384   19.3187 C.3     1  UNL1        0.0257
     22 C           2.6033    1.1365   18.2928 C.3     1  UNL1        0.0050
     23 C           1.3189    0.4768   18.6989 C.3     1  UNL1        0.0050
     24 C           0.8742    0.5190   20.1309 C.3     1  UNL1        0.0263
     25 C           2.8988   -0.6055   23.5877 C.ar    1  UNL1        0.0195
     26 C           3.7641   -0.9225   24.7712 C.ar    1  UNL1        0.0016
     27 C           4.8491   -1.9515   24.6530 C.ar    1  UNL1        0.0000
     28 C           5.0689   -2.6633   23.3511 C.ar    1  UNL1        0.0000
     29 C           4.2037   -2.3463   22.1675 C.ar    1  UNL1        0.0000
     30 C           3.1186   -1.3173   22.2858 C.ar    1  UNL1        0.0016
     31 N          -2.5598    4.9702   22.7283 N.pl3   1  UNL1       -0.1866
     32 H          -2.4286    5.9229   22.9390 H       1  UNL1        0.2997
     33 C          -3.6418    4.5548   21.7762 C.ar    1  UNL1        0.2214
     34 C          -5.0781    4.6031   22.2058 C.ar    1  UNL1        0.0610
     35 C          -6.1602    4.1877   21.2536 C.ar    1  UNL1        0.0068
     36 C          -5.8059    3.7241   19.8718 C.ar    1  UNL1        0.0209
     37 C          -4.3694    3.6758   19.4421 C.ar    1  UNL1        0.1024
     38 N          -3.2875    4.0911   20.3943 N.ar    1  UNL1       -0.2076
@<TRIPOS>BOND
     1    17    18    1
     2    18    11    1
     3    11    12   ar
     4    12    13   ar
     5    13    14   ar
     6    14     1    1
     7     1     2    1
     8     2    31    1
     9    31    33    1
    10    33    34   ar
    11    34    35   ar
    12    35    36   ar
    13    36    37   ar
    14    37    38   ar
    15     2     3    2
    16     3     4    1
    17     4     5   ar
    18     5    19    1
    19    19    20    2
    20    20    21    1
    21    21    22    1
    22    22    23    1
    23    23    24    1
    24     5     6   ar
    25     6    25    1
    26    25    26   ar
    27    26    27   ar
    28    27    28   ar
    29    28    29   ar
    30    29    30   ar
    31     6     7   ar
    32     7     8   ar
    33     8     9   am
    34     9    10    2
    35    14    15   ar
    36    15    16   ar
    37    16    11   ar
    38     9     1    1
    39    38    33   ar
    40     8     4   ar
    41    24    19    1
    42    30    25   ar
    43    31    32    1
@<TRIPOS>MOLECULE
*****
 38 43 0 0 0
SMALL
GASTEIGER

@<TRIPOS>ATOM
      1 C           3.3260   -0.0206   26.7277 C.3     1  UNL1        0.2088
      2 C           2.6138    1.0129   25.9066 C.2     1  UNL1        0.3171
      3 N           2.5345    0.8627   24.4162 N.2     1  UNL1       -0.0232
      4 C           3.1676   -0.3212   23.7471 C.ar    1  UNL1        0.2809
      5 C           3.2515   -0.7343   22.3076 C.ar    1  UNL1        0.0772
      6 C           4.0157   -2.0233   22.2391 C.ar    1  UNL1        0.1063
      7 N           4.4040   -2.4067   23.6363 N.ar    1  UNL1       -0.1596
      8 N           3.8798   -1.3548   24.5683 N.ar    1  UNL1       -0.1573
      9 C           3.9591   -1.2045   26.0586 C.2     1  UNL1        0.2752
     10 O           4.6714   -2.2381   26.8799 O.2     1  UNL1       -0.2691
     11 C           3.5638    0.4301   31.1988 C.ar    1  UNL1        0.1387
     12 C           4.5841    1.0945   30.3227 C.ar    1  UNL1        0.0366
     13 C           4.5048    0.9443   28.8324 C.ar    1  UNL1       -0.0001
     14 C           3.4053    0.1296   28.2182 C.ar    1  UNL1       -0.0018
     15 C           2.3850   -0.5348   29.0943 C.ar    1  UNL1       -0.0001
     16 C           2.4642   -0.3845   30.5846 C.ar    1  UNL1        0.0366
     17 C           2.8239    1.6288   33.3819 C.3     1  UNL1        0.2525
     18 O           3.6431    0.5804   32.6891 O.3     1  UNL1       -0.4714
     19 C           2.6729    0.0106   21.1413 C.2     1  UNL1       -0.0198
     20 C           3.3372    1.2608   20.6456 C.2     1  UNL1       -0.0302
     21 C           2.7586    2.0057   19.4794 C.3     1  UNL1        0.0257
     22 C           1.5156    1.5004   18.8086 C.3     1  UNL1        0.0050
     23 C           0.8513    0.2503   19.3042 C.3     1  UNL1        0.0050
     24 C           1.4300   -0.4947   20.4706 C.3     1  UNL1        0.0263
     25 C           4.3354   -2.7935   20.9923 C.ar    1  UNL1        0.0195
     26 C           5.2033   -2.1803   19.9337 C.ar    1  UNL1        0.0016
     27 C           5.5230   -2.9504   18.6868 C.ar    1  UNL1        0.0000
     28 C           4.9749   -4.3340   18.4986 C.ar    1  UNL1        0.0000
     29 C           4.1071   -4.9472   19.5573 C.ar    1  UNL1        0.0000
     30 C           3.7873   -4.1770   20.8041 C.ar    1  UNL1        0.0016
     31 N           1.9807    2.1968   26.5757 N.pl3   1  UNL1       -0.1866
     32 H           2.4718    2.6893   27.2725 H       1  UNL1        0.2997
     33 C           0.5995    2.6304   26.1832 C.ar    1  UNL1        0.2214
     34 C          -0.5536    2.3932   27.1128 C.ar    1  UNL1        0.0610
     35 C          -1.9349    2.8268   26.7203 C.ar    1  UNL1        0.0068
     36 C          -2.1631    3.4975   25.3981 C.ar    1  UNL1        0.0209
     37 C          -1.0099    3.7347   24.4685 C.ar    1  UNL1        0.1024
     38 N           0.3713    3.3011   24.8610 N.ar    1  UNL1       -0.2076
@<TRIPOS>BOND
     1    17    18    1
     2    18    11    1
     3    11    12   ar
     4    12    13   ar
     5    13    14   ar
     6    14     1    1
     7     1     2    1
     8     2    31    1
     9    31    33    1
    10    33    34   ar
    11    34    35   ar
    12    35    36   ar
    13    36    37   ar
    14    37    38   ar
    15     2     3    2
    16     3     4    1
    17     4     5   ar
    18     5    19    1
    19    19    20    2
    20    20    21    1
    21    21    22    1
    22    22    23    1
    23    23    24    1
    24     5     6   ar
    25     6    25    1
    26    25    26   ar
    27    26    27   ar
    28    27    28   ar
    29    28    29   ar
    30    29    30   ar
    31     6     7   ar
    32     7     8   ar
    33     8     9   am
    34     9    10    2
    35    14    15   ar
    36    15    16   ar
    37    16    11   ar
    38     9     1    1
    39    38    33   ar
    40     8     4   ar
    41    24    19    1
    42    30    25   ar
    43    31    32    1
@<TRIPOS>MOLECULE
*****
 38 43 0 0 0
SMALL
GASTEIGER

@<TRIPOS>ATOM
      1 C           4.9877   -0.9445   27.8441 C.3     1  UNL1        0.2088
      2 C           6.2415   -1.7648   27.7752 C.2     1  UNL1        0.3171
      3 N           6.6039   -2.4755   26.5049 N.2     1  UNL1       -0.0232
      4 C           5.7125   -2.3658   25.3036 C.ar    1  UNL1        0.2809
      5 C           5.8094   -2.9492   23.9251 C.ar    1  UNL1        0.0772
      6 C           4.6155   -2.4895   23.1422 C.ar    1  UNL1        0.1063
      7 N           3.7806   -1.6218   24.0367 N.ar    1  UNL1       -0.1596
      8 N           4.4586   -1.5454   25.3725 N.ar    1  UNL1       -0.1573
      9 C           4.0961   -0.8347   26.6428 C.2     1  UNL1        0.2752
     10 O           2.8422   -0.0143   26.7118 O.2     1  UNL1       -0.2691
     11 C           3.9005    1.1876   31.6550 C.ar    1  UNL1        0.1387
     12 C           3.3463   -0.1779   31.3752 C.ar    1  UNL1        0.0366
     13 C           3.7087   -0.8886   30.1049 C.ar    1  UNL1       -0.0001
     14 C           4.6253   -0.2338   29.1145 C.ar    1  UNL1       -0.0018
     15 C           5.1795    1.1317   29.3943 C.ar    1  UNL1       -0.0001
     16 C           4.8171    1.8424   30.6646 C.ar    1  UNL1        0.0366
     17 C           2.0987    2.1713   33.2475 C.3     1  UNL1        0.2525
     18 O           3.5380    1.8981   32.9253 O.3     1  UNL1       -0.4714
     19 C           6.9075   -3.8367   23.4185 C.2     1  UNL1       -0.0198
     20 C           7.2217   -5.1205   24.1278 C.2     1  UNL1       -0.0302
     21 C           8.3198   -6.0079   23.6212 C.3     1  UNL1        0.0257
     22 C           9.1038   -5.6115   22.4053 C.3     1  UNL1        0.0050
     23 C           8.7896   -4.3277   21.6961 C.3     1  UNL1        0.0050
     24 C           7.6914   -3.4403   22.2027 C.3     1  UNL1        0.0263
     25 C           4.3100   -2.8364   21.7152 C.ar    1  UNL1        0.0195
     26 C           4.1103   -1.7462   20.7044 C.ar    1  UNL1        0.0016
     27 C           3.8049   -2.0931   19.2774 C.ar    1  UNL1        0.0000
     28 C           3.6991   -3.5303   18.8611 C.ar    1  UNL1        0.0000
     29 C           3.8988   -4.6205   19.8718 C.ar    1  UNL1        0.0000
     30 C           4.2042   -4.2736   21.2989 C.ar    1  UNL1        0.0016
     31 N           7.1331   -1.8746   28.9765 N.pl3   1  UNL1       -0.1866
     32 H           7.7796   -1.1596   29.1767 H       1  UNL1        0.2997
     33 C           7.0395   -3.0735   29.8729 C.ar    1  UNL1        0.2214
     34 C           6.6681   -2.9038   31.3162 C.ar    1  UNL1        0.0610
     35 C           6.5745   -4.1028   32.2127 C.ar    1  UNL1        0.0068
     36 C           6.8525   -5.4716   31.6658 C.ar    1  UNL1        0.0209
     37 C           7.2240   -5.6414   30.2224 C.ar    1  UNL1        0.1024
     38 N           7.3175   -4.4424   29.3260 N.ar    1  UNL1       -0.2076
@<TRIPOS>BOND
     1    17    18    1
     2    18    11    1
     3    11    12   ar
     4    12    13   ar
     5    13    14   ar
     6    14     1    1
     7     1     2    1
     8     2    31    1
     9    31    33    1
    10    33    34   ar
    11    34    35   ar
    12    35    36   ar
    13    36    37   ar
    14    37    38   ar
    15     2     3    2
    16     3     4    1
    17     4     5   ar
    18     5    19    1
    19    19    20    2
    20    20    21    1
    21    21    22    1
    22    22    23    1
    23    23    24    1
    24     5     6   ar
    25     6    25    1
    26    25    26   ar
    27    26    27   ar
    28    27    28   ar
    29    28    29   ar
    30    29    30   ar
    31     6     7   ar
    32     7     8   ar
    33     8     9   am
    34     9    10    2
    35    14    15   ar
    36    15    16   ar
    37    16    11   ar
    38     9     1    1
    39    38    33   ar
    40     8     4   ar
    41    24    19    1
    42    30    25   ar
    43    31    32    1
@<TRIPOS>MOLECULE
*****
 38 43 0 0 0
SMALL
GASTEIGER

@<TRIPOS>ATOM
      1 C           1.7912    1.4344   20.5712 C.3     1  UNL1        0.2088
      2 C           2.0723    1.8969   21.9701 C.2     1  UNL1        0.3171
      3 N           1.0052    2.5988   22.7566 N.2     1  UNL1       -0.0232
      4 C          -0.3431    2.8381   22.1443 C.ar    1  UNL1        0.2809
      5 C          -1.5824    3.4978   22.6722 C.ar    1  UNL1        0.0772
      6 C          -2.6295    3.4429   21.5995 C.ar    1  UNL1        0.1063
      7 N          -2.0373    2.7493   20.4086 N.ar    1  UNL1       -0.1596
      8 N          -0.6242    2.3755   20.7453 N.ar    1  UNL1       -0.1573
      9 C           0.4429    1.6736   19.9588 C.2     1  UNL1        0.2752
     10 O           0.1618    1.2110   18.5598 O.2     1  UNL1       -0.2691
     11 C           4.9925   -0.6713   18.2116 C.ar    1  UNL1        0.1387
     12 C           4.8715    0.8223   18.1448 C.ar    1  UNL1        0.0366
     13 C           3.8044    1.5242   18.9314 C.ar    1  UNL1       -0.0001
     14 C           2.8583    0.7325   19.7846 C.ar    1  UNL1       -0.0018
     15 C           2.9794   -0.7612   19.8514 C.ar    1  UNL1       -0.0001
     16 C           4.0465   -1.4631   19.0649 C.ar    1  UNL1        0.0366
     17 C           7.1091   -2.1760   18.1349 C.3     1  UNL1        0.2525
     18 O           6.0596   -1.3731   17.4250 O.3     1  UNL1       -0.4714
     19 C          -1.7460    4.1057   24.0337 C.2     1  UNL1       -0.0198
     20 C          -2.0203    3.2280   25.2189 C.2     1  UNL1       -0.0302
     21 C          -2.1839    3.8360   26.5803 C.3     1  UNL1        0.0257
     22 C          -2.0732    5.3215   26.7567 C.3     1  UNL1        0.0050
     23 C          -1.7990    6.1991   25.5716 C.3     1  UNL1        0.0050
     24 C          -1.6354    5.5911   24.2100 C.3     1  UNL1        0.0263
     25 C          -4.0240    3.9863   21.7001 C.ar    1  UNL1        0.0195
     26 C          -5.0048    3.3640   22.6492 C.ar    1  UNL1        0.0016
     27 C          -6.3993    3.9074   22.7499 C.ar    1  UNL1        0.0000
     28 C          -6.8131    5.0730   21.9013 C.ar    1  UNL1        0.0000
     29 C          -5.8323    5.6952   20.9521 C.ar    1  UNL1        0.0000
     30 C          -4.4378    5.1519   20.8515 C.ar    1  UNL1        0.0016
     31 N           3.4205    1.6577   22.5825 N.pl3   1  UNL1       -0.1866
     32 H           4.2052    2.1535   22.2544 H       1  UNL1        0.2997
     33 C           3.5732    0.6631   23.6948 C.ar    1  UNL1        0.2214
     34 C           4.0726   -0.7204   23.4006 C.ar    1  UNL1        0.0610
     35 C           4.2253   -1.7151   24.5130 C.ar    1  UNL1        0.0068
     36 C           3.8786   -1.3263   25.9196 C.ar    1  UNL1        0.0209
     37 C           3.3792    0.0573   26.2139 C.ar    1  UNL1        0.1024
     38 N           3.2265    1.0519   25.1015 N.ar    1  UNL1       -0.2076
@<TRIPOS>BOND
     1    17    18    1
     2    18    11    1
     3    11    12   ar
     4    12    13   ar
     5    13    14   ar
     6    14     1    1
     7     1     2    1
     8     2    31    1
     9    31    33    1
    10    33    34   ar
    11    34    35   ar
    12    35    36   ar
    13    36    37   ar
    14    37    38   ar
    15     2     3    2
    16     3     4    1
    17     4     5   ar
    18     5    19    1
    19    19    20    2
    20    20    21    1
    21    21    22    1
    22    22    23    1
    23    23    24    1
    24     5     6   ar
    25     6    25    1
    26    25    26   ar
    27    26    27   ar
    28    27    28   ar
    29    28    29   ar
    30    29    30   ar
    31     6     7   ar
    32     7     8   ar
    33     8     9   am
    34     9    10    2
    35    14    15   ar
    36    15    16   ar
    37    16    11   ar
    38     9     1    1
    39    38    33   ar
    40     8     4   ar
    41    24    19    1
    42    30    25   ar
    43    31    32    1
@<TRIPOS>MOLECULE
*****
 38 43 0 0 0
SMALL
GASTEIGER

@<TRIPOS>ATOM
      1 C           5.2691   -1.2832   29.9591 C.3     1  UNL1        0.2088
      2 C           6.5349   -1.8821   29.4216 C.2     1  UNL1        0.3171
      3 N           6.7012   -2.0833   27.9445 N.2     1  UNL1       -0.0232
      4 C           5.6017   -1.6855   27.0049 C.ar    1  UNL1        0.2809
      5 C           5.4804   -1.7626   25.5118 C.ar    1  UNL1        0.0772
      6 C           4.1396   -1.2113   25.1266 C.ar    1  UNL1        0.1063
      7 N           3.4322   -0.7935   26.3816 N.ar    1  UNL1       -0.1596
      8 N           4.3358   -1.0865   27.5425 N.ar    1  UNL1       -0.1573
      9 C           4.1695   -0.8854   29.0196 C.2     1  UNL1        0.2752
     10 O           2.9037   -0.2864   29.5572 O.2     1  UNL1       -0.2691
     11 C           4.7702   -0.6796   34.3905 C.ar    1  UNL1        0.1387
     12 C           4.2887   -1.9462   33.7472 C.ar    1  UNL1        0.0366
     13 C           4.4550   -2.1474   32.2701 C.ar    1  UNL1       -0.0001
     14 C           5.1028   -1.0820   31.4363 C.ar    1  UNL1       -0.0018
     15 C           5.5844    0.1846   32.0796 C.ar    1  UNL1       -0.0001
     16 C           5.4181    0.3858   33.5567 C.ar    1  UNL1        0.0366
     17 C           5.7617   -0.0044   36.6951 C.3     1  UNL1        0.2525
     18 O           4.6039   -0.4785   35.8676 O.3     1  UNL1       -0.4714
     19 C           6.5177   -2.2972   24.5694 C.2     1  UNL1       -0.0198
     20 C           7.4017   -1.3511   23.8120 C.2     1  UNL1       -0.0302
     21 C           8.4390   -1.8858   22.8697 C.3     1  UNL1        0.0257
     22 C           8.5923   -3.3664   22.6846 C.3     1  UNL1        0.0050
     23 C           7.7084   -4.3124   23.4419 C.3     1  UNL1        0.0050
     24 C           6.6711   -3.7778   24.3844 C.3     1  UNL1        0.0263
     25 C           3.6008   -1.0978   23.7313 C.ar    1  UNL1        0.0195
     26 C           2.6665    0.0209   23.3768 C.ar    1  UNL1        0.0016
     27 C           2.1277    0.1344   21.9815 C.ar    1  UNL1        0.0000
     28 C           2.5232   -0.8707   20.9407 C.ar    1  UNL1        0.0000
     29 C           3.4574   -1.9894   21.2953 C.ar    1  UNL1        0.0000
     30 C           3.9963   -2.1030   22.6905 C.ar    1  UNL1        0.0016
     31 N           7.6345   -2.2799   30.3612 N.pl3   1  UNL1       -0.1866
     32 H           8.1306   -1.5902   30.8585 H       1  UNL1        0.2997
     33 C           7.9781   -3.7286   30.5430 C.ar    1  UNL1        0.2214
     34 C           7.1122   -4.6030   31.4006 C.ar    1  UNL1        0.0610
     35 C           7.4559   -6.0517   31.5825 C.ar    1  UNL1        0.0068
     36 C           8.6655   -6.6261   30.9066 C.ar    1  UNL1        0.0209
     37 C           9.5315   -5.7517   30.0489 C.ar    1  UNL1        0.1024
     38 N           9.1879   -4.3030   29.8671 N.ar    1  UNL1       -0.2076
@<TRIPOS>BOND
     1    17    18    1
     2    18    11    1
     3    11    12   ar
     4    12    13   ar
     5    13    14   ar
     6    14     1    1
     7     1     2    1
     8     2    31    1
     9    31    33    1
    10    33    34   ar
    11    34    35   ar
    12    35    36   ar
    13    36    37   ar
    14    37    38   ar
    15     2     3    2
    16     3     4    1
    17     4     5   ar
    18     5    19    1
    19    19    20    2
    20    20    21    1
    21    21    22    1
    22    22    23    1
    23    23    24    1
    24     5     6   ar
    25     6    25    1
    26    25    26   ar
    27    26    27   ar
    28    27    28   ar
    29    28    29   ar
    30    29    30   ar
    31     6     7   ar
    32     7     8   ar
    33     8     9   am
    34     9    10    2
    35    14    15   ar
    36    15    16   ar
    37    16    11   ar
    38     9     1    1
    39    38    33   ar
    40     8     4   ar
    41    24    19    1
    42    30    25   ar
    43    31    32    1
