@<TRIPOS>MOLECULE
*****
 31 33 0 0 0
SMALL
GASTEIGER

@<TRIPOS>ATOM
      1 N         -12.1344  -18.3918   21.2128 N.3     1  UNL1       -0.2972
      2 H         -12.8789  -19.0886   21.1897 H       1  UNL1        0.1233
      3 C         -10.8212  -17.9034   19.6200 C.3     1  UNL1        0.0161
      4 C         -10.9229  -19.0321   20.6026 C.3     1  UNL1        0.0461
      5 C         -11.0246  -20.1609   21.5852 C.3     1  UNL1        0.0161
      6 C          -9.7115  -19.6725   19.9924 C.3     1  UNL1        0.0408
      7 C          -8.3639  -19.4804   20.6227 C.ar    1  UNL1       -0.0209
      8 C          -8.2420  -18.7402   21.9216 C.ar    1  UNL1       -0.0042
      9 C          -6.8945  -18.5481   22.5519 C.ar    1  UNL1       -0.0003
     10 C          -5.6688  -19.0963   21.8832 C.ar    1  UNL1       -0.0000
     11 C          -4.3213  -18.9042   22.5135 C.ar    1  UNL1       -0.0000
     12 C          -3.0956  -19.4524   21.8449 C.ar    1  UNL1       -0.0000
     13 C          -3.2174  -20.1926   20.5459 C.ar    1  UNL1       -0.0000
     14 C          -4.5649  -20.3847   19.9156 C.ar    1  UNL1       -0.0000
     15 C          -5.7906  -19.8365   20.5843 C.ar    1  UNL1       -0.0003
     16 C          -7.1382  -20.0286   19.9540 C.ar    1  UNL1       -0.0042
     17 C         -12.0777  -17.8649   22.6161 C.3     1  UNL1        0.1020
     18 C         -11.1294  -16.7556   22.9630 C.3     1  UNL1        0.1697
     19 O         -11.0644  -15.5281   22.1032 O.3     1  UNL1       -0.3793
     20 H         -11.6951  -15.6124   21.3710 H       1  UNL1        0.2106
     21 C         -10.2462  -16.8737   24.1696 C.3     1  UNL1        0.2358
     22 O          -9.6903  -15.6395   24.8159 O.3     1  UNL1       -0.4721
     23 C          -8.2445  -15.5868   25.2123 C.ar    1  UNL1        0.1490
     24 C          -7.8545  -15.7568   26.6506 C.ar    1  UNL1        0.0377
     25 C          -6.4089  -15.7041   27.0470 C.ar    1  UNL1        0.0040
     26 C          -5.3531  -15.4813   26.0050 C.ar    1  UNL1        0.0123
     27 C          -5.7431  -15.3113   24.5666 C.ar    1  UNL1        0.0702
     28 CL         -4.6874  -15.0885   23.5246 Cl      1  UNL1       -0.0814
     29 C          -7.1888  -15.3640   24.1702 C.ar    1  UNL1        0.1128
     30 C          -7.5788  -15.1939   22.7318 C.1     1  UNL1        0.1043
     31 N          -7.9689  -15.0240   21.2934 N.1     1  UNL1       -0.1907
@<TRIPOS>BOND
     1     3     4    1
     2     4     5    1
     3     4     6    1
     4     6     7    1
     5     7     8   ar
     6     8     9   ar
     7     9    10   ar
     8    10    11   ar
     9    11    12   ar
    10    12    13   ar
    11    13    14   ar
    12    14    15   ar
    13    15    16   ar
    14     4     1    1
    15     1    17    1
    16    17    18    1
    17    18    19    1
    18    18    21    1
    19    21    22    1
    20    22    23    1
    21    23    24   ar
    22    24    25   ar
    23    25    26   ar
    24    26    27   ar
    25    27    28    1
    26    27    29   ar
    27    29    30    1
    28    30    31    3
    29    16     7   ar
    30    29    23   ar
    31    15    10   ar
    32     1     2    1
    33    19    20    1
@<TRIPOS>MOLECULE
*****
 31 33 0 0 0
SMALL
GASTEIGER

@<TRIPOS>ATOM
      1 N          -4.5690  -18.8258   20.8303 N.3     1  UNL1       -0.2972
      2 H          -4.9268  -17.9310   20.4960 H       1  UNL1        0.1233
      3 C          -6.0087  -18.5267   22.3592 C.3     1  UNL1        0.0161
      4 C          -5.7475  -19.5990   21.3434 C.3     1  UNL1        0.0461
      5 C          -5.4862  -20.6713   20.3276 C.3     1  UNL1        0.0161
      6 C          -6.9259  -20.3723   21.8565 C.3     1  UNL1        0.0408
      7 C          -8.2898  -19.7478   21.8576 C.ar    1  UNL1       -0.0209
      8 C          -8.8462  -19.1593   20.5950 C.ar    1  UNL1       -0.0042
      9 C         -10.2101  -18.5349   20.5961 C.ar    1  UNL1       -0.0003
     10 C         -11.0175  -18.4989   21.8598 C.ar    1  UNL1       -0.0000
     11 C         -12.3813  -17.8745   21.8608 C.ar    1  UNL1       -0.0000
     12 C         -13.1887  -17.8385   23.1244 C.ar    1  UNL1       -0.0000
     13 C         -12.6323  -18.4270   24.3870 C.ar    1  UNL1       -0.0000
     14 C         -11.2685  -19.0514   24.3859 C.ar    1  UNL1       -0.0000
     15 C         -10.4611  -19.0874   23.1223 C.ar    1  UNL1       -0.0003
     16 C          -9.0972  -19.7119   23.1212 C.ar    1  UNL1       -0.0042
     17 C          -3.4187  -18.5186   21.7427 C.3     1  UNL1        0.1020
     18 C          -3.1306  -17.0996   22.1347 C.3     1  UNL1        0.1697
     19 O          -2.3672  -16.2046   21.2039 O.3     1  UNL1       -0.3793
     20 H          -2.1367  -16.6956   20.3997 H       1  UNL1        0.2106
     21 C          -3.6059  -16.5757   23.4574 C.3     1  UNL1        0.2358
     22 O          -4.6547  -15.5044   23.5067 O.3     1  UNL1       -0.4721
     23 C          -5.6978  -15.5251   24.5845 C.ar    1  UNL1        0.1490
     24 C          -5.2868  -15.6151   26.0243 C.ar    1  UNL1        0.0377
     25 C          -6.3299  -15.6358   27.1020 C.ar    1  UNL1        0.0040
     26 C          -7.7839  -15.5664   26.7400 C.ar    1  UNL1        0.0123
     27 C          -8.1948  -15.4763   25.3002 C.ar    1  UNL1        0.0702
     28 CL         -9.6488  -15.4069   24.9382 Cl      1  UNL1       -0.0814
     29 C          -7.1518  -15.4557   24.2225 C.ar    1  UNL1        0.1128
     30 C          -7.5627  -15.3656   22.7826 C.1     1  UNL1        0.1043
     31 N          -7.9736  -15.2755   21.3429 N.1     1  UNL1       -0.1907
@<TRIPOS>BOND
     1     3     4    1
     2     4     5    1
     3     4     6    1
     4     6     7    1
     5     7     8   ar
     6     8     9   ar
     7     9    10   ar
     8    10    11   ar
     9    11    12   ar
    10    12    13   ar
    11    13    14   ar
    12    14    15   ar
    13    15    16   ar
    14     4     1    1
    15     1    17    1
    16    17    18    1
    17    18    19    1
    18    18    21    1
    19    21    22    1
    20    22    23    1
    21    23    24   ar
    22    24    25   ar
    23    25    26   ar
    24    26    27   ar
    25    27    28    1
    26    27    29   ar
    27    29    30    1
    28    30    31    3
    29    16     7   ar
    30    29    23   ar
    31    15    10   ar
    32     1     2    1
    33    19    20    1
@<TRIPOS>MOLECULE
*****
 31 33 0 0 0
SMALL
GASTEIGER

@<TRIPOS>ATOM
      1 N          -9.3038  -18.9895   21.4836 N.3     1  UNL1       -0.2972
      2 H          -9.7774  -18.9541   20.5809 H       1  UNL1        0.1233
      3 C          -8.0311  -19.2557   19.8075 C.3     1  UNL1        0.0161
      4 C          -7.9799  -19.6557   21.2523 C.3     1  UNL1        0.0461
      5 C          -7.9288  -20.0556   22.6971 C.3     1  UNL1        0.0161
      6 C          -6.6560  -20.3218   21.0210 C.3     1  UNL1        0.0408
      7 C          -5.3870  -19.5316   21.1447 C.ar    1  UNL1       -0.0209
      8 C          -5.0332  -18.8803   22.4488 C.ar    1  UNL1       -0.0042
      9 C          -3.7643  -18.0901   22.5725 C.ar    1  UNL1       -0.0003
     10 C          -2.8491  -17.9512   21.3922 C.ar    1  UNL1       -0.0000
     11 C          -1.5802  -17.1610   21.5159 C.ar    1  UNL1       -0.0000
     12 C          -0.6650  -17.0221   20.3356 C.ar    1  UNL1       -0.0000
     13 C          -1.0188  -17.6735   19.0315 C.ar    1  UNL1       -0.0000
     14 C          -2.2878  -18.4637   18.9078 C.ar    1  UNL1       -0.0000
     15 C          -3.2029  -18.6025   20.0881 C.ar    1  UNL1       -0.0003
     16 C          -4.4719  -19.3927   19.9644 C.ar    1  UNL1       -0.0042
     17 C         -10.2784  -19.5769   22.4610 C.3     1  UNL1        0.1020
     18 C         -10.9381  -18.6982   23.4822 C.3     1  UNL1        0.1697
     19 O         -12.3644  -18.2724   23.2960 O.3     1  UNL1       -0.3793
     20 H         -12.7093  -18.6493   22.4715 H       1  UNL1        0.2106
     21 C         -10.1717  -18.2454   24.6894 C.3     1  UNL1        0.2358
     22 O          -9.8873  -16.7869   24.8937 O.3     1  UNL1       -0.4721
     23 C          -8.5433  -16.3478   25.3947 C.ar    1  UNL1        0.1490
     24 C          -8.2741  -16.2924   26.8693 C.ar    1  UNL1        0.0377
     25 C          -6.9301  -15.8533   27.3703 C.ar    1  UNL1        0.0040
     26 C          -5.8554  -15.4698   26.3967 C.ar    1  UNL1        0.0123
     27 C          -6.1246  -15.5252   24.9221 C.ar    1  UNL1        0.0702
     28 CL         -5.0499  -15.1417   23.9485 Cl      1  UNL1       -0.0814
     29 C          -7.4685  -15.9643   24.4211 C.ar    1  UNL1        0.1128
     30 C          -7.7378  -16.0198   22.9465 C.1     1  UNL1        0.1043
     31 N          -8.0070  -16.0752   21.4719 N.1     1  UNL1       -0.1907
@<TRIPOS>BOND
     1     3     4    1
     2     4     5    1
     3     4     6    1
     4     6     7    1
     5     7     8   ar
     6     8     9   ar
     7     9    10   ar
     8    10    11   ar
     9    11    12   ar
    10    12    13   ar
    11    13    14   ar
    12    14    15   ar
    13    15    16   ar
    14     4     1    1
    15     1    17    1
    16    17    18    1
    17    18    19    1
    18    18    21    1
    19    21    22    1
    20    22    23    1
    21    23    24   ar
    22    24    25   ar
    23    25    26   ar
    24    26    27   ar
    25    27    28    1
    26    27    29   ar
    27    29    30    1
    28    30    31    3
    29    16     7   ar
    30    29    23   ar
    31    15    10   ar
    32     1     2    1
    33    19    20    1
@<TRIPOS>MOLECULE
*****
 31 33 0 0 0
SMALL
GASTEIGER

@<TRIPOS>ATOM
      1 N          -2.0446  -18.6151   20.7678 N.3     1  UNL1       -0.2972
      2 H          -1.9541  -17.8908   20.0554 H       1  UNL1        0.1233
      3 C          -3.0120  -20.3127   21.5940 C.3     1  UNL1        0.0161
      4 C          -3.2696  -19.4097   20.4242 C.3     1  UNL1        0.0461
      5 C          -3.5272  -18.5067   19.2545 C.3     1  UNL1        0.0161
      6 C          -4.4946  -20.2043   20.0806 C.3     1  UNL1        0.0408
      7 C          -5.8343  -19.7823   20.6071 C.ar    1  UNL1       -0.0209
      8 C          -5.9595  -19.2616   22.0082 C.ar    1  UNL1       -0.0042
      9 C          -7.2992  -18.8396   22.5346 C.ar    1  UNL1       -0.0003
     10 C          -8.5138  -18.9384   21.6599 C.ar    1  UNL1       -0.0000
     11 C          -9.8534  -18.5164   22.1863 C.ar    1  UNL1       -0.0000
     12 C         -11.0680  -18.6152   21.3116 C.ar    1  UNL1       -0.0000
     13 C         -10.9428  -19.1359   19.9105 C.ar    1  UNL1       -0.0000
     14 C          -9.6031  -19.5579   19.3841 C.ar    1  UNL1       -0.0000
     15 C          -8.3886  -19.4591   20.2588 C.ar    1  UNL1       -0.0003
     16 C          -7.0488  -19.8811   19.7324 C.ar    1  UNL1       -0.0042
     17 C          -1.9444  -17.9290   22.0980 C.3     1  UNL1        0.1020
     18 C          -2.7529  -16.6948   22.3681 C.3     1  UNL1        0.1697
     19 O          -2.4666  -15.4306   21.6133 O.3     1  UNL1       -0.3793
     20 H          -1.7349  -15.5820   20.9947 H       1  UNL1        0.2106
     21 C          -3.8477  -16.7248   23.3931 C.3     1  UNL1        0.2358
     22 O          -4.7477  -15.5370   23.5641 O.3     1  UNL1       -0.4721
     23 C          -5.8144  -15.5500   24.6186 C.ar    1  UNL1        0.1490
     24 C          -5.4369  -15.6627   26.0659 C.ar    1  UNL1        0.0377
     25 C          -6.5036  -15.6757   27.1204 C.ar    1  UNL1        0.0040
     26 C          -7.9478  -15.5760   26.7276 C.ar    1  UNL1        0.0123
     27 C          -8.3253  -15.4633   25.2803 C.ar    1  UNL1        0.0702
     28 CL         -9.7695  -15.3636   24.8874 Cl      1  UNL1       -0.0814
     29 C          -7.2586  -15.4503   24.2258 C.ar    1  UNL1        0.1128
     30 C          -7.6361  -15.3376   22.7784 C.1     1  UNL1        0.1043
     31 N          -8.0135  -15.2250   21.3311 N.1     1  UNL1       -0.1907
@<TRIPOS>BOND
     1     3     4    1
     2     4     5    1
     3     4     6    1
     4     6     7    1
     5     7     8   ar
     6     8     9   ar
     7     9    10   ar
     8    10    11   ar
     9    11    12   ar
    10    12    13   ar
    11    13    14   ar
    12    14    15   ar
    13    15    16   ar
    14     4     1    1
    15     1    17    1
    16    17    18    1
    17    18    19    1
    18    18    21    1
    19    21    22    1
    20    22    23    1
    21    23    24   ar
    22    24    25   ar
    23    25    26   ar
    24    26    27   ar
    25    27    28    1
    26    27    29   ar
    27    29    30    1
    28    30    31    3
    29    16     7   ar
    30    29    23   ar
    31    15    10   ar
    32     1     2    1
    33    19    20    1
@<TRIPOS>MOLECULE
*****
 31 33 0 0 0
SMALL
GASTEIGER

@<TRIPOS>ATOM
      1 N          -9.3164  -19.0102   21.7697 N.3     1  UNL1       -0.2972
      2 H          -9.2890  -18.5757   22.6921 H       1  UNL1        0.1233
      3 C          -8.0404  -20.2070   22.9694 C.3     1  UNL1        0.0161
      4 C          -7.9893  -19.6790   21.5664 C.3     1  UNL1        0.0461
      5 C          -7.9381  -19.1510   20.1633 C.3     1  UNL1        0.0161
      6 C          -6.6621  -20.3478   21.3630 C.3     1  UNL1        0.0408
      7 C          -5.4011  -19.5358   21.3901 C.ar    1  UNL1       -0.0209
      8 C          -5.0193  -18.7846   22.6310 C.ar    1  UNL1       -0.0042
      9 C          -3.7583  -17.9727   22.6581 C.ar    1  UNL1       -0.0003
     10 C          -2.8792  -17.9119   21.4442 C.ar    1  UNL1       -0.0000
     11 C          -1.6183  -17.1000   21.4712 C.ar    1  UNL1       -0.0000
     12 C          -0.7392  -17.0393   20.2574 C.ar    1  UNL1       -0.0000
     13 C          -1.1210  -17.7905   19.0165 C.ar    1  UNL1       -0.0000
     14 C          -2.3819  -18.6024   18.9894 C.ar    1  UNL1       -0.0000
     15 C          -3.2610  -18.6632   20.2032 C.ar    1  UNL1       -0.0003
     16 C          -4.5220  -19.4751   20.1762 C.ar    1  UNL1       -0.0042
     17 C          -9.7803  -17.9563   20.8083 C.3     1  UNL1        0.1020
     18 C         -10.0250  -16.5570   21.2901 C.3     1  UNL1        0.1697
     19 O         -11.4099  -15.9819   21.2514 O.3     1  UNL1       -0.3793
     20 H         -12.0236  -16.6407   20.8903 H       1  UNL1        0.2106
     21 C          -8.8850  -15.7328   21.8106 C.3     1  UNL1        0.2358
     22 O          -7.6840  -16.4055   22.4065 O.3     1  UNL1       -0.4721
     23 C          -7.2522  -16.0696   23.8033 C.ar    1  UNL1        0.1490
     24 C          -5.9735  -15.3199   24.0332 C.ar    1  UNL1        0.0377
     25 C          -5.5418  -14.9841   25.4299 C.ar    1  UNL1        0.0040
     26 C          -6.3888  -15.3980   26.5966 C.ar    1  UNL1        0.0123
     27 C          -7.6674  -16.1477   26.3667 C.ar    1  UNL1        0.0702
     28 CL         -8.5144  -16.5616   27.5335 Cl      1  UNL1       -0.0814
     29 C          -8.0992  -16.4835   24.9700 C.ar    1  UNL1        0.1128
     30 C          -9.3779  -17.2332   24.7400 C.1     1  UNL1        0.1043
     31 N         -10.6565  -17.9830   24.5101 N.1     1  UNL1       -0.1907
@<TRIPOS>BOND
     1     3     4    1
     2     4     5    1
     3     4     6    1
     4     6     7    1
     5     7     8   ar
     6     8     9   ar
     7     9    10   ar
     8    10    11   ar
     9    11    12   ar
    10    12    13   ar
    11    13    14   ar
    12    14    15   ar
    13    15    16   ar
    14     4     1    1
    15     1    17    1
    16    17    18    1
    17    18    19    1
    18    18    21    1
    19    21    22    1
    20    22    23    1
    21    23    24   ar
    22    24    25   ar
    23    25    26   ar
    24    26    27   ar
    25    27    28    1
    26    27    29   ar
    27    29    30    1
    28    30    31    3
    29    16     7   ar
    30    29    23   ar
    31    15    10   ar
    32     1     2    1
    33    19    20    1
@<TRIPOS>MOLECULE
*****
 31 33 0 0 0
SMALL
GASTEIGER

@<TRIPOS>ATOM
      1 N          -6.1873  -14.7554   25.6970 N.3     1  UNL1       -0.2972
      2 H          -5.9191  -14.3716   26.6032 H       1  UNL1        0.1233
      3 C          -7.9677  -14.7895   24.5442 C.3     1  UNL1        0.0161
      4 C          -7.5503  -15.3578   25.8682 C.3     1  UNL1        0.0461
      5 C          -7.1330  -15.9260   27.1922 C.3     1  UNL1        0.0161
      6 C          -8.9134  -15.9601   26.0394 C.3     1  UNL1        0.0408
      7 C          -9.3959  -17.0083   25.0809 C.ar    1  UNL1       -0.0209
      8 C          -9.6466  -18.4066   25.5625 C.ar    1  UNL1       -0.0042
      9 C         -10.1291  -19.4547   24.6041 C.ar    1  UNL1       -0.0003
     10 C         -10.3609  -19.1046   23.1641 C.ar    1  UNL1       -0.0000
     11 C         -10.8434  -20.1527   22.2057 C.ar    1  UNL1       -0.0000
     12 C         -11.0752  -19.8026   20.7657 C.ar    1  UNL1       -0.0000
     13 C         -10.8245  -18.4043   20.2841 C.ar    1  UNL1       -0.0000
     14 C         -10.3420  -17.3562   21.2424 C.ar    1  UNL1       -0.0000
     15 C         -10.1102  -17.7063   22.6824 C.ar    1  UNL1       -0.0003
     16 C          -9.6277  -16.6581   23.6409 C.ar    1  UNL1       -0.0042
     17 C          -5.0437  -15.6076   25.2320 C.3     1  UNL1        0.1020
     18 C          -4.6536  -15.6139   23.7837 C.3     1  UNL1        0.1697
     19 O          -5.0083  -14.4500   22.9064 O.3     1  UNL1       -0.3793
     20 H          -5.4842  -13.7850   23.4281 H       1  UNL1        0.2106
     21 C          -3.9088  -16.7839   23.2126 C.3     1  UNL1        0.2358
     22 O          -4.4038  -18.1790   23.4554 O.3     1  UNL1       -0.4721
     23 C          -5.1277  -18.9176   22.3689 C.ar    1  UNL1        0.1490
     24 C          -6.6252  -18.8689   22.2981 C.ar    1  UNL1        0.0377
     25 C          -7.3490  -19.6075   21.2117 C.ar    1  UNL1        0.0040
     26 C          -6.5754  -20.3948   20.1960 C.ar    1  UNL1        0.0123
     27 C          -5.0779  -20.4435   20.2667 C.ar    1  UNL1        0.0702
     28 CL         -4.3042  -21.2308   19.2511 Cl      1  UNL1       -0.0814
     29 C          -4.3540  -19.7049   21.3532 C.ar    1  UNL1        0.1128
     30 C          -2.8564  -19.7535   21.4240 C.1     1  UNL1        0.1043
     31 N          -1.3589  -19.8022   21.4949 N.1     1  UNL1       -0.1907
@<TRIPOS>BOND
     1     3     4    1
     2     4     5    1
     3     4     6    1
     4     6     7    1
     5     7     8   ar
     6     8     9   ar
     7     9    10   ar
     8    10    11   ar
     9    11    12   ar
    10    12    13   ar
    11    13    14   ar
    12    14    15   ar
    13    15    16   ar
    14     4     1    1
    15     1    17    1
    16    17    18    1
    17    18    19    1
    18    18    21    1
    19    21    22    1
    20    22    23    1
    21    23    24   ar
    22    24    25   ar
    23    25    26   ar
    24    26    27   ar
    25    27    28    1
    26    27    29   ar
    27    29    30    1
    28    30    31    3
    29    16     7   ar
    30    29    23   ar
    31    15    10   ar
    32     1     2    1
    33    19    20    1
@<TRIPOS>MOLECULE
*****
 31 33 0 0 0
SMALL
GASTEIGER

@<TRIPOS>ATOM
      1 N          -9.4098  -19.0705   21.8742 N.3     1  UNL1       -0.2972
      2 H          -9.3048  -18.5084   22.7189 H       1  UNL1        0.1233
      3 C          -8.0901  -20.2708   23.0221 C.3     1  UNL1        0.0161
      4 C          -8.0848  -19.7276   21.6239 C.3     1  UNL1        0.0461
      5 C          -8.0796  -19.1844   20.2257 C.3     1  UNL1        0.0161
      6 C          -6.7599  -20.3847   21.3735 C.3     1  UNL1        0.0408
      7 C          -5.5003  -19.5709   21.4101 C.ar    1  UNL1       -0.0209
      8 C          -5.1264  -18.8232   22.6556 C.ar    1  UNL1       -0.0042
      9 C          -3.8669  -18.0095   22.6922 C.ar    1  UNL1       -0.0003
     10 C          -2.9812  -17.9433   21.4833 C.ar    1  UNL1       -0.0000
     11 C          -1.7217  -17.1295   21.5199 C.ar    1  UNL1       -0.0000
     12 C          -0.8362  -17.0634   20.3111 C.ar    1  UNL1       -0.0000
     13 C          -1.2101  -17.8111   19.0656 C.ar    1  UNL1       -0.0000
     14 C          -2.4696  -18.6248   19.0290 C.ar    1  UNL1       -0.0000
     15 C          -3.3552  -18.6910   20.2378 C.ar    1  UNL1       -0.0003
     16 C          -4.6147  -19.5048   20.2013 C.ar    1  UNL1       -0.0042
     17 C         -10.0126  -18.1765   20.8314 C.3     1  UNL1        0.1020
     18 C         -10.3775  -16.7628   21.1754 C.3     1  UNL1        0.1697
     19 O         -11.7583  -16.2531   20.8861 O.3     1  UNL1       -0.3793
     20 H         -12.2850  -16.9590   20.4796 H       1  UNL1        0.2106
     21 C          -9.3618  -15.8589   21.8088 C.3     1  UNL1        0.2358
     22 O          -8.1675  -16.4431   22.5033 O.3     1  UNL1       -0.4721
     23 C          -8.0468  -16.3481   23.9954 C.ar    1  UNL1        0.1490
     24 C          -9.1300  -16.9027   24.8723 C.ar    1  UNL1        0.0377
     25 C          -9.0092  -16.8077   26.3644 C.ar    1  UNL1        0.0040
     26 C          -7.8053  -16.1580   26.9796 C.ar    1  UNL1        0.0123
     27 C          -6.7221  -15.6034   26.1027 C.ar    1  UNL1        0.0702
     28 CL         -5.5181  -14.9537   26.7179 Cl      1  UNL1       -0.0814
     29 C          -6.8428  -15.6984   24.6106 C.ar    1  UNL1        0.1128
     30 C          -5.7596  -15.1437   23.7336 C.1     1  UNL1        0.1043
     31 N          -4.6764  -14.5890   22.8567 N.1     1  UNL1       -0.1907
@<TRIPOS>BOND
     1     3     4    1
     2     4     5    1
     3     4     6    1
     4     6     7    1
     5     7     8   ar
     6     8     9   ar
     7     9    10   ar
     8    10    11   ar
     9    11    12   ar
    10    12    13   ar
    11    13    14   ar
    12    14    15   ar
    13    15    16   ar
    14     4     1    1
    15     1    17    1
    16    17    18    1
    17    18    19    1
    18    18    21    1
    19    21    22    1
    20    22    23    1
    21    23    24   ar
    22    24    25   ar
    23    25    26   ar
    24    26    27   ar
    25    27    28    1
    26    27    29   ar
    27    29    30    1
    28    30    31    3
    29    16     7   ar
    30    29    23   ar
    31    15    10   ar
    32     1     2    1
    33    19    20    1
@<TRIPOS>MOLECULE
*****
 31 33 0 0 0
SMALL
GASTEIGER

@<TRIPOS>ATOM
      1 N          -6.8549  -14.7026   25.5649 N.3     1  UNL1       -0.2972
      2 H          -6.8437  -14.3475   26.5210 H       1  UNL1        0.1233
      3 C          -8.4153  -15.0312   24.1659 C.3     1  UNL1        0.0161
      4 C          -8.0112  -15.6534   25.4696 C.3     1  UNL1        0.0461
      5 C          -7.6071  -16.2755   26.7733 C.3     1  UNL1        0.0161
      6 C          -9.1676  -16.6041   25.3743 C.3     1  UNL1        0.0408
      7 C          -9.5582  -17.1790   24.0450 C.ar    1  UNL1       -0.0209
      8 C         -10.9802  -17.0864   23.5765 C.ar    1  UNL1       -0.0042
      9 C         -11.3708  -17.6613   22.2473 C.ar    1  UNL1       -0.0003
     10 C         -10.3395  -18.3289   21.3865 C.ar    1  UNL1       -0.0000
     11 C         -10.7302  -18.9038   20.0574 C.ar    1  UNL1       -0.0000
     12 C          -9.6989  -19.5713   19.1966 C.ar    1  UNL1       -0.0000
     13 C          -8.2770  -19.6639   19.6651 C.ar    1  UNL1       -0.0000
     14 C          -7.8863  -19.0890   20.9943 C.ar    1  UNL1       -0.0000
     15 C          -8.9176  -18.4215   21.8550 C.ar    1  UNL1       -0.0003
     16 C          -8.5269  -17.8465   23.1843 C.ar    1  UNL1       -0.0042
     17 C          -5.4650  -15.1797   25.2638 C.3     1  UNL1        0.1020
     18 C          -5.1115  -15.6335   23.8785 C.3     1  UNL1        0.1697
     19 O          -4.5187  -14.6635   22.8998 O.3     1  UNL1       -0.3793
     20 H          -4.4312  -13.7934   23.3196 H       1  UNL1        0.2106
     21 C          -5.3507  -17.0574   23.4719 C.3     1  UNL1        0.2358
     22 O          -4.1913  -17.9940   23.3027 O.3     1  UNL1       -0.4721
     23 C          -3.9701  -18.6842   21.9894 C.ar    1  UNL1        0.1490
     24 C          -4.7082  -19.9515   21.6745 C.ar    1  UNL1        0.0377
     25 C          -4.4870  -20.6416   20.3612 C.ar    1  UNL1        0.0040
     26 C          -3.5278  -20.0645   19.3628 C.ar    1  UNL1        0.0123
     27 C          -2.7897  -18.7972   19.6777 C.ar    1  UNL1        0.0702
     28 CL         -1.8305  -18.2200   18.6793 Cl      1  UNL1       -0.0814
     29 C          -3.0109  -18.1070   20.9910 C.ar    1  UNL1        0.1128
     30 C          -2.2728  -16.8397   21.3059 C.1     1  UNL1        0.1043
     31 N          -1.5349  -15.5723   21.6209 N.1     1  UNL1       -0.1907
@<TRIPOS>BOND
     1     3     4    1
     2     4     5    1
     3     4     6    1
     4     6     7    1
     5     7     8   ar
     6     8     9   ar
     7     9    10   ar
     8    10    11   ar
     9    11    12   ar
    10    12    13   ar
    11    13    14   ar
    12    14    15   ar
    13    15    16   ar
    14     4     1    1
    15     1    17    1
    16    17    18    1
    17    18    19    1
    18    18    21    1
    19    21    22    1
    20    22    23    1
    21    23    24   ar
    22    24    25   ar
    23    25    26   ar
    24    26    27   ar
    25    27    28    1
    26    27    29   ar
    27    29    30    1
    28    30    31    3
    29    16     7   ar
    30    29    23   ar
    31    15    10   ar
    32     1     2    1
    33    19    20    1
@<TRIPOS>MOLECULE
*****
 31 33 0 0 0
SMALL
GASTEIGER

@<TRIPOS>ATOM
      1 N          -6.4115  -14.5601   24.6997 N.3     1  UNL1       -0.2972
      2 H          -6.2189  -14.0422   23.8423 H       1  UNL1        0.1233
      3 C          -6.1228  -16.1993   23.3846 C.3     1  UNL1        0.0161
      4 C          -5.5189  -15.7655   24.6873 C.3     1  UNL1        0.0461
      5 C          -4.9151  -15.3317   25.9901 C.3     1  UNL1        0.0161
      6 C          -4.6263  -16.9709   24.6749 C.3     1  UNL1        0.0408
      7 C          -4.0521  -17.4657   23.3805 C.ar    1  UNL1       -0.0209
      8 C          -4.6617  -18.6521   22.6944 C.ar    1  UNL1       -0.0042
      9 C          -4.0876  -19.1469   21.4000 C.ar    1  UNL1       -0.0003
     10 C          -2.9037  -18.4552   20.7916 C.ar    1  UNL1       -0.0000
     11 C          -2.3296  -18.9500   19.4972 C.ar    1  UNL1       -0.0000
     12 C          -1.1458  -18.2583   18.8888 C.ar    1  UNL1       -0.0000
     13 C          -0.5361  -17.0719   19.5749 C.ar    1  UNL1       -0.0000
     14 C          -1.1103  -16.5771   20.8693 C.ar    1  UNL1       -0.0000
     15 C          -2.2941  -17.2688   21.4776 C.ar    1  UNL1       -0.0003
     16 C          -2.8683  -16.7740   22.7721 C.ar    1  UNL1       -0.0042
     17 C          -7.8999  -14.7298   24.7780 C.3     1  UNL1        0.1020
     18 C          -8.5044  -15.5495   25.8791 C.3     1  UNL1        0.1697
     19 O          -8.4299  -15.0701   27.2986 O.3     1  UNL1       -0.3793
     20 H          -7.9621  -14.2210   27.3289 H       1  UNL1        0.2106
     21 C          -9.1833  -16.8487   25.5609 C.3     1  UNL1        0.2358
     22 O          -9.1414  -17.3945   24.1644 O.3     1  UNL1       -0.4721
     23 C         -10.3974  -17.4606   23.3470 C.ar    1  UNL1        0.1490
     24 C         -11.5389  -18.3246   23.7946 C.ar    1  UNL1        0.0377
     25 C         -12.7949  -18.3907   22.9772 C.ar    1  UNL1        0.0040
     26 C         -12.9093  -17.5929   21.7121 C.ar    1  UNL1        0.0123
     27 C         -11.7677  -16.7289   21.2645 C.ar    1  UNL1        0.0702
     28 CL        -11.8821  -15.9310   19.9995 Cl      1  UNL1       -0.0814
     29 C         -10.5118  -16.6628   22.0819 C.ar    1  UNL1        0.1128
     30 C          -9.3702  -15.7988   21.6343 C.1     1  UNL1        0.1043
     31 N          -8.2286  -14.9348   21.1868 N.1     1  UNL1       -0.1907
@<TRIPOS>BOND
     1     3     4    1
     2     4     5    1
     3     4     6    1
     4     6     7    1
     5     7     8   ar
     6     8     9   ar
     7     9    10   ar
     8    10    11   ar
     9    11    12   ar
    10    12    13   ar
    11    13    14   ar
    12    14    15   ar
    13    15    16   ar
    14     4     1    1
    15     1    17    1
    16    17    18    1
    17    18    19    1
    18    18    21    1
    19    21    22    1
    20    22    23    1
    21    23    24   ar
    22    24    25   ar
    23    25    26   ar
    24    26    27   ar
    25    27    28    1
    26    27    29   ar
    27    29    30    1
    28    30    31    3
    29    16     7   ar
    30    29    23   ar
    31    15    10   ar
    32     1     2    1
    33    19    20    1
