@<TRIPOS>MOLECULE
*****
 35 38 0 0 0
SMALL
GASTEIGER

@<TRIPOS>ATOM
      1 C          -7.1437  -18.9470   21.9505 C.2     1  UNL1        0.2457
      2 O          -7.1955  -20.3949   22.3390 O.2     1  UNL1       -0.2702
      3 N          -8.2906  -18.3284   21.2076 N.am    1  UNL1       -0.3005
      4 H          -8.2567  -17.3781   20.9526 H       1  UNL1        0.1497
      5 C          -4.5683  -19.3182   20.4572 C.3     1  UNL1        0.0341
      6 C          -4.6574  -18.3033   21.5583 C.ar    1  UNL1        0.0141
      7 C          -3.4588  -17.4741   21.9127 C.ar    1  UNL1        0.1277
      8 N          -3.5478  -16.4593   23.0136 N.ar    1  UNL1       -0.2310
      9 C          -4.8355  -16.2737   23.7603 C.ar    1  UNL1        0.0828
     10 C          -4.9245  -15.2589   24.8613 C.ar    1  UNL1        0.0197
     11 C          -6.2122  -15.0733   25.6079 C.ar    1  UNL1        0.0082
     12 C          -7.4108  -15.9026   25.2535 C.ar    1  UNL1        0.0347
     13 BR         -8.6985  -15.7170   26.0002 Br      1  UNL1       -0.0490
     14 C          -7.3218  -16.9174   24.1525 C.ar    1  UNL1        0.0083
     15 C          -6.0341  -17.1029   23.4059 C.ar    1  UNL1        0.0223
     16 C          -5.9451  -18.1178   22.3049 C.ar    1  UNL1        0.0535
     17 N          -2.1711  -17.6597   21.1660 N.pl3   1  UNL1       -0.2935
     18 C          -1.2503  -16.5663   20.7110 C.3     1  UNL1        0.0922
     19 C          -0.0882  -17.2021   20.0070 C.3     1  UNL1        0.0232
     20 C          -0.2908  -18.6882   20.0270 C.3     1  UNL1        0.0232
     21 C          -1.5781  -18.9710   20.7433 C.3     1  UNL1        0.0922
     22 C          -9.4893  -19.1576   20.8532 C.3     1  UNL1        0.0940
     23 C         -10.8606  -18.5514   20.8983 C.3     1  UNL1        0.0431
     24 C         -11.6231  -18.5169   22.1895 C.ar    1  UNL1       -0.0103
     25 C         -12.8279  -17.6337   22.3257 C.ar    1  UNL1       -0.0034
     26 C         -13.5905  -17.5992   23.6170 C.ar    1  UNL1       -0.0003
     27 C         -13.1483  -18.4479   24.7720 C.ar    1  UNL1        0.0008
     28 C         -11.9436  -19.3311   24.6358 C.ar    1  UNL1        0.0111
     29 C         -11.1810  -19.3657   23.3446 C.ar    1  UNL1        0.0537
     30 CL         -9.9762  -20.2489   23.2085 Cl      1  UNL1       -0.0826
     31 C         -11.4693  -17.9798   19.6523 C.3     1  UNL1        0.0120
     32 C         -11.7828  -16.5150   19.5746 C.3     1  UNL1        0.0421
     33 C         -10.6790  -15.5050   19.6827 C.2     1  UNL1        0.0503
     34 O          -9.8203  -15.4612   20.9118 O.co2   1  UNL1       -0.5492
     35 O         -10.4340  -14.5388   18.5617 O.co2   1  UNL1       -0.5492
@<TRIPOS>UNITY_ATOM_ATTR
34 1
charge -1
@<TRIPOS>BOND
     1     5     6    1
     2     6     7   ar
     3     7    17    1
     4    17    18    1
     5    18    19    1
     6    19    20    1
     7    20    21    1
     8     7     8   ar
     9     8     9   ar
    10     9    10   ar
    11    10    11   ar
    12    11    12   ar
    13    12    13    1
    14    12    14   ar
    15    14    15   ar
    16    15    16   ar
    17    16     1    1
    18     1     2    2
    19     1     3   am
    20     3    22    1
    21    23    22    1
    22    23    31    1
    23    31    32    1
    24    32    33    1
    25    33    34   ar
    26    33    35   ar
    27    23    24    1
    28    24    25   ar
    29    25    26   ar
    30    26    27   ar
    31    27    28   ar
    32    28    29   ar
    33    29    30    1
    34    16     6   ar
    35    29    24   ar
    36    21    17    1
    37    15     9   ar
    38     3     4    1
@<TRIPOS>MOLECULE
*****
 35 38 0 0 0
SMALL
GASTEIGER

@<TRIPOS>ATOM
      1 C          -7.7499  -18.5251   22.3633 C.2     1  UNL1        0.2457
      2 O          -8.3353  -18.4247   20.9859 O.2     1  UNL1       -0.2702
      3 N          -8.5051  -19.2320   23.4496 N.am    1  UNL1       -0.3005
      4 H          -8.1209  -19.2979   24.3536 H       1  UNL1        0.1497
      5 C          -5.3878  -19.2121   20.6462 C.3     1  UNL1        0.0341
      6 C          -5.2283  -18.2619   21.7959 C.ar    1  UNL1        0.0141
      7 C          -3.8876  -17.6553   22.0871 C.ar    1  UNL1        0.1277
      8 N          -3.7281  -16.7052   23.2367 N.ar    1  UNL1       -0.2310
      9 C          -4.9091  -16.3617   24.0953 C.ar    1  UNL1        0.0828
     10 C          -4.7496  -15.4116   25.2450 C.ar    1  UNL1        0.0197
     11 C          -5.9306  -15.0681   26.1035 C.ar    1  UNL1        0.0082
     12 C          -7.2712  -15.6747   25.8124 C.ar    1  UNL1        0.0347
     13 BR         -8.4523  -15.3311   26.6710 Br      1  UNL1       -0.0490
     14 C          -7.4308  -16.6248   24.6627 C.ar    1  UNL1        0.0083
     15 C          -6.2498  -16.9683   23.8042 C.ar    1  UNL1        0.0223
     16 C          -6.4093  -17.9184   22.6544 C.ar    1  UNL1        0.0535
     17 N          -2.7066  -17.9989   21.2285 N.pl3   1  UNL1       -0.2935
     18 C          -1.9556  -17.0503   20.3417 C.3     1  UNL1        0.0922
     19 C          -0.8540  -17.8165   19.6711 C.3     1  UNL1        0.0232
     20 C          -0.9242  -19.2385   20.1434 C.3     1  UNL1        0.0232
     21 C          -2.0692  -19.3512   21.1059 C.3     1  UNL1        0.0922
     22 C          -9.8457  -19.8386   23.1584 C.3     1  UNL1        0.0940
     23 C         -11.0652  -18.9676   23.0947 C.3     1  UNL1        0.0431
     24 C         -11.2202  -17.9745   21.9813 C.ar    1  UNL1       -0.0103
     25 C         -11.6811  -18.4303   20.6286 C.ar    1  UNL1       -0.0034
     26 C         -11.8361  -17.4371   19.5151 C.ar    1  UNL1       -0.0003
     27 C         -11.5301  -15.9883   19.7544 C.ar    1  UNL1        0.0008
     28 C         -11.0691  -15.5326   21.1071 C.ar    1  UNL1        0.0111
     29 C         -10.9142  -16.5256   22.2205 C.ar    1  UNL1        0.0537
     30 CL        -10.4532  -16.0699   23.5733 Cl      1  UNL1       -0.0826
     31 C         -12.1297  -19.0896   24.1444 C.3     1  UNL1        0.0120
     32 C         -13.3478  -18.2165   24.0824 C.3     1  UNL1        0.0421
     33 C         -14.5699  -18.5767   24.8741 C.2     1  UNL1        0.0503
     34 O         -15.8766  -18.8053   24.1740 O.co2   1  UNL1       -0.5492
     35 O         -14.4852  -18.7082   26.3660 O.co2   1  UNL1       -0.5492
@<TRIPOS>UNITY_ATOM_ATTR
34 1
charge -1
@<TRIPOS>BOND
     1     5     6    1
     2     6     7   ar
     3     7    17    1
     4    17    18    1
     5    18    19    1
     6    19    20    1
     7    20    21    1
     8     7     8   ar
     9     8     9   ar
    10     9    10   ar
    11    10    11   ar
    12    11    12   ar
    13    12    13    1
    14    12    14   ar
    15    14    15   ar
    16    15    16   ar
    17    16     1    1
    18     1     2    2
    19     1     3   am
    20     3    22    1
    21    23    22    1
    22    23    31    1
    23    31    32    1
    24    32    33    1
    25    33    34   ar
    26    33    35   ar
    27    23    24    1
    28    24    25   ar
    29    25    26   ar
    30    26    27   ar
    31    27    28   ar
    32    28    29   ar
    33    29    30    1
    34    16     6   ar
    35    29    24   ar
    36    21    17    1
    37    15     9   ar
    38     3     4    1
@<TRIPOS>MOLECULE
*****
 35 38 0 0 0
SMALL
GASTEIGER

@<TRIPOS>ATOM
      1 C           2.7269    3.1478   33.7577 C.2     1  UNL1        0.2457
      2 O           3.5218    4.3724   33.4133 O.2     1  UNL1       -0.2702
      3 N           2.0114    3.0635   35.0734 N.am    1  UNL1       -0.3005
      4 H           1.4897    2.2598   35.2994 H       1  UNL1        0.1497
      5 C           0.8770    3.3106   31.4015 C.3     1  UNL1        0.0341
      6 C           1.7225    2.0889   31.6083 C.ar    1  UNL1        0.0141
      7 C           1.6430    0.9487   30.6370 C.ar    1  UNL1        0.1277
      8 N           2.4885   -0.2730   30.8437 N.ar    1  UNL1       -0.2310
      9 C           3.4135   -0.3544   32.0218 C.ar    1  UNL1        0.0828
     10 C           4.2590   -1.5760   32.2285 C.ar    1  UNL1        0.0197
     11 C           5.1839   -1.6573   33.4066 C.ar    1  UNL1        0.0082
     12 C           5.2633   -0.5171   34.3779 C.ar    1  UNL1        0.0347
     13 BR          6.1883   -0.5985   35.5560 Br      1  UNL1       -0.0490
     14 C           4.4179    0.7046   34.1712 C.ar    1  UNL1        0.0083
     15 C           3.4930    0.7859   32.9931 C.ar    1  UNL1        0.0223
     16 C           2.6474    2.0076   32.7863 C.ar    1  UNL1        0.0535
     17 N           0.7181    1.0301   29.4589 N.pl3   1  UNL1       -0.2935
     18 C           1.0657    1.5622   28.1002 C.3     1  UNL1        0.0922
     19 C          -0.1545    1.4546   27.2342 C.3     1  UNL1        0.0232
     20 C          -1.2561    0.8560   28.0578 C.3     1  UNL1        0.0232
     21 C          -0.7168    0.5937   29.4327 C.3     1  UNL1        0.0922
     22 C           2.0908    4.2038   36.0447 C.3     1  UNL1        0.0940
     23 C           2.5584    3.9614   37.4492 C.3     1  UNL1        0.0431
     24 C           2.0806    2.7546   38.2009 C.ar    1  UNL1       -0.0103
     25 C           0.7328    2.7661   38.8593 C.ar    1  UNL1       -0.0034
     26 C           0.2550    1.5591   39.6111 C.ar    1  UNL1       -0.0003
     27 C           1.1250    0.3408   39.7044 C.ar    1  UNL1        0.0008
     28 C           2.4727    0.3293   39.0461 C.ar    1  UNL1        0.0111
     29 C           2.9505    1.5361   38.2943 C.ar    1  UNL1        0.0537
     30 CL          4.2983    1.5246   37.6360 Cl      1  UNL1       -0.0826
     31 C           3.5037    4.9259   38.1020 C.3     1  UNL1        0.0120
     32 C           3.8689    4.7565   39.5469 C.3     1  UNL1        0.0421
     33 C           5.2163    4.2140   39.9213 C.2     1  UNL1        0.0503
     34 O           5.3211    2.9246   40.6806 O.co2   1  UNL1       -0.5492
     35 O           6.4589    4.9610   39.5365 O.co2   1  UNL1       -0.5492
@<TRIPOS>UNITY_ATOM_ATTR
34 1
charge -1
@<TRIPOS>BOND
     1     5     6    1
     2     6     7   ar
     3     7    17    1
     4    17    18    1
     5    18    19    1
     6    19    20    1
     7    20    21    1
     8     7     8   ar
     9     8     9   ar
    10     9    10   ar
    11    10    11   ar
    12    11    12   ar
    13    12    13    1
    14    12    14   ar
    15    14    15   ar
    16    15    16   ar
    17    16     1    1
    18     1     2    2
    19     1     3   am
    20     3    22    1
    21    23    22    1
    22    23    31    1
    23    31    32    1
    24    32    33    1
    25    33    34   ar
    26    33    35   ar
    27    23    24    1
    28    24    25   ar
    29    25    26   ar
    30    26    27   ar
    31    27    28   ar
    32    28    29   ar
    33    29    30    1
    34    16     6   ar
    35    29    24   ar
    36    21    17    1
    37    15     9   ar
    38     3     4    1
@<TRIPOS>MOLECULE
*****
 35 38 0 0 0
SMALL
GASTEIGER

@<TRIPOS>ATOM
      1 C           4.4226   -1.4621   22.6399 C.2     1  UNL1        0.2457
      2 O           4.0993   -2.8543   22.1846 O.2     1  UNL1       -0.2702
      3 N           5.1841   -0.5360   21.7384 N.am    1  UNL1       -0.3005
      4 H           5.3963    0.3777   22.0372 H       1  UNL1        0.1497
      5 C           2.2239    0.5633   22.8922 C.3     1  UNL1        0.0341
      6 C           2.8851    0.0167   24.1227 C.ar    1  UNL1        0.0141
      7 C           2.4468    0.4829   25.4794 C.ar    1  UNL1        0.1277
      8 N           3.1079   -0.0636   26.7100 N.ar    1  UNL1       -0.2310
      9 C           4.2073   -1.0763   26.5838 C.ar    1  UNL1        0.0828
     10 C           4.8684   -1.6228   27.8144 C.ar    1  UNL1        0.0197
     11 C           5.9677   -2.6354   27.6882 C.ar    1  UNL1        0.0082
     12 C           6.4060   -3.1016   26.3315 C.ar    1  UNL1        0.0347
     13 BR          7.5054   -4.1143   26.2054 Br      1  UNL1       -0.0490
     14 C           5.7449   -2.5551   25.1010 C.ar    1  UNL1        0.0083
     15 C           4.6455   -1.5425   25.2271 C.ar    1  UNL1        0.0223
     16 C           3.9844   -0.9959   23.9966 C.ar    1  UNL1        0.0535
     17 N           1.3475    1.4956   25.6056 N.pl3   1  UNL1       -0.2935
     18 C           1.5234    2.9835   25.6772 C.3     1  UNL1        0.0922
     19 C           0.1638    3.6058   25.7981 C.3     1  UNL1        0.0232
     20 C          -0.8523    2.5023   25.8012 C.3     1  UNL1        0.0232
     21 C          -0.1207    1.1982   25.6822 C.3     1  UNL1        0.0922
     22 C           5.6223   -1.0022   20.3817 C.3     1  UNL1        0.0940
     23 C           4.6045   -1.2439   19.3068 C.3     1  UNL1        0.0431
     24 C           3.3512   -0.4211   19.2620 C.ar    1  UNL1       -0.0103
     25 C           2.0767   -0.9638   19.8373 C.ar    1  UNL1       -0.0034
     26 C           0.8233   -0.1408   19.7925 C.ar    1  UNL1       -0.0003
     27 C           0.8445    1.2248   19.1724 C.ar    1  UNL1        0.0008
     28 C           2.1191    1.7675   18.5971 C.ar    1  UNL1        0.0111
     29 C           3.3724    0.9446   18.6418 C.ar    1  UNL1        0.0537
     30 CL          4.6469    1.4874   18.0665 Cl      1  UNL1       -0.0826
     31 C           4.8400   -2.3085   18.2766 C.3     1  UNL1        0.0120
     32 C           5.3483   -3.6566   18.6939 C.3     1  UNL1        0.0421
     33 C           4.3851   -4.7839   18.9213 C.2     1  UNL1        0.0503
     34 O           2.9212   -4.4989   19.0812 O.co2   1  UNL1       -0.5492
     35 O           4.8860   -6.1962   18.9888 O.co2   1  UNL1       -0.5492
@<TRIPOS>UNITY_ATOM_ATTR
34 1
charge -1
@<TRIPOS>BOND
     1     5     6    1
     2     6     7   ar
     3     7    17    1
     4    17    18    1
     5    18    19    1
     6    19    20    1
     7    20    21    1
     8     7     8   ar
     9     8     9   ar
    10     9    10   ar
    11    10    11   ar
    12    11    12   ar
    13    12    13    1
    14    12    14   ar
    15    14    15   ar
    16    15    16   ar
    17    16     1    1
    18     1     2    2
    19     1     3   am
    20     3    22    1
    21    23    22    1
    22    23    31    1
    23    31    32    1
    24    32    33    1
    25    33    34   ar
    26    33    35   ar
    27    23    24    1
    28    24    25   ar
    29    25    26   ar
    30    26    27   ar
    31    27    28   ar
    32    28    29   ar
    33    29    30    1
    34    16     6   ar
    35    29    24   ar
    36    21    17    1
    37    15     9   ar
    38     3     4    1
@<TRIPOS>MOLECULE
*****
 35 38 0 0 0
SMALL
GASTEIGER

@<TRIPOS>ATOM
      1 C          -7.0685  -19.0010   21.9198 C.2     1  UNL1        0.2457
      2 O          -7.2486  -20.3459   22.5591 O.2     1  UNL1       -0.2702
      3 N          -8.0832  -18.4955   20.9375 N.am    1  UNL1       -0.3005
      4 H          -7.9649  -17.6128   20.5178 H       1  UNL1        0.1497
      5 C          -4.4826  -19.4018   20.4525 C.3     1  UNL1        0.0341
      6 C          -4.5807  -18.3619   21.5292 C.ar    1  UNL1        0.0141
      7 C          -3.3859  -17.5224   21.8722 C.ar    1  UNL1        0.1277
      8 N          -3.4839  -16.4826   22.9487 N.ar    1  UNL1       -0.2310
      9 C          -4.7769  -16.2822   23.6824 C.ar    1  UNL1        0.0828
     10 C          -4.8749  -15.2423   24.7590 C.ar    1  UNL1        0.0197
     11 C          -6.1678  -15.0420   25.4926 C.ar    1  UNL1        0.0082
     12 C          -7.3627  -15.8814   25.1496 C.ar    1  UNL1        0.0347
     13 BR         -8.6556  -15.6810   25.8833 Br      1  UNL1       -0.0490
     14 C          -7.2646  -16.9213   24.0730 C.ar    1  UNL1        0.0083
     15 C          -5.9717  -17.1216   23.3394 C.ar    1  UNL1        0.0223
     16 C          -5.8736  -18.1615   22.2628 C.ar    1  UNL1        0.0535
     17 N          -2.0929  -17.7229   21.1385 N.pl3   1  UNL1       -0.2935
     18 C          -1.1951  -16.6379   20.6218 C.3     1  UNL1        0.0922
     19 C          -0.0181  -17.2879   19.9567 C.3     1  UNL1        0.0232
     20 C          -0.1886  -18.7745   20.0624 C.3     1  UNL1        0.0232
     21 C          -1.4709  -19.0433   20.7927 C.3     1  UNL1        0.0922
     22 C          -9.2780  -19.3350   20.5945 C.3     1  UNL1        0.0940
     23 C         -10.4793  -19.3323   21.4927 C.3     1  UNL1        0.0431
     24 C         -11.2874  -18.0798   21.6606 C.ar    1  UNL1       -0.0103
     25 C         -11.7038  -17.6339   23.0309 C.ar    1  UNL1       -0.0034
     26 C         -12.5119  -16.3813   23.1987 C.ar    1  UNL1       -0.0003
     27 C         -12.9037  -15.5748   21.9962 C.ar    1  UNL1        0.0008
     28 C         -12.4873  -16.0208   20.6259 C.ar    1  UNL1        0.0111
     29 C         -11.6792  -17.2732   20.4581 C.ar    1  UNL1        0.0537
     30 CL        -11.2628  -17.7192   19.0877 Cl      1  UNL1       -0.0826
     31 C         -10.8724  -20.5821   22.2231 C.3     1  UNL1        0.0120
     32 C         -11.1349  -20.5370   23.6993 C.3     1  UNL1        0.0421
     33 C          -9.9873  -20.4905   24.6640 C.2     1  UNL1        0.0503
     34 O          -9.1548  -21.7159   24.8988 O.co2   1  UNL1       -0.5492
     35 O          -9.6722  -19.2185   25.3940 O.co2   1  UNL1       -0.5492
@<TRIPOS>UNITY_ATOM_ATTR
34 1
charge -1
@<TRIPOS>BOND
     1     5     6    1
     2     6     7   ar
     3     7    17    1
     4    17    18    1
     5    18    19    1
     6    19    20    1
     7    20    21    1
     8     7     8   ar
     9     8     9   ar
    10     9    10   ar
    11    10    11   ar
    12    11    12   ar
    13    12    13    1
    14    12    14   ar
    15    14    15   ar
    16    15    16   ar
    17    16     1    1
    18     1     2    2
    19     1     3   am
    20     3    22    1
    21    23    22    1
    22    23    31    1
    23    31    32    1
    24    32    33    1
    25    33    34   ar
    26    33    35   ar
    27    23    24    1
    28    24    25   ar
    29    25    26   ar
    30    26    27   ar
    31    27    28   ar
    32    28    29   ar
    33    29    30    1
    34    16     6   ar
    35    29    24   ar
    36    21    17    1
    37    15     9   ar
    38     3     4    1
@<TRIPOS>MOLECULE
*****
 35 38 0 0 0
SMALL
GASTEIGER

@<TRIPOS>ATOM
      1 C           4.5024   -1.1934   23.7361 C.2     1  UNL1        0.2457
      2 O           4.3219   -2.6675   23.5255 O.2     1  UNL1       -0.2702
      3 N           5.7073   -0.4976   23.1754 N.am    1  UNL1       -0.3005
      4 H           5.8257    0.4699   23.3136 H       1  UNL1        0.1497
      5 C           4.6648   -1.0541   26.7285 C.3     1  UNL1        0.0341
      6 C           3.5593   -0.3453   26.0035 C.ar    1  UNL1        0.0141
      7 C           2.5350    0.4331   26.7747 C.ar    1  UNL1        0.1277
      8 N           1.4295    1.1419   26.0498 N.ar    1  UNL1       -0.2310
      9 C           1.3483    1.0723   24.5536 C.ar    1  UNL1        0.0828
     10 C           0.2428    1.7810   23.8287 C.ar    1  UNL1        0.0197
     11 C           0.1616    1.7114   22.3326 C.ar    1  UNL1        0.0082
     12 C           1.1860    0.9330   21.5613 C.ar    1  UNL1        0.0347
     13 BR          1.1048    0.8633   20.0651 Br      1  UNL1       -0.0490
     14 C           2.2914    0.2242   22.2862 C.ar    1  UNL1        0.0083
     15 C           2.3726    0.2938   23.7823 C.ar    1  UNL1        0.0223
     16 C           3.4781   -0.4150   24.5073 C.ar    1  UNL1        0.0535
     17 N           2.6162    0.5027   28.2710 N.pl3   1  UNL1       -0.2935
     18 C           2.1218   -0.5392   29.2301 C.3     1  UNL1        0.0922
     19 C           2.4060   -0.0594   30.6227 C.3     1  UNL1        0.0232
     20 C           3.0761    1.2790   30.5240 C.3     1  UNL1        0.0232
     21 C           3.2060    1.6264   29.0706 C.3     1  UNL1        0.0922
     22 C           6.7316   -1.2761   22.4041 C.3     1  UNL1        0.0940
     23 C           6.6097   -1.4060   20.9148 C.3     1  UNL1        0.0431
     24 C           5.5807   -2.3234   20.3237 C.ar    1  UNL1       -0.0103
     25 C           4.2285   -1.7922   19.9502 C.ar    1  UNL1       -0.0034
     26 C           3.1994   -2.7097   19.3592 C.ar    1  UNL1       -0.0003
     27 C           3.5225   -4.1582   19.1415 C.ar    1  UNL1        0.0008
     28 C           4.8747   -4.6893   19.5150 C.ar    1  UNL1        0.0111
     29 C           5.9038   -3.7719   20.1060 C.ar    1  UNL1        0.0537
     30 CL          7.2560   -4.3031   20.4795 Cl      1  UNL1       -0.0826
     31 C           7.5169   -0.6186   20.0165 C.3     1  UNL1        0.0120
     32 C           6.9384    0.2260   18.9202 C.3     1  UNL1        0.0421
     33 C           6.9051   -0.2916   17.5127 C.2     1  UNL1        0.0503
     34 O           7.0408    0.6591   16.3605 O.co2   1  UNL1       -0.5492
     35 O           6.7361   -1.7601   17.2575 O.co2   1  UNL1       -0.5492
@<TRIPOS>UNITY_ATOM_ATTR
34 1
charge -1
@<TRIPOS>BOND
     1     5     6    1
     2     6     7   ar
     3     7    17    1
     4    17    18    1
     5    18    19    1
     6    19    20    1
     7    20    21    1
     8     7     8   ar
     9     8     9   ar
    10     9    10   ar
    11    10    11   ar
    12    11    12   ar
    13    12    13    1
    14    12    14   ar
    15    14    15   ar
    16    15    16   ar
    17    16     1    1
    18     1     2    2
    19     1     3   am
    20     3    22    1
    21    23    22    1
    22    23    31    1
    23    31    32    1
    24    32    33    1
    25    33    34   ar
    26    33    35   ar
    27    23    24    1
    28    24    25   ar
    29    25    26   ar
    30    26    27   ar
    31    27    28   ar
    32    28    29   ar
    33    29    30    1
    34    16     6   ar
    35    29    24   ar
    36    21    17    1
    37    15     9   ar
    38     3     4    1
@<TRIPOS>MOLECULE
*****
 35 38 0 0 0
SMALL
GASTEIGER

@<TRIPOS>ATOM
      1 C           4.8168   -1.1376   23.4427 C.2     1  UNL1        0.2457
      2 O           5.5483    0.0518   22.8949 O.2     1  UNL1       -0.2702
      3 N           3.4055   -1.4125   23.0149 N.am    1  UNL1       -0.3005
      4 H           2.9254   -2.1932   23.3745 H       1  UNL1        0.1497
      5 C           6.2885   -3.5579   22.4547 C.3     1  UNL1        0.0341
      6 C           6.2323   -3.2623   23.9243 C.ar    1  UNL1        0.0141
      7 C           6.9120   -4.1768   24.8998 C.ar    1  UNL1        0.1277
      8 N           6.8558   -3.8812   26.3693 N.ar    1  UNL1       -0.2310
      9 C           6.1200   -2.6710   26.8633 C.ar    1  UNL1        0.0828
     10 C           6.0638   -2.3754   28.3328 C.ar    1  UNL1        0.0197
     11 C           5.3279   -1.1652   28.8267 C.ar    1  UNL1        0.0082
     12 C           4.6482   -0.2507   27.8512 C.ar    1  UNL1        0.0347
     13 BR          3.9124    0.9595   28.3452 Br      1  UNL1       -0.0490
     14 C           4.7044   -0.5463   26.3817 C.ar    1  UNL1        0.0083
     15 C           5.4403   -1.7564   25.8877 C.ar    1  UNL1        0.0223
     16 C           5.4965   -2.0521   24.4182 C.ar    1  UNL1        0.0535
     17 N           7.6479   -5.3870   24.4058 N.pl3   1  UNL1       -0.2935
     18 C           7.6348   -6.7464   25.0396 C.3     1  UNL1        0.0922
     19 C           8.5048   -7.6499   24.2168 C.3     1  UNL1        0.0232
     20 C           9.0556   -6.8487   23.0745 C.3     1  UNL1        0.0232
     21 C           8.5260   -5.4502   23.1913 C.3     1  UNL1        0.0922
     22 C           2.7259   -0.4980   22.0394 C.3     1  UNL1        0.0940
     23 C           2.4671   -0.9579   20.6353 C.3     1  UNL1        0.0431
     24 C           3.5152   -1.7353   19.8956 C.ar    1  UNL1       -0.0103
     25 C           3.3470   -3.2112   19.6874 C.ar    1  UNL1       -0.0034
     26 C           4.3952   -3.9885   18.9477 C.ar    1  UNL1       -0.0003
     27 C           5.6115   -3.2900   18.4162 C.ar    1  UNL1        0.0008
     28 C           5.7797   -1.8140   18.6244 C.ar    1  UNL1        0.0111
     29 C           4.7316   -1.0367   19.3641 C.ar    1  UNL1        0.0537
     30 CL          4.8998    0.4392   19.5723 Cl      1  UNL1       -0.0826
     31 C           1.1603   -0.6404   19.9709 C.3     1  UNL1        0.0120
     32 C           1.0890    0.4421   18.9351 C.3     1  UNL1        0.0421
     33 C           1.5758    1.8234   19.2592 C.2     1  UNL1        0.0503
     34 O           1.1213    2.5030   20.5168 O.co2   1  UNL1       -0.5492
     35 O           2.5171    2.5252   18.3256 O.co2   1  UNL1       -0.5492
@<TRIPOS>UNITY_ATOM_ATTR
34 1
charge -1
@<TRIPOS>BOND
     1     5     6    1
     2     6     7   ar
     3     7    17    1
     4    17    18    1
     5    18    19    1
     6    19    20    1
     7    20    21    1
     8     7     8   ar
     9     8     9   ar
    10     9    10   ar
    11    10    11   ar
    12    11    12   ar
    13    12    13    1
    14    12    14   ar
    15    14    15   ar
    16    15    16   ar
    17    16     1    1
    18     1     2    2
    19     1     3   am
    20     3    22    1
    21    23    22    1
    22    23    31    1
    23    31    32    1
    24    32    33    1
    25    33    34   ar
    26    33    35   ar
    27    23    24    1
    28    24    25   ar
    29    25    26   ar
    30    26    27   ar
    31    27    28   ar
    32    28    29   ar
    33    29    30    1
    34    16     6   ar
    35    29    24   ar
    36    21    17    1
    37    15     9   ar
    38     3     4    1
@<TRIPOS>MOLECULE
*****
 35 38 0 0 0
SMALL
GASTEIGER

@<TRIPOS>ATOM
      1 C          -7.8759  -18.0350   22.0026 C.2     1  UNL1        0.2457
      2 O          -8.3345  -19.4592   22.1080 O.2     1  UNL1       -0.2702
      3 N          -8.7729  -17.0017   21.3878 N.am    1  UNL1       -0.3005
      4 H          -8.4718  -16.0669   21.3187 H       1  UNL1        0.1497
      5 C          -5.4178  -18.7893   20.4570 C.3     1  UNL1        0.0341
      6 C          -5.2913  -18.0210   21.7392 C.ar    1  UNL1        0.0141
      7 C          -3.9357  -17.6300   22.2485 C.ar    1  UNL1        0.1277
      8 N          -3.8091  -16.8618   23.5306 N.ar    1  UNL1       -0.2310
      9 C          -5.0382  -16.4847   24.3035 C.ar    1  UNL1        0.0828
     10 C          -4.9116  -15.7165   25.5856 C.ar    1  UNL1        0.0197
     11 C          -6.1406  -15.3394   26.3583 C.ar    1  UNL1        0.0082
     12 C          -7.4962  -15.7304   25.8490 C.ar    1  UNL1        0.0347
     13 BR         -8.7253  -15.3533   26.6218 Br      1  UNL1       -0.0490
     14 C          -7.6228  -16.4986   24.5669 C.ar    1  UNL1        0.0083
     15 C          -6.3938  -16.8757   23.7941 C.ar    1  UNL1        0.0223
     16 C          -6.5203  -17.6439   22.5119 C.ar    1  UNL1        0.0535
     17 N          -2.7066  -18.0072   21.4757 N.pl3   1  UNL1       -0.2935
     18 C          -1.8388  -17.0711   20.6877 C.3     1  UNL1        0.0922
     19 C          -0.7254  -17.8720   20.0801 C.3     1  UNL1        0.0232
     20 C          -0.9052  -19.3030   20.4927 C.3     1  UNL1        0.0232
     21 C          -2.1296  -19.3865   21.3551 C.3     1  UNL1        0.0922
     22 C         -10.1285  -17.3927   20.8785 C.3     1  UNL1        0.0940
     23 C         -10.7948  -18.6332   21.3954 C.3     1  UNL1        0.0431
     24 C         -11.6102  -18.5779   22.6532 C.ar    1  UNL1       -0.0103
     25 C         -11.0495  -19.1189   23.9350 C.ar    1  UNL1       -0.0034
     26 C         -11.8650  -19.0636   25.1927 C.ar    1  UNL1       -0.0003
     27 C         -13.2411  -18.4673   25.1687 C.ar    1  UNL1        0.0008
     28 C         -13.8018  -17.9263   23.8870 C.ar    1  UNL1        0.0111
     29 C         -12.9864  -17.9816   22.6292 C.ar    1  UNL1        0.0537
     30 CL        -13.5471  -17.4406   21.3474 Cl      1  UNL1       -0.0826
     31 C         -10.6456  -19.9289   20.6546 C.3     1  UNL1        0.0120
     32 C         -10.4361  -19.9239   19.1694 C.3     1  UNL1        0.0421
     33 C          -9.0812  -20.2280   18.6020 C.2     1  UNL1        0.0503
     34 O          -7.9766  -19.2197   18.7165 O.co2   1  UNL1       -0.5492
     35 O          -8.8310  -21.5405   17.9202 O.co2   1  UNL1       -0.5492
@<TRIPOS>UNITY_ATOM_ATTR
34 1
charge -1
@<TRIPOS>BOND
     1     5     6    1
     2     6     7   ar
     3     7    17    1
     4    17    18    1
     5    18    19    1
     6    19    20    1
     7    20    21    1
     8     7     8   ar
     9     8     9   ar
    10     9    10   ar
    11    10    11   ar
    12    11    12   ar
    13    12    13    1
    14    12    14   ar
    15    14    15   ar
    16    15    16   ar
    17    16     1    1
    18     1     2    2
    19     1     3   am
    20     3    22    1
    21    23    22    1
    22    23    31    1
    23    31    32    1
    24    32    33    1
    25    33    34   ar
    26    33    35   ar
    27    23    24    1
    28    24    25   ar
    29    25    26   ar
    30    26    27   ar
    31    27    28   ar
    32    28    29   ar
    33    29    30    1
    34    16     6   ar
    35    29    24   ar
    36    21    17    1
    37    15     9   ar
    38     3     4    1
@<TRIPOS>MOLECULE
*****
 35 38 0 0 0
SMALL
GASTEIGER

@<TRIPOS>ATOM
      1 C           5.5589   -1.9378   25.6612 C.2     1  UNL1        0.2457
      2 O           6.4683   -0.9014   26.2518 O.2     1  UNL1       -0.2702
      3 N           4.1311   -2.0276   26.1124 N.am    1  UNL1       -0.3005
      4 H           3.5342   -2.7078   25.7248 H       1  UNL1        0.1497
      5 C           5.2681   -1.2707   22.7508 C.3     1  UNL1        0.0341
      6 C           5.9317   -2.5508   23.1642 C.ar    1  UNL1        0.0141
      7 C           6.4500   -3.4974   22.1224 C.ar    1  UNL1        0.1277
      8 N           7.1136   -4.7775   22.5357 N.ar    1  UNL1       -0.2310
      9 C           7.2590   -5.1111   23.9909 C.ar    1  UNL1        0.0828
     10 C           7.9227   -6.3912   24.4043 C.ar    1  UNL1        0.0197
     11 C           8.0680   -6.7247   25.8594 C.ar    1  UNL1        0.0082
     12 C           7.5498   -5.7782   26.9013 C.ar    1  UNL1        0.0347
     13 BR          7.6952   -6.1118   28.3565 Br      1  UNL1       -0.0490
     14 C           6.8862   -4.4981   26.4880 C.ar    1  UNL1        0.0083
     15 C           6.7408   -4.1645   25.0328 C.ar    1  UNL1        0.0223
     16 C           6.0771   -2.8844   24.6194 C.ar    1  UNL1        0.0535
     17 N           6.3046   -3.1638   20.6671 N.pl3   1  UNL1       -0.2935
     18 C           7.2896   -2.3966   19.8358 C.3     1  UNL1        0.0922
     19 C           6.7425   -2.2975   18.4426 C.3     1  UNL1        0.0232
     20 C           5.4192   -3.0034   18.4130 C.3     1  UNL1        0.0232
     21 C           5.1486   -3.5388   19.7878 C.3     1  UNL1        0.0922
     22 C           3.6129   -1.0810   27.1543 C.3     1  UNL1        0.0940
     23 C           2.7974    0.1100   26.7464 C.3     1  UNL1        0.0431
     24 C           3.0046    0.7346   25.3985 C.ar    1  UNL1       -0.0103
     25 C           2.1248    0.3446   24.2479 C.ar    1  UNL1       -0.0034
     26 C           2.3320    0.9693   22.8999 C.ar    1  UNL1       -0.0003
     27 C           3.4189    1.9840   22.7026 C.ar    1  UNL1        0.0008
     28 C           4.2987    2.3740   23.8532 C.ar    1  UNL1        0.0111
     29 C           4.0915    1.7494   25.2011 C.ar    1  UNL1        0.0537
     30 CL          4.9713    2.1394   26.3517 Cl      1  UNL1       -0.0826
     31 C           1.7749    0.6763   27.6863 C.3     1  UNL1        0.0120
     32 C           0.9624   -0.2406   28.5518 C.3     1  UNL1        0.0421
     33 C          -0.0679    0.3250   29.4837 C.2     1  UNL1        0.0503
     34 O           0.2918    1.4542   30.4032 O.co2   1  UNL1       -0.5492
     35 O          -1.4580   -0.2386   29.4961 O.co2   1  UNL1       -0.5492
@<TRIPOS>UNITY_ATOM_ATTR
34 1
charge -1
@<TRIPOS>BOND
     1     5     6    1
     2     6     7   ar
     3     7    17    1
     4    17    18    1
     5    18    19    1
     6    19    20    1
     7    20    21    1
     8     7     8   ar
     9     8     9   ar
    10     9    10   ar
    11    10    11   ar
    12    11    12   ar
    13    12    13    1
    14    12    14   ar
    15    14    15   ar
    16    15    16   ar
    17    16     1    1
    18     1     2    2
    19     1     3   am
    20     3    22    1
    21    23    22    1
    22    23    31    1
    23    31    32    1
    24    32    33    1
    25    33    34   ar
    26    33    35   ar
    27    23    24    1
    28    24    25   ar
    29    25    26   ar
    30    26    27   ar
    31    27    28   ar
    32    28    29   ar
    33    29    30    1
    34    16     6   ar
    35    29    24   ar
    36    21    17    1
    37    15     9   ar
    38     3     4    1
