@<TRIPOS>MOLECULE
*****
 14 15 0 0 0
SMALL
GASTEIGER

@<TRIPOS>ATOM
      1 C          -8.8140  -18.6347   21.7607 C.1     1  UNL1       -0.0399
      2 C          -7.3550  -18.9468   21.6068 C.1     1  UNL1       -0.0567
      3 C         -13.6073  -17.9461   23.8659 C.3     1  UNL1        0.0594
      4 C         -12.4763  -18.0060   22.8824 C.ar    1  UNL1        0.0893
      5 N         -11.0626  -18.4042   23.1875 N.ar    1  UNL1       -0.2344
      6 C         -10.2731  -18.3225   21.9147 C.ar    1  UNL1        0.1295
      7 C         -11.1988  -17.8739   20.8230 C.ar    1  UNL1        0.0641
      8 S         -12.5604  -17.6783   21.4210 S.2     1  UNL1       -0.0695
      9 C          -5.8959  -19.2590   21.4528 C.ar    1  UNL1        0.0612
     10 C          -5.4279  -20.1124   20.3115 C.ar    1  UNL1        0.0114
     11 C          -3.9689  -20.4245   20.1575 C.ar    1  UNL1        0.0213
     12 C          -2.9778  -19.8833   21.1450 C.ar    1  UNL1        0.0989
     13 N          -3.4459  -19.0299   22.2863 N.ar    1  UNL1       -0.2417
     14 C          -4.9049  -18.7178   22.4402 C.ar    1  UNL1        0.1071
@<TRIPOS>BOND
     1     3     4    1
     2     4     5   ar
     3     5     6   ar
     4     6     1    1
     5     1     2    3
     6     2     9    1
     7     9    10   ar
     8    10    11   ar
     9    11    12   ar
    10    12    13   ar
    11    13    14   ar
    12     6     7   ar
    13     7     8   ar
    14     8     4   ar
    15    14     9   ar
@<TRIPOS>MOLECULE
*****
 14 15 0 0 0
SMALL
GASTEIGER

@<TRIPOS>ATOM
      1 C          -7.3374  -19.3390   22.2708 C.1     1  UNL1       -0.0399
      2 C          -5.9352  -19.3172   21.7386 C.1     1  UNL1       -0.0567
      3 C         -12.3880  -18.0875   23.1688 C.3     1  UNL1        0.0594
      4 C         -11.0612  -18.7855   23.2159 C.ar    1  UNL1        0.0893
      5 N          -9.8287  -18.3886   22.4584 N.ar    1  UNL1       -0.2344
      6 C          -8.7396  -19.3608   22.8032 C.ar    1  UNL1        0.1295
      7 C          -9.2989  -20.3585   23.7736 C.ar    1  UNL1        0.0641
      8 S         -10.7337  -20.0030   24.0286 S.2     1  UNL1       -0.0695
      9 C          -4.5329  -19.2954   21.2062 C.ar    1  UNL1        0.0612
     10 C          -4.2717  -18.8457   19.7993 C.ar    1  UNL1        0.0114
     11 C          -2.8695  -18.8239   19.2671 C.ar    1  UNL1        0.0213
     12 C          -1.7286  -19.2519   20.1417 C.ar    1  UNL1        0.0989
     13 N          -1.9898  -19.7016   21.5486 N.ar    1  UNL1       -0.2417
     14 C          -3.3920  -19.7234   22.0809 C.ar    1  UNL1        0.1071
@<TRIPOS>BOND
     1     3     4    1
     2     4     5   ar
     3     5     6   ar
     4     6     1    1
     5     1     2    3
     6     2     9    1
     7     9    10   ar
     8    10    11   ar
     9    11    12   ar
    10    12    13   ar
    11    13    14   ar
    12     6     7   ar
    13     7     8   ar
    14     8     4   ar
    15    14     9   ar
@<TRIPOS>MOLECULE
*****
 14 15 0 0 0
SMALL
GASTEIGER

@<TRIPOS>ATOM
      1 C          -7.0660  -18.7693   21.8813 C.1     1  UNL1       -0.0399
      2 C          -8.5134  -18.6107   22.2419 C.1     1  UNL1       -0.0567
      3 C          -2.5384  -18.7690   19.1644 C.3     1  UNL1        0.0594
      4 C          -3.5375  -18.9278   20.2718 C.ar    1  UNL1        0.0893
      5 N          -5.0044  -18.6260   20.1860 N.ar    1  UNL1       -0.2344
      6 C          -5.6186  -18.9280   21.5207 C.ar    1  UNL1        0.1295
      7 C          -4.5315  -19.4164   22.4315 C.ar    1  UNL1        0.0641
      8 S          -3.2453  -19.4163   21.6597 S.2     1  UNL1       -0.0695
      9 C          -9.9608  -18.4520   22.6025 C.ar    1  UNL1        0.0612
     10 C         -10.4185  -18.7244   24.0047 C.ar    1  UNL1        0.0114
     11 C         -11.8659  -18.5657   24.3652 C.ar    1  UNL1        0.0213
     12 C         -12.8554  -18.1348   23.3236 C.ar    1  UNL1        0.0989
     13 N         -12.3976  -17.8625   21.9214 N.ar    1  UNL1       -0.2417
     14 C         -10.9503  -18.0211   21.5608 C.ar    1  UNL1        0.1071
@<TRIPOS>BOND
     1     3     4    1
     2     4     5   ar
     3     5     6   ar
     4     6     1    1
     5     1     2    3
     6     2     9    1
     7     9    10   ar
     8    10    11   ar
     9    11    12   ar
    10    12    13   ar
    11    13    14   ar
    12     6     7   ar
    13     7     8   ar
    14     8     4   ar
    15    14     9   ar
@<TRIPOS>MOLECULE
*****
 14 15 0 0 0
SMALL
GASTEIGER

@<TRIPOS>ATOM
      1 C         -12.9390   -6.4084   18.2900 C.1     1  UNL1       -0.0399
      2 C         -14.0350   -7.4073   18.5159 C.1     1  UNL1       -0.0567
      3 C          -8.8561   -3.8303   16.1535 C.3     1  UNL1        0.0594
      4 C          -9.9663   -4.2245   17.0820 C.ar    1  UNL1        0.0893
      5 N         -10.8912   -5.3921   16.9049 N.ar    1  UNL1       -0.2344
      6 C         -11.8430   -5.4095   18.0641 C.ar    1  UNL1        0.1295
      7 C         -11.5063   -4.2528   18.9578 C.ar    1  UNL1        0.0641
      8 S         -10.3465   -3.5204   18.3508 S.2     1  UNL1       -0.0695
      9 C         -15.1311   -8.4062   18.7418 C.ar    1  UNL1        0.0612
     10 C         -16.2969   -8.0551   19.6178 C.ar    1  UNL1        0.0114
     11 C         -17.3929   -9.0539   19.8436 C.ar    1  UNL1        0.0213
     12 C         -17.3230  -10.4039   19.1935 C.ar    1  UNL1        0.0989
     13 N         -16.1571  -10.7550   18.3175 N.ar    1  UNL1       -0.2417
     14 C         -15.0611   -9.7562   18.0917 C.ar    1  UNL1        0.1071
@<TRIPOS>BOND
     1     3     4    1
     2     4     5   ar
     3     5     6   ar
     4     6     1    1
     5     1     2    3
     6     2     9    1
     7     9    10   ar
     8    10    11   ar
     9    11    12   ar
    10    12    13   ar
    11    13    14   ar
    12     6     7   ar
    13     7     8   ar
    14     8     4   ar
    15    14     9   ar
@<TRIPOS>MOLECULE
*****
 14 15 0 0 0
SMALL
GASTEIGER

@<TRIPOS>ATOM
      1 C         -14.9368   -7.5434   18.8923 C.1     1  UNL1       -0.0399
      2 C         -13.6278   -6.8111   18.9012 C.1     1  UNL1       -0.0567
      3 C         -19.1226  -10.3275   17.2772 C.3     1  UNL1        0.0594
      4 C         -18.1699   -9.5555   18.1410 C.ar    1  UNL1        0.0893
      5 N         -16.8689   -8.9534   17.6991 N.ar    1  UNL1       -0.2344
      6 C         -16.2459   -8.2757   18.8835 C.ar    1  UNL1        0.1295
      7 C         -17.1617   -8.4590   20.0572 C.ar    1  UNL1        0.0641
      8 S         -18.3507   -9.2499   19.5984 S.2     1  UNL1       -0.0695
      9 C         -12.3187   -6.0787   18.9101 C.ar    1  UNL1        0.0612
     10 C         -11.0303   -6.8449   18.8549 C.ar    1  UNL1        0.0114
     11 C          -9.7213   -6.1125   18.8638 C.ar    1  UNL1        0.0213
     12 C          -9.7007   -4.6140   18.9279 C.ar    1  UNL1        0.0989
     13 N         -10.9890   -3.8479   18.9831 N.ar    1  UNL1       -0.2417
     14 C         -12.2980   -4.5803   18.9742 C.ar    1  UNL1        0.1071
@<TRIPOS>BOND
     1     3     4    1
     2     4     5   ar
     3     5     6   ar
     4     6     1    1
     5     1     2    3
     6     2     9    1
     7     9    10   ar
     8    10    11   ar
     9    11    12   ar
    10    12    13   ar
    11    13    14   ar
    12     6     7   ar
    13     7     8   ar
    14     8     4   ar
    15    14     9   ar
@<TRIPOS>MOLECULE
*****
 14 15 0 0 0
SMALL
GASTEIGER

@<TRIPOS>ATOM
      1 C         -14.5447   -6.3472   19.3273 C.1     1  UNL1       -0.0399
      2 C         -16.0237   -6.5152   19.5124 C.1     1  UNL1       -0.0567
      3 C          -9.4307   -7.3994   18.5392 C.3     1  UNL1        0.0594
      4 C         -10.7150   -6.6628   18.7799 C.ar    1  UNL1        0.0893
      5 N         -12.0756   -7.2813   18.9082 N.ar    1  UNL1       -0.2344
      6 C         -13.0656   -6.1791   19.1422 C.ar    1  UNL1        0.1295
      7 C         -12.3171   -4.8793   19.1585 C.ar    1  UNL1        0.0641
      8 S         -10.8643   -5.1782   18.9346 S.2     1  UNL1       -0.0695
      9 C         -17.5027   -6.6833   19.6975 C.ar    1  UNL1        0.0612
     10 C         -18.0627   -8.0190   20.0880 C.ar    1  UNL1        0.0114
     11 C         -19.5417   -8.1870   20.2731 C.ar    1  UNL1        0.0213
     12 C         -20.4607   -7.0194   20.0678 C.ar    1  UNL1        0.0989
     13 N         -19.9007   -5.6838   19.6773 N.ar    1  UNL1       -0.2417
     14 C         -18.4218   -5.5158   19.4922 C.ar    1  UNL1        0.1071
@<TRIPOS>BOND
     1     3     4    1
     2     4     5   ar
     3     5     6   ar
     4     6     1    1
     5     1     2    3
     6     2     9    1
     7     9    10   ar
     8    10    11   ar
     9    11    12   ar
    10    12    13   ar
    11    13    14   ar
    12     6     7   ar
    13     7     8   ar
    14     8     4   ar
    15    14     9   ar
@<TRIPOS>MOLECULE
*****
 14 15 0 0 0
SMALL
GASTEIGER

@<TRIPOS>ATOM
      1 C         -14.3809   -7.5536   18.6942 C.1     1  UNL1       -0.0399
      2 C         -15.7990   -7.9898   18.9148 C.1     1  UNL1       -0.0567
      3 C          -9.7731   -5.0206   19.1774 C.3     1  UNL1        0.0594
      4 C         -10.8448   -5.9530   18.6957 C.ar    1  UNL1        0.0893
      5 N         -12.2333   -6.0633   19.2526 N.ar    1  UNL1       -0.2344
      6 C         -12.9627   -7.1173   18.4736 C.ar    1  UNL1        0.1295
      7 C         -12.0252   -7.6585   17.4353 C.ar    1  UNL1        0.0641
      8 S         -10.7162   -6.9390   17.5726 S.2     1  UNL1       -0.0695
      9 C         -17.2171   -8.4260   19.1354 C.ar    1  UNL1        0.0612
     10 C         -18.0319   -7.8027   20.2297 C.ar    1  UNL1        0.0114
     11 C         -19.4500   -8.2389   20.4503 C.ar    1  UNL1        0.0213
     12 C         -20.0533   -9.2985   19.5766 C.ar    1  UNL1        0.0989
     13 N         -19.2385   -9.9218   18.4823 N.ar    1  UNL1       -0.2417
     14 C         -17.8204   -9.4856   18.2617 C.ar    1  UNL1        0.1071
@<TRIPOS>BOND
     1     3     4    1
     2     4     5   ar
     3     5     6   ar
     4     6     1    1
     5     1     2    3
     6     2     9    1
     7     9    10   ar
     8    10    11   ar
     9    11    12   ar
    10    12    13   ar
    11    13    14   ar
    12     6     7   ar
    13     7     8   ar
    14     8     4   ar
    15    14     9   ar
@<TRIPOS>MOLECULE
*****
 14 15 0 0 0
SMALL
GASTEIGER

@<TRIPOS>ATOM
      1 C         -13.6781   -5.7666   18.9825 C.1     1  UNL1       -0.0399
      2 C         -14.8078   -6.7384   19.1537 C.1     1  UNL1       -0.0567
      3 C         -10.9693   -1.3122   18.1447 C.3     1  UNL1        0.0594
      4 C         -11.3034   -2.7472   18.4261 C.ar    1  UNL1        0.0893
      5 N         -12.6826   -3.3305   18.5139 N.ar    1  UNL1       -0.2344
      6 C         -12.5485   -4.7947   18.8112 C.ar    1  UNL1        0.1295
      7 C         -11.0865   -5.1162   18.9071 C.ar    1  UNL1        0.0641
      8 S         -10.3170   -3.8509   18.6691 S.2     1  UNL1       -0.0695
      9 C         -15.9375   -7.7104   19.3250 C.ar    1  UNL1        0.0612
     10 C         -17.3020   -7.2152   19.7028 C.ar    1  UNL1        0.0114
     11 C         -18.4316   -8.1871   19.8740 C.ar    1  UNL1        0.0213
     12 C         -18.1966   -9.6542   19.6676 C.ar    1  UNL1        0.0989
     13 N         -16.8321  -10.1493   19.2899 N.ar    1  UNL1       -0.2417
     14 C         -15.7025   -9.1774   19.1186 C.ar    1  UNL1        0.1071
@<TRIPOS>BOND
     1     3     4    1
     2     4     5   ar
     3     5     6   ar
     4     6     1    1
     5     1     2    3
     6     2     9    1
     7     9    10   ar
     8    10    11   ar
     9    11    12   ar
    10    12    13   ar
    11    13    14   ar
    12     6     7   ar
    13     7     8   ar
    14     8     4   ar
    15    14     9   ar
@<TRIPOS>MOLECULE
*****
 14 15 0 0 0
SMALL
GASTEIGER

@<TRIPOS>ATOM
      1 C         -14.7602   -6.6403   19.0815 C.1     1  UNL1       -0.0399
      2 C         -16.0507   -7.4048   19.0879 C.1     1  UNL1       -0.0567
      3 C          -9.6079   -5.4848   19.0764 C.3     1  UNL1        0.0594
      4 C         -11.1013   -5.3447   19.0727 C.ar    1  UNL1        0.0893
      5 N         -12.0926   -6.4706   19.0835 N.ar    1  UNL1       -0.2344
      6 C         -13.4696   -5.8758   19.0751 C.ar    1  UNL1        0.1295
      7 C         -13.3295   -4.3825   19.0592 C.ar    1  UNL1        0.0641
      8 S         -11.8659   -4.0542   19.0577 S.2     1  UNL1       -0.0695
      9 C         -17.3413   -8.1693   19.0943 C.ar    1  UNL1        0.0612
     10 C         -17.6796   -9.0794   17.9510 C.ar    1  UNL1        0.0114
     11 C         -18.9702   -9.8438   17.9574 C.ar    1  UNL1        0.0213
     12 C         -19.9224   -9.6982   19.1072 C.ar    1  UNL1        0.0989
     13 N         -19.5841   -8.7882   20.2506 N.ar    1  UNL1       -0.2417
     14 C         -18.2935   -8.0237   20.2441 C.ar    1  UNL1        0.1071
@<TRIPOS>BOND
     1     3     4    1
     2     4     5   ar
     3     5     6   ar
     4     6     1    1
     5     1     2    3
     6     2     9    1
     7     9    10   ar
     8    10    11   ar
     9    11    12   ar
    10    12    13   ar
    11    13    14   ar
    12     6     7   ar
    13     7     8   ar
    14     8     4   ar
    15    14     9   ar
