@<TRIPOS>MOLECULE
*****
 29 32 0 0 0
SMALL
GASTEIGER

@<TRIPOS>ATOM
      1 C          -7.7517  -17.8783   21.6802 C.ar    1  UNL1        0.0811
      2 C          -8.0383  -17.1648   22.9681 C.ar    1  UNL1        0.0338
      3 C          -6.9242  -16.8781   23.9307 C.ar    1  UNL1        0.0742
      4 C          -5.5235  -17.3049   23.6054 C.ar    1  UNL1        0.0962
      5 N          -5.2369  -18.0184   22.3175 N.ar    1  UNL1       -0.2907
      6 C          -3.9661  -18.5559   21.7291 C.ar    1  UNL1        0.0567
      7 C          -2.6055  -18.4866   22.3567 C.3     1  UNL1        0.0517
      8 C          -4.2948  -19.1748   20.4028 C.ar    1  UNL1        0.0730
      9 C          -3.3206  -19.8332   19.4714 C.3     1  UNL1        0.0534
     10 N          -5.7687  -19.0198   20.1715 N.ar    1  UNL1       -0.2299
     11 C          -6.3510  -18.3051   21.3549 C.ar    1  UNL1        0.1604
     12 N          -7.2108  -16.1646   25.2187 N.am    1  UNL1       -0.2400
     13 C          -8.4640  -16.2862   26.0341 C.3     1  UNL1        0.1210
     14 C          -8.3222  -15.4010   27.2367 C.3     1  UNL1        0.1128
     15 N          -6.9814  -14.7323   27.1646 N.am    1  UNL1       -0.2867
     16 C          -6.2946  -15.2042   25.9174 C.2     1  UNL1        0.3079
     17 O          -4.9309  -14.7888   25.4508 O.2     1  UNL1       -0.2522
     18 H          -6.6163  -14.0955   27.8206 H       1  UNL1        0.1510
     19 N          -8.8658  -18.1650   20.7176 N.pl3   1  UNL1       -0.3267
     20 H          -8.8981  -17.7012   19.8498 H       1  UNL1        0.1472
     21 C          -9.9306  -19.1584   21.0772 C.3     1  UNL1        0.1137
     22 C         -12.1589  -17.2398   20.4822 C.3     1  UNL1        0.0307
     23 C         -12.0523  -17.8676   21.8403 C.ar    1  UNL1       -0.0245
     24 C         -13.0599  -17.5361   22.9009 C.ar    1  UNL1       -0.0045
     25 C         -12.9533  -18.1639   24.2590 C.ar    1  UNL1       -0.0007
     26 C         -11.8392  -19.1232   24.5565 C.ar    1  UNL1       -0.0045
     27 C         -10.8317  -19.4547   23.4960 C.ar    1  UNL1       -0.0245
     28 C          -9.7175  -20.4139   23.7935 C.3     1  UNL1        0.0307
     29 C         -10.9382  -18.8269   22.1378 C.ar    1  UNL1       -0.0105
@<TRIPOS>BOND
     1    22    23    1
     2    23    24   ar
     3    24    25   ar
     4    25    26   ar
     5    26    27   ar
     6    27    28    1
     7    27    29   ar
     8    29    21    1
     9    21    19    1
    10    19     1    1
    11     1     2   ar
    12     2     3   ar
    13     3    12    1
    14    12    13    1
    15    13    14    1
    16    14    15    1
    17    15    16   am
    18    16    17    2
    19     3     4   ar
    20     4     5   ar
    21     5     6   ar
    22     6     7    1
    23     6     8   ar
    24     8     9    1
    25     8    10   ar
    26    10    11   ar
    27    29    23   ar
    28    11     1   ar
    29    16    12   am
    30    11     5   ar
    31    19    20    1
    32    15    18    1
@<TRIPOS>MOLECULE
*****
 29 32 0 0 0
SMALL
GASTEIGER

@<TRIPOS>ATOM
      1 C          -7.2072  -18.0559   22.0610 C.ar    1  UNL1        0.0811
      2 C          -5.8472  -18.4161   21.5408 C.ar    1  UNL1        0.0338
      3 C          -4.6194  -17.9027   22.2327 C.ar    1  UNL1        0.0742
      4 C          -4.7516  -17.0291   23.4448 C.ar    1  UNL1        0.0962
      5 N          -6.1115  -16.6688   23.9650 N.ar    1  UNL1       -0.2907
      6 C          -6.5515  -15.8327   25.1300 C.ar    1  UNL1        0.0567
      7 C          -5.6500  -15.1243   26.0972 C.3     1  UNL1        0.0517
      8 C          -8.0512  -15.8293   25.1581 C.ar    1  UNL1        0.0730
      9 C          -8.9128  -15.1169   26.1583 C.3     1  UNL1        0.0534
     10 N          -8.5382  -16.6634   24.0105 N.ar    1  UNL1       -0.2299
     11 C          -7.3393  -17.1823   23.2731 C.ar    1  UNL1        0.1604
     12 N          -3.2593  -18.2629   21.7125 N.am    1  UNL1       -0.2400
     13 C          -2.7672  -19.6486   21.4163 C.3     1  UNL1        0.1210
     14 C          -1.3563  -19.5427   20.9179 C.3     1  UNL1        0.1128
     15 N          -0.9765  -18.0916   20.9062 N.am    1  UNL1       -0.2867
     16 C          -2.1526  -17.3007   21.3973 C.2     1  UNL1        0.3079
     17 O          -2.2117  -15.8093   21.5469 O.2     1  UNL1       -0.2522
     18 H          -0.1078  -17.7230   20.6255 H       1  UNL1        0.1510
     19 N          -8.4351  -18.5694   21.3690 N.pl3   1  UNL1       -0.3267
     20 H          -8.6182  -18.3127   20.4364 H       1  UNL1        0.1472
     21 C          -9.3839  -19.4739   22.0981 C.3     1  UNL1        0.1137
     22 C         -10.1997  -19.7663   24.9702 C.3     1  UNL1        0.0307
     23 C         -11.1215  -19.0992   23.9929 C.ar    1  UNL1       -0.0245
     24 C         -12.4513  -18.5783   24.4516 C.ar    1  UNL1       -0.0045
     25 C         -13.3732  -17.9113   23.4742 C.ar    1  UNL1       -0.0007
     26 C         -12.9653  -17.7651   22.0382 C.ar    1  UNL1       -0.0045
     27 C         -11.6355  -18.2859   21.5795 C.ar    1  UNL1       -0.0245
     28 C         -11.2276  -18.1397   20.1434 C.3     1  UNL1        0.0307
     29 C         -10.7136  -18.9530   22.5568 C.ar    1  UNL1       -0.0105
@<TRIPOS>BOND
     1    22    23    1
     2    23    24   ar
     3    24    25   ar
     4    25    26   ar
     5    26    27   ar
     6    27    28    1
     7    27    29   ar
     8    29    21    1
     9    21    19    1
    10    19     1    1
    11     1     2   ar
    12     2     3   ar
    13     3    12    1
    14    12    13    1
    15    13    14    1
    16    14    15    1
    17    15    16   am
    18    16    17    2
    19     3     4   ar
    20     4     5   ar
    21     5     6   ar
    22     6     7    1
    23     6     8   ar
    24     8     9    1
    25     8    10   ar
    26    10    11   ar
    27    29    23   ar
    28    11     1   ar
    29    16    12   am
    30    11     5   ar
    31    19    20    1
    32    15    18    1
@<TRIPOS>MOLECULE
*****
 29 32 0 0 0
SMALL
GASTEIGER

@<TRIPOS>ATOM
      1 C          -7.2070  -18.0549   22.0604 C.ar    1  UNL1        0.0811
      2 C          -5.8471  -18.4150   21.5398 C.ar    1  UNL1        0.0338
      3 C          -4.6192  -17.9018   22.2317 C.ar    1  UNL1        0.0742
      4 C          -4.7512  -17.0285   23.4441 C.ar    1  UNL1        0.0962
      5 N          -6.1111  -16.6684   23.9647 N.ar    1  UNL1       -0.2907
      6 C          -6.5508  -15.8327   25.1300 C.ar    1  UNL1        0.0567
      7 C          -5.6491  -15.1245   26.0972 C.3     1  UNL1        0.0517
      8 C          -8.0506  -15.8293   25.1584 C.ar    1  UNL1        0.0730
      9 C          -8.9119  -15.1172   26.1590 C.3     1  UNL1        0.0534
     10 N          -8.5377  -16.6631   24.0105 N.ar    1  UNL1       -0.2299
     11 C          -7.3390  -17.1817   23.2728 C.ar    1  UNL1        0.1604
     12 N          -3.2592  -18.2618   21.7112 N.am    1  UNL1       -0.2400
     13 C          -2.7677  -19.6472   21.4128 C.3     1  UNL1        0.1210
     14 C          -1.3567  -19.5412   20.9149 C.3     1  UNL1        0.1128
     15 N          -0.9762  -18.0903   20.9055 N.am    1  UNL1       -0.2867
     16 C          -2.1520  -17.2996   21.3976 C.2     1  UNL1        0.3079
     17 O          -2.2104  -15.8084   21.5496 O.2     1  UNL1       -0.2522
     18 H          -0.1073  -17.7217   20.6255 H       1  UNL1        0.1510
     19 N          -8.4350  -18.5682   21.3685 N.pl3   1  UNL1       -0.3267
     20 H          -8.6186  -18.3108   20.4361 H       1  UNL1        0.1472
     21 C          -9.3833  -19.4736   22.0972 C.3     1  UNL1        0.1137
     22 C         -11.2296  -18.1401   20.1444 C.3     1  UNL1        0.0307
     23 C         -11.6360  -18.2866   21.5808 C.ar    1  UNL1       -0.0245
     24 C         -12.9656  -17.7664   22.0409 C.ar    1  UNL1       -0.0045
     25 C         -13.3720  -17.9129   23.4773 C.ar    1  UNL1       -0.0007
     26 C         -12.4489  -18.5797   24.4537 C.ar    1  UNL1       -0.0045
     27 C         -11.1193  -19.0999   23.9937 C.ar    1  UNL1       -0.0245
     28 C         -10.1962  -19.7666   24.9701 C.3     1  UNL1        0.0307
     29 C         -10.7128  -18.9534   22.5572 C.ar    1  UNL1       -0.0105
@<TRIPOS>BOND
     1    22    23    1
     2    23    24   ar
     3    24    25   ar
     4    25    26   ar
     5    26    27   ar
     6    27    28    1
     7    27    29   ar
     8    29    21    1
     9    21    19    1
    10    19     1    1
    11     1     2   ar
    12     2     3   ar
    13     3    12    1
    14    12    13    1
    15    13    14    1
    16    14    15    1
    17    15    16   am
    18    16    17    2
    19     3     4   ar
    20     4     5   ar
    21     5     6   ar
    22     6     7    1
    23     6     8   ar
    24     8     9    1
    25     8    10   ar
    26    10    11   ar
    27    29    23   ar
    28    11     1   ar
    29    16    12   am
    30    11     5   ar
    31    19    20    1
    32    15    18    1
@<TRIPOS>MOLECULE
*****
 29 32 0 0 0
SMALL
GASTEIGER

@<TRIPOS>ATOM
      1 C          -7.0237  -18.1586   22.0090 C.ar    1  UNL1        0.0811
      2 C          -6.7433  -17.4488   23.3003 C.ar    1  UNL1        0.0338
      3 C          -7.8590  -16.7773   24.0447 C.ar    1  UNL1        0.0742
      4 C          -9.2552  -16.8156   23.4977 C.ar    1  UNL1        0.0962
      5 N          -9.5357  -17.5255   22.2065 N.ar    1  UNL1       -0.2907
      6 C         -10.8011  -17.7288   21.4271 C.ar    1  UNL1        0.0567
      7 C         -12.1614  -17.2236   21.8071 C.3     1  UNL1        0.0517
      8 C         -10.4674  -18.5260   20.2011 C.ar    1  UNL1        0.0730
      9 C         -11.4355  -18.9579   19.1397 C.3     1  UNL1        0.0534
     10 N          -8.9957  -18.8153   20.2227 N.ar    1  UNL1       -0.2299
     11 C          -8.4199  -18.1970   21.4621 C.ar    1  UNL1        0.1604
     12 N          -7.5786  -16.0674   25.3360 N.am    1  UNL1       -0.2400
     13 C          -8.3801  -16.1843   26.5985 C.3     1  UNL1        0.1210
     14 C          -7.7443  -15.3052   27.6343 C.3     1  UNL1        0.1128
     15 N          -6.5498  -14.6449   27.0119 N.am    1  UNL1       -0.2867
     16 C          -6.4475  -15.1160   25.5915 C.2     1  UNL1        0.3079
     17 O          -5.3981  -14.7073   24.6006 O.2     1  UNL1       -0.2522
     18 H          -5.9401  -14.0132   27.4575 H       1  UNL1        0.1510
     19 N          -5.9079  -18.8302   21.2646 N.pl3   1  UNL1       -0.3267
     20 H          -6.0571  -19.1647   20.3508 H       1  UNL1        0.1472
     21 C          -4.5648  -18.9920   21.9125 C.3     1  UNL1        0.1137
     22 C          -3.1766  -16.6392   23.1523 C.3     1  UNL1        0.0307
     23 C          -2.6494  -17.2369   21.8816 C.ar    1  UNL1       -0.0245
     24 C          -1.4281  -16.6583   21.2308 C.ar    1  UNL1       -0.0045
     25 C          -0.9009  -17.2560   19.9601 C.ar    1  UNL1       -0.0007
     26 C          -1.5950  -18.4324   19.3402 C.ar    1  UNL1       -0.0045
     27 C          -2.8163  -19.0111   19.9910 C.ar    1  UNL1       -0.0245
     28 C          -3.5103  -20.1875   19.3711 C.3     1  UNL1        0.0307
     29 C          -3.3435  -18.4133   21.2617 C.ar    1  UNL1       -0.0105
@<TRIPOS>BOND
     1    22    23    1
     2    23    24   ar
     3    24    25   ar
     4    25    26   ar
     5    26    27   ar
     6    27    28    1
     7    27    29   ar
     8    29    21    1
     9    21    19    1
    10    19     1    1
    11     1     2   ar
    12     2     3   ar
    13     3    12    1
    14    12    13    1
    15    13    14    1
    16    14    15    1
    17    15    16   am
    18    16    17    2
    19     3     4   ar
    20     4     5   ar
    21     5     6   ar
    22     6     7    1
    23     6     8   ar
    24     8     9    1
    25     8    10   ar
    26    10    11   ar
    27    29    23   ar
    28    11     1   ar
    29    16    12   am
    30    11     5   ar
    31    19    20    1
    32    15    18    1
@<TRIPOS>MOLECULE
*****
 29 32 0 0 0
SMALL
GASTEIGER

@<TRIPOS>ATOM
      1 C          -6.3588  -19.3720   21.4710 C.ar    1  UNL1        0.0811
      2 C          -6.4475  -18.3774   22.5903 C.ar    1  UNL1        0.0338
      3 C          -7.6941  -17.5635   22.7733 C.ar    1  UNL1        0.0742
      4 C          -8.8520  -17.7442   21.8369 C.ar    1  UNL1        0.0962
      5 N          -8.7632  -18.7388   20.7176 N.ar    1  UNL1       -0.2907
      6 C          -9.7355  -19.1326   19.6454 C.ar    1  UNL1        0.0567
      7 C         -11.1118  -18.5682   19.4527 C.3     1  UNL1        0.0517
      8 C          -9.0897  -20.1900   18.7998 C.ar    1  UNL1        0.0730
      9 C          -9.7070  -20.8685   17.6129 C.3     1  UNL1        0.0534
     10 N          -7.7184  -20.4496   19.3493 N.ar    1  UNL1       -0.2299
     11 C          -7.5166  -19.5527   20.5347 C.ar    1  UNL1        0.1604
     12 N          -7.7829  -16.5689   23.8926 N.am    1  UNL1       -0.2400
     13 C          -8.8432  -16.5269   24.9528 C.3     1  UNL1        0.1210
     14 C          -8.5426  -15.3737   25.8637 C.3     1  UNL1        0.1128
     15 N          -7.2964  -14.7029   25.3664 N.am    1  UNL1       -0.2867
     16 C          -6.8270  -15.4415   24.1483 C.2     1  UNL1        0.3079
     17 O          -5.6145  -15.1109   23.3295 O.2     1  UNL1       -0.2522
     18 H          -6.8629  -13.9159   25.7689 H       1  UNL1        0.1510
     19 N          -5.1121  -20.1859   21.2880 N.pl3   1  UNL1       -0.3267
     20 H          -5.1187  -20.9690   20.6914 H       1  UNL1        0.1472
     21 C          -3.8555  -19.8066   22.0139 C.3     1  UNL1        0.1137
     22 C          -2.8740  -19.7200   19.1803 C.3     1  UNL1        0.0307
     23 C          -2.5464  -18.5995   20.1221 C.ar    1  UNL1       -0.0245
     24 C          -1.7279  -17.4356   19.6471 C.ar    1  UNL1       -0.0045
     25 C          -1.4003  -16.3150   20.5889 C.ar    1  UNL1       -0.0007
     26 C          -1.8910  -16.3583   22.0057 C.ar    1  UNL1       -0.0045
     27 C          -2.7094  -17.5222   22.4807 C.ar    1  UNL1       -0.0245
     28 C          -3.2001  -17.5655   23.8975 C.3     1  UNL1        0.0307
     29 C          -3.0371  -18.6428   21.5389 C.ar    1  UNL1       -0.0105
@<TRIPOS>BOND
     1    22    23    1
     2    23    24   ar
     3    24    25   ar
     4    25    26   ar
     5    26    27   ar
     6    27    28    1
     7    27    29   ar
     8    29    21    1
     9    21    19    1
    10    19     1    1
    11     1     2   ar
    12     2     3   ar
    13     3    12    1
    14    12    13    1
    15    13    14    1
    16    14    15    1
    17    15    16   am
    18    16    17    2
    19     3     4   ar
    20     4     5   ar
    21     5     6   ar
    22     6     7    1
    23     6     8   ar
    24     8     9    1
    25     8    10   ar
    26    10    11   ar
    27    29    23   ar
    28    11     1   ar
    29    16    12   am
    30    11     5   ar
    31    19    20    1
    32    15    18    1
@<TRIPOS>MOLECULE
*****
 29 32 0 0 0
SMALL
GASTEIGER

@<TRIPOS>ATOM
      1 C          -6.9164  -18.2639   22.2015 C.ar    1  UNL1        0.0811
      2 C          -6.4206  -17.5047   23.3964 C.ar    1  UNL1        0.0338
      3 C          -7.3094  -16.5008   24.0688 C.ar    1  UNL1        0.0742
      4 C          -8.6941  -16.2562   23.5464 C.ar    1  UNL1        0.0962
      5 N          -9.1899  -17.0154   22.3516 N.ar    1  UNL1       -0.2907
      6 C         -10.4971  -16.9878   21.6165 C.ar    1  UNL1        0.0567
      7 C         -11.6779  -16.1249   21.9497 C.3     1  UNL1        0.0517
      8 C         -10.4162  -17.9746   20.4896 C.ar    1  UNL1        0.0730
      9 C         -11.5020  -18.2717   19.4981 C.3     1  UNL1        0.0534
     10 N          -9.0590  -18.6121   20.5283 N.ar    1  UNL1       -0.2299
     11 C          -8.3011  -18.0193   21.6791 C.ar    1  UNL1        0.1604
     12 N          -6.8136  -15.7416   25.2637 N.am    1  UNL1       -0.2400
     13 C          -5.5773  -14.8940   25.3190 C.3     1  UNL1        0.1210
     14 C          -5.4667  -14.3252   26.7025 C.3     1  UNL1        0.1128
     15 N          -6.6347  -14.8212   27.5024 N.am    1  UNL1       -0.2867
     16 C          -7.4671  -15.6966   26.6131 C.2     1  UNL1        0.3079
     17 O          -8.7311  -16.4030   27.0046 O.2     1  UNL1       -0.2522
     18 H          -6.8220  -14.6095   28.4454 H       1  UNL1        0.1510
     19 N          -6.0276  -19.2678   21.5290 N.pl3   1  UNL1       -0.3267
     20 H          -6.3728  -19.8089   20.7825 H       1  UNL1        0.1472
     21 C          -4.6128  -19.4472   21.9939 C.3     1  UNL1        0.1137
     22 C          -3.7170  -20.3806   19.2871 C.3     1  UNL1        0.0307
     23 C          -3.0478  -19.2045   19.9343 C.ar    1  UNL1       -0.0245
     24 C          -1.9306  -18.4950   19.2281 C.ar    1  UNL1       -0.0045
     25 C          -1.2613  -17.3190   19.8754 C.ar    1  UNL1       -0.0007
     26 C          -1.7092  -16.8523   21.2287 C.ar    1  UNL1       -0.0045
     27 C          -2.8263  -17.5617   21.9349 C.ar    1  UNL1       -0.0245
     28 C          -3.2742  -17.0950   23.2883 C.3     1  UNL1        0.0307
     29 C          -3.4957  -18.7378   21.2877 C.ar    1  UNL1       -0.0105
@<TRIPOS>BOND
     1    22    23    1
     2    23    24   ar
     3    24    25   ar
     4    25    26   ar
     5    26    27   ar
     6    27    28    1
     7    27    29   ar
     8    29    21    1
     9    21    19    1
    10    19     1    1
    11     1     2   ar
    12     2     3   ar
    13     3    12    1
    14    12    13    1
    15    13    14    1
    16    14    15    1
    17    15    16   am
    18    16    17    2
    19     3     4   ar
    20     4     5   ar
    21     5     6   ar
    22     6     7    1
    23     6     8   ar
    24     8     9    1
    25     8    10   ar
    26    10    11   ar
    27    29    23   ar
    28    11     1   ar
    29    16    12   am
    30    11     5   ar
    31    19    20    1
    32    15    18    1
@<TRIPOS>MOLECULE
*****
 29 32 0 0 0
SMALL
GASTEIGER

@<TRIPOS>ATOM
      1 C          -6.3356  -19.5122   21.2796 C.ar    1  UNL1        0.0811
      2 C          -6.4900  -18.5289   22.4017 C.ar    1  UNL1        0.0338
      3 C          -7.7781  -17.7788   22.5696 C.ar    1  UNL1        0.0742
      4 C          -8.9117  -18.0120   21.6155 C.ar    1  UNL1        0.0962
      5 N          -8.7573  -18.9954   20.4934 N.ar    1  UNL1       -0.2907
      6 C          -9.6930  -19.4316   19.4052 C.ar    1  UNL1        0.0567
      7 C         -11.0927  -18.9353   19.1945 C.3     1  UNL1        0.0517
      8 C          -8.9832  -20.4514   18.5647 C.ar    1  UNL1        0.0730
      9 C          -9.5486  -21.1538   17.3659 C.3     1  UNL1        0.0534
     10 N          -7.6089  -20.6453   19.1334 N.ar    1  UNL1       -0.2299
     11 C          -7.4693  -19.7455   20.3254 C.ar    1  UNL1        0.1604
     12 N          -7.9325  -16.7954   23.6918 N.am    1  UNL1       -0.2400
     13 C          -7.0846  -15.5796   23.9217 C.3     1  UNL1        0.1210
     14 C          -7.5900  -14.8880   25.1530 C.3     1  UNL1        0.1128
     15 N          -8.7505  -15.6763   25.6841 N.am    1  UNL1       -0.2867
     16 C          -8.9621  -16.8551   24.7810 C.2     1  UNL1        0.3079
     17 O         -10.0180  -17.9087   24.9393 O.2     1  UNL1       -0.2522
     18 H          -9.2802  -15.4583   26.4848 H       1  UNL1        0.1510
     19 N          -5.0475  -20.2624   21.1116 N.pl3   1  UNL1       -0.3267
     20 H          -4.9943  -21.0133   20.4772 H       1  UNL1        0.1472
     21 C          -3.8405  -19.8683   21.9103 C.3     1  UNL1        0.1137
     22 C          -3.3803  -17.6783   23.9084 C.3     1  UNL1        0.0307
     23 C          -2.8187  -17.5594   22.5226 C.ar    1  UNL1       -0.0245
     24 C          -2.0270  -16.3455   22.1358 C.ar    1  UNL1       -0.0045
     25 C          -1.4653  -16.2266   20.7500 C.ar    1  UNL1       -0.0007
     26 C          -1.6954  -17.3216   19.7510 C.ar    1  UNL1       -0.0045
     27 C          -2.4871  -18.5355   20.1377 C.ar    1  UNL1       -0.0245
     28 C          -2.7172  -19.6305   19.1387 C.3     1  UNL1        0.0307
     29 C          -3.0488  -18.6544   21.5236 C.ar    1  UNL1       -0.0105
@<TRIPOS>BOND
     1    22    23    1
     2    23    24   ar
     3    24    25   ar
     4    25    26   ar
     5    26    27   ar
     6    27    28    1
     7    27    29   ar
     8    29    21    1
     9    21    19    1
    10    19     1    1
    11     1     2   ar
    12     2     3   ar
    13     3    12    1
    14    12    13    1
    15    13    14    1
    16    14    15    1
    17    15    16   am
    18    16    17    2
    19     3     4   ar
    20     4     5   ar
    21     5     6   ar
    22     6     7    1
    23     6     8   ar
    24     8     9    1
    25     8    10   ar
    26    10    11   ar
    27    29    23   ar
    28    11     1   ar
    29    16    12   am
    30    11     5   ar
    31    19    20    1
    32    15    18    1
@<TRIPOS>MOLECULE
*****
 29 32 0 0 0
SMALL
GASTEIGER

@<TRIPOS>ATOM
      1 C           4.7777   -2.3736   24.3725 C.ar    1  UNL1        0.0811
      2 C           5.0059   -2.8764   22.9779 C.ar    1  UNL1        0.0338
      3 C           4.2733   -2.2532   21.8268 C.ar    1  UNL1        0.0742
      4 C           3.3125   -1.1273   22.0705 C.ar    1  UNL1        0.0962
      5 N           3.0844   -0.6246   23.4651 N.ar    1  UNL1       -0.2907
      6 C           2.2052    0.4622   24.0091 C.ar    1  UNL1        0.0567
      7 C           1.2964    1.3454   23.2067 C.3     1  UNL1        0.0517
      8 C           2.3945    0.5107   25.4963 C.ar    1  UNL1        0.0730
      9 C           1.7080    1.4510   26.4422 C.3     1  UNL1        0.0534
     10 N           3.3906   -0.5461   25.8716 N.ar    1  UNL1       -0.2299
     11 C           3.8170   -1.2478   24.6162 C.ar    1  UNL1        0.1604
     12 N           4.5014   -2.7559   20.4321 N.am    1  UNL1       -0.2400
     13 C           5.0074   -1.9467   19.2749 C.3     1  UNL1        0.1210
     14 C           5.0823   -2.8468   18.0773 C.3     1  UNL1        0.1128
     15 N           4.6225   -4.2124   18.4943 N.am    1  UNL1       -0.2867
     16 C           4.2635   -4.1562   19.9496 C.2     1  UNL1        0.3079
     17 O           3.7558   -5.2996   20.7772 O.2     1  UNL1       -0.2522
     18 H           4.5663   -5.0061   17.9146 H       1  UNL1        0.1510
     19 N           5.5104   -2.9968   25.5237 N.pl3   1  UNL1       -0.3267
     20 H           5.0589   -3.1099   26.3912 H       1  UNL1        0.1472
     21 C           6.9308   -3.4477   25.3529 C.3     1  UNL1        0.1137
     22 C           8.0892   -4.7372   22.9044 C.3     1  UNL1        0.0307
     23 C           7.8383   -5.5560   24.1358 C.ar    1  UNL1       -0.0245
     24 C           8.1667   -7.0197   24.1431 C.ar    1  UNL1       -0.0045
     25 C           7.9158   -7.8385   25.3746 C.ar    1  UNL1       -0.0007
     26 C           7.3366   -7.1937   26.5988 C.ar    1  UNL1       -0.0045
     27 C           7.0082   -5.7301   26.5916 C.ar    1  UNL1       -0.0245
     28 C           6.4290   -5.0854   27.8159 C.3     1  UNL1        0.0307
     29 C           7.2591   -4.9112   25.3601 C.ar    1  UNL1       -0.0105
@<TRIPOS>BOND
     1    22    23    1
     2    23    24   ar
     3    24    25   ar
     4    25    26   ar
     5    26    27   ar
     6    27    28    1
     7    27    29   ar
     8    29    21    1
     9    21    19    1
    10    19     1    1
    11     1     2   ar
    12     2     3   ar
    13     3    12    1
    14    12    13    1
    15    13    14    1
    16    14    15    1
    17    15    16   am
    18    16    17    2
    19     3     4   ar
    20     4     5   ar
    21     5     6   ar
    22     6     7    1
    23     6     8   ar
    24     8     9    1
    25     8    10   ar
    26    10    11   ar
    27    29    23   ar
    28    11     1   ar
    29    16    12   am
    30    11     5   ar
    31    19    20    1
    32    15    18    1
@<TRIPOS>MOLECULE
*****
 29 32 0 0 0
SMALL
GASTEIGER

@<TRIPOS>ATOM
      1 C           3.6359   -2.5550   20.1689 C.ar    1  UNL1        0.0811
      2 C           2.6256   -1.4526   20.0515 C.ar    1  UNL1        0.0338
      3 C           2.3040   -0.6001   21.2430 C.ar    1  UNL1        0.0742
      4 C           2.9927   -0.8500   22.5519 C.ar    1  UNL1        0.0962
      5 N           4.0030   -1.9524   22.6693 N.ar    1  UNL1       -0.2907
      6 C           4.8366   -2.4316   23.8206 C.ar    1  UNL1        0.0567
      7 C           4.8338   -1.8620   25.2083 C.3     1  UNL1        0.0517
      8 C           5.6734   -3.5803   23.3407 C.ar    1  UNL1        0.0730
      9 C           6.6543   -4.3611   24.1642 C.3     1  UNL1        0.0534
     10 N           5.3570   -3.8111   21.8927 N.ar    1  UNL1       -0.2299
     11 C           4.3246   -2.8050   21.4778 C.ar    1  UNL1        0.1604
     12 N           1.2936    0.5025   21.1257 N.am    1  UNL1       -0.2400
     13 C           0.7529    1.3269   22.2562 C.3     1  UNL1        0.1210
     14 C          -0.2283    2.3080   21.6864 C.3     1  UNL1        0.1128
     15 N          -0.2940    2.0900   20.2037 N.am    1  UNL1       -0.2867
     16 C           0.6466    0.9741   19.8572 C.2     1  UNL1        0.3079
     17 O           0.8963    0.4261   18.4835 O.2     1  UNL1       -0.2522
     18 H          -0.8558    2.5913   19.5694 H       1  UNL1        0.1510
     19 N           3.9575   -3.4076   18.9774 N.pl3   1  UNL1       -0.3267
     20 H           3.3559   -4.1439   18.7221 H       1  UNL1        0.1472
     21 C           5.1958   -3.1384   18.1748 C.3     1  UNL1        0.1137
     22 C           3.8300   -0.9254   16.6791 C.3     1  UNL1        0.0307
     23 C           5.1117   -0.6567   17.4105 C.ar    1  UNL1       -0.0245
     24 C           5.7106    0.7185   17.3941 C.ar    1  UNL1       -0.0045
     25 C           6.9923    0.9871   18.1255 C.ar    1  UNL1       -0.0007
     26 C           7.6752   -0.1194   18.8733 C.ar    1  UNL1       -0.0045
     27 C           7.0764   -1.4945   18.8898 C.ar    1  UNL1       -0.0245
     28 C           7.7593   -2.6010   19.6377 C.3     1  UNL1        0.0307
     29 C           5.7946   -1.7632   18.1584 C.ar    1  UNL1       -0.0105
@<TRIPOS>BOND
     1    22    23    1
     2    23    24   ar
     3    24    25   ar
     4    25    26   ar
     5    26    27   ar
     6    27    28    1
     7    27    29   ar
     8    29    21    1
     9    21    19    1
    10    19     1    1
    11     1     2   ar
    12     2     3   ar
    13     3    12    1
    14    12    13    1
    15    13    14    1
    16    14    15    1
    17    15    16   am
    18    16    17    2
    19     3     4   ar
    20     4     5   ar
    21     5     6   ar
    22     6     7    1
    23     6     8   ar
    24     8     9    1
    25     8    10   ar
    26    10    11   ar
    27    29    23   ar
    28    11     1   ar
    29    16    12   am
    30    11     5   ar
    31    19    20    1
    32    15    18    1
