@<TRIPOS>MOLECULE
*****
 27 30 0 0 0
SMALL
GASTEIGER

@<TRIPOS>ATOM
      1 C          -7.8475  -20.1717   21.7863 C.3     1  UNL1        0.1363
      2 N          -6.4647  -19.6623   21.5064 N.ar    1  UNL1       -0.2667
      3 C          -6.0327  -18.3305   22.0446 C.ar    1  UNL1        0.2036
      4 N          -4.6499  -17.8212   21.7647 N.ar    1  UNL1       -0.2148
      5 C          -3.6990  -18.6436   20.9466 C.ar    1  UNL1        0.0890
      6 C          -4.1309  -19.9754   20.4084 C.ar    1  UNL1        0.0800
      7 C          -5.5138  -20.4848   20.6883 C.ar    1  UNL1        0.2645
      8 O          -5.9457  -21.8166   20.1501 O.2     1  UNL1       -0.2668
      9 N          -6.9837  -17.5080   22.8628 N.pl3   1  UNL1       -0.2740
     10 C          -6.4797  -16.3235   23.6328 C.3     1  UNL1        0.1257
     11 C          -7.4307  -15.5010   24.4509 C.3     1  UNL1        0.1640
     12 O          -8.8855  -15.8631   24.4990 O.3     1  UNL1       -0.3483
     13 C          -9.3894  -17.0477   23.7290 C.3     1  UNL1        0.1572
     14 C          -8.4385  -17.8701   22.9109 C.3     1  UNL1        0.1276
     15 C         -10.8443  -17.4098   23.7771 C.ar    1  UNL1        0.0064
     16 C         -11.3215  -18.4741   24.7203 C.ar    1  UNL1        0.0004
     17 C         -12.7763  -18.8362   24.7684 C.ar    1  UNL1        0.0294
     18 C         -13.7540  -18.1339   23.8733 C.ar    1  UNL1        0.1401
     19 F         -15.2088  -18.4960   23.9215 F       1  UNL1       -0.2042
     20 C         -13.2768  -17.0696   22.9302 C.ar    1  UNL1        0.0294
     21 C         -11.8219  -16.7076   22.8821 C.ar    1  UNL1        0.0004
     22 C          -2.3162  -18.1342   20.6667 C.ar    1  UNL1        0.0210
     23 C          -1.3044  -19.0301   20.0158 C.ar    1  UNL1        0.0222
     24 C           0.0784  -18.5207   19.7359 C.ar    1  UNL1        0.0989
     25 N           0.4495  -17.1155   20.1070 N.ar    1  UNL1       -0.2423
     26 C          -0.5623  -16.2197   20.7579 C.ar    1  UNL1        0.0989
     27 C          -1.9451  -16.7291   21.0378 C.ar    1  UNL1        0.0222
@<TRIPOS>BOND
     1     1     2    1
     2     2     3   ar
     3     3     9    1
     4     9    10    1
     5    10    11    1
     6    11    12    1
     7    12    13    1
     8    13    15    1
     9    15    16   ar
    10    16    17   ar
    11    17    18   ar
    12    18    19    1
    13    18    20   ar
    14    20    21   ar
    15    13    14    1
    16     3     4   ar
    17     4     5   ar
    18     5    22    1
    19    22    23   ar
    20    23    24   ar
    21    24    25   ar
    22    25    26   ar
    23    26    27   ar
    24     5     6   ar
    25     6     7   ar
    26     7     8    2
    27     7     2   ar
    28    14     9    1
    29    27    22   ar
    30    21    15   ar
@<TRIPOS>MOLECULE
*****
 27 30 0 0 0
SMALL
GASTEIGER

@<TRIPOS>ATOM
      1 C           8.2997   -2.7925   19.8348 C.3     1  UNL1        0.1363
      2 N           6.9301   -2.1830   19.7829 N.ar    1  UNL1       -0.2667
      3 C           6.2323   -1.7968   21.0533 C.ar    1  UNL1        0.2036
      4 N           4.8628   -1.1873   21.0014 N.ar    1  UNL1       -0.2148
      5 C           4.1909   -0.9639   19.6790 C.ar    1  UNL1        0.0890
      6 C           4.8886   -1.3501   18.4086 C.ar    1  UNL1        0.0800
      7 C           6.2582   -1.9596   18.4606 C.ar    1  UNL1        0.2645
      8 O           6.9560   -2.3457   17.1900 O.2     1  UNL1       -0.2668
      9 N           6.9042   -2.0202   22.3758 N.pl3   1  UNL1       -0.2740
     10 C           7.6274   -0.8920   23.0497 C.3     1  UNL1        0.1257
     11 C           8.2992   -1.1154   24.3721 C.3     1  UNL1        0.1640
     12 O           8.2479   -2.4670   25.0206 O.3     1  UNL1       -0.3483
     13 C           7.5246   -3.5952   24.3466 C.3     1  UNL1        0.1572
     14 C           6.8528   -3.3718   23.0243 C.3     1  UNL1        0.1276
     15 C           7.4733   -4.9468   24.9951 C.ar    1  UNL1        0.0064
     16 C           6.8444   -5.1064   26.3476 C.ar    1  UNL1        0.0004
     17 C           6.7930   -6.4580   26.9961 C.ar    1  UNL1        0.0294
     18 C           7.3706   -7.6500   26.2921 C.ar    1  UNL1        0.1401
     19 F           7.3192   -9.0016   26.9406 F       1  UNL1       -0.2042
     20 C           7.9994   -7.4905   24.9397 C.ar    1  UNL1        0.0294
     21 C           8.0508   -6.1389   24.2912 C.ar    1  UNL1        0.0004
     22 C           2.8213   -0.3544   19.6271 C.ar    1  UNL1        0.0210
     23 C           2.4387    0.5339   18.4806 C.ar    1  UNL1        0.0222
     24 C           1.0691    1.1435   18.4287 C.ar    1  UNL1        0.0989
     25 N           0.0821    0.8647   19.5232 N.ar    1  UNL1       -0.2423
     26 C           0.4647   -0.0237   20.6697 C.ar    1  UNL1        0.0989
     27 C           1.8343   -0.6332   20.7216 C.ar    1  UNL1        0.0222
@<TRIPOS>BOND
     1     1     2    1
     2     2     3   ar
     3     3     9    1
     4     9    10    1
     5    10    11    1
     6    11    12    1
     7    12    13    1
     8    13    15    1
     9    15    16   ar
    10    16    17   ar
    11    17    18   ar
    12    18    19    1
    13    18    20   ar
    14    20    21   ar
    15    13    14    1
    16     3     4   ar
    17     4     5   ar
    18     5    22    1
    19    22    23   ar
    20    23    24   ar
    21    24    25   ar
    22    25    26   ar
    23    26    27   ar
    24     5     6   ar
    25     6     7   ar
    26     7     8    2
    27     7     2   ar
    28    14     9    1
    29    27    22   ar
    30    21    15   ar
@<TRIPOS>MOLECULE
*****
 27 30 0 0 0
SMALL
GASTEIGER

@<TRIPOS>ATOM
      1 C           0.3139    6.0114   17.9675 C.3     1  UNL1        0.1363
      2 N           0.8780    4.6313   18.1324 N.ar    1  UNL1       -0.2667
      3 C          -0.0394    3.4450   18.1643 C.ar    1  UNL1        0.2036
      4 N           0.5247    2.0649   18.3292 N.ar    1  UNL1       -0.2148
      5 C           2.0061    1.8711   18.4623 C.ar    1  UNL1        0.0890
      6 C           2.9235    3.0574   18.4304 C.ar    1  UNL1        0.0800
      7 C           2.3594    4.4375   18.2654 C.ar    1  UNL1        0.2645
      8 O           3.2769    5.6238   18.2336 O.2     1  UNL1       -0.2668
      9 N          -1.5209    3.6387   18.0313 N.pl3   1  UNL1       -0.2740
     10 C          -2.1408    3.7723   16.6719 C.3     1  UNL1        0.1257
     11 C          -3.6223    3.9660   16.5389 C.3     1  UNL1        0.1640
     12 O          -4.4839    4.0262   17.7653 O.3     1  UNL1       -0.3483
     13 C          -3.8640    3.8926   19.1247 C.3     1  UNL1        0.1572
     14 C          -2.3825    3.6989   19.2577 C.3     1  UNL1        0.1276
     15 C          -4.7256    3.9528   20.3511 C.ar    1  UNL1        0.0064
     16 C          -6.0097    4.7277   20.3282 C.ar    1  UNL1        0.0004
     17 C          -6.8713    4.7879   21.5546 C.ar    1  UNL1        0.0294
     18 C          -6.4488    4.0731   22.8038 C.ar    1  UNL1        0.1401
     19 F          -7.3104    4.1332   24.0302 F       1  UNL1       -0.2042
     20 C          -5.1647    3.2982   22.8267 C.ar    1  UNL1        0.0294
     21 C          -4.3031    3.2380   21.6003 C.ar    1  UNL1        0.0004
     22 C           2.5702    0.4910   18.6272 C.ar    1  UNL1        0.0210
     23 C           3.5239   -0.0563   17.6070 C.ar    1  UNL1        0.0222
     24 C           4.0879   -1.4364   17.7719 C.ar    1  UNL1        0.0989
     25 N           3.6983   -2.2691   18.9571 N.ar    1  UNL1       -0.2423
     26 C           2.7446   -1.7218   19.9773 C.ar    1  UNL1        0.0989
     27 C           2.1806   -0.3418   19.8124 C.ar    1  UNL1        0.0222
@<TRIPOS>BOND
     1     1     2    1
     2     2     3   ar
     3     3     9    1
     4     9    10    1
     5    10    11    1
     6    11    12    1
     7    12    13    1
     8    13    15    1
     9    15    16   ar
    10    16    17   ar
    11    17    18   ar
    12    18    19    1
    13    18    20   ar
    14    20    21   ar
    15    13    14    1
    16     3     4   ar
    17     4     5   ar
    18     5    22    1
    19    22    23   ar
    20    23    24   ar
    21    24    25   ar
    22    25    26   ar
    23    26    27   ar
    24     5     6   ar
    25     6     7   ar
    26     7     8    2
    27     7     2   ar
    28    14     9    1
    29    27    22   ar
    30    21    15   ar
@<TRIPOS>MOLECULE
*****
 27 30 0 0 0
SMALL
GASTEIGER

@<TRIPOS>ATOM
      1 C           2.7886   -0.5008   27.9425 C.3     1  UNL1        0.1363
      2 N           1.6809    0.3596   27.4109 N.ar    1  UNL1       -0.2667
      3 C           1.7702    0.9254   26.0245 C.ar    1  UNL1        0.2036
      4 N           0.6625    1.7858   25.4929 N.ar    1  UNL1       -0.2148
      5 C          -0.5345    2.0805   26.3476 C.ar    1  UNL1        0.0890
      6 C          -0.6237    1.5147   27.7339 C.ar    1  UNL1        0.0800
      7 C           0.4840    0.6543   28.2655 C.ar    1  UNL1        0.2645
      8 O           0.3948    0.0885   29.6519 O.2     1  UNL1       -0.2668
      9 N           2.9671    0.6307   25.1698 N.pl3   1  UNL1       -0.2740
     10 C           4.2649    1.3373   25.4274 C.3     1  UNL1        0.1257
     11 C           5.4619    1.0426   24.5726 C.3     1  UNL1        0.1640
     12 O           5.3610    0.0413   23.4603 O.3     1  UNL1       -0.3483
     13 C           4.0631   -0.6653   23.2027 C.3     1  UNL1        0.1572
     14 C           2.8662   -0.3706   24.0575 C.3     1  UNL1        0.1276
     15 C           3.9621   -1.6665   22.0904 C.ar    1  UNL1        0.0064
     16 C           4.5541   -3.0347   22.2569 C.ar    1  UNL1        0.0004
     17 C           4.4532   -4.0360   21.1445 C.ar    1  UNL1        0.0294
     18 C           3.7603   -3.6690   19.8657 C.ar    1  UNL1        0.1401
     19 F           3.6593   -4.6703   18.7534 F       1  UNL1       -0.2042
     20 C           3.1683   -2.3009   19.6993 C.ar    1  UNL1        0.0294
     21 C           3.2693   -1.2996   20.8116 C.ar    1  UNL1        0.0004
     22 C          -1.6422    2.9409   25.8159 C.ar    1  UNL1        0.0210
     23 C          -2.7221    3.4269   26.7365 C.ar    1  UNL1        0.0222
     24 C          -3.8298    4.2874   26.2049 C.ar    1  UNL1        0.0989
     25 N          -3.8575    4.6618   24.7526 N.ar    1  UNL1       -0.2423
     26 C          -2.7776    4.1758   23.8321 C.ar    1  UNL1        0.0989
     27 C          -1.6699    3.3154   24.3637 C.ar    1  UNL1        0.0222
@<TRIPOS>BOND
     1     1     2    1
     2     2     3   ar
     3     3     9    1
     4     9    10    1
     5    10    11    1
     6    11    12    1
     7    12    13    1
     8    13    15    1
     9    15    16   ar
    10    16    17   ar
    11    17    18   ar
    12    18    19    1
    13    18    20   ar
    14    20    21   ar
    15    13    14    1
    16     3     4   ar
    17     4     5   ar
    18     5    22    1
    19    22    23   ar
    20    23    24   ar
    21    24    25   ar
    22    25    26   ar
    23    26    27   ar
    24     5     6   ar
    25     6     7   ar
    26     7     8    2
    27     7     2   ar
    28    14     9    1
    29    27    22   ar
    30    21    15   ar
@<TRIPOS>MOLECULE
*****
 27 30 0 0 0
SMALL
GASTEIGER

@<TRIPOS>ATOM
      1 C          -4.3328    3.8197   18.2197 C.3     1  UNL1        0.1363
      2 N          -4.3836    3.9527   19.7129 N.ar    1  UNL1       -0.2667
      3 C          -3.1108    4.0192   20.5037 C.ar    1  UNL1        0.2036
      4 N          -3.1616    4.1523   21.9970 N.ar    1  UNL1       -0.2148
      5 C          -4.4853    4.2188   22.6994 C.ar    1  UNL1        0.0890
      6 C          -5.7581    4.1523   21.9086 C.ar    1  UNL1        0.0800
      7 C          -5.7073    4.0193   20.4154 C.ar    1  UNL1        0.2645
      8 O          -6.9802    3.9528   19.6246 O.2     1  UNL1       -0.2668
      9 N          -1.7870    3.9527   19.8013 N.pl3   1  UNL1       -0.2740
     10 C          -1.2866    5.1382   19.0305 C.3     1  UNL1        0.1257
     11 C           0.0372    5.0716   18.3281 C.3     1  UNL1        0.1640
     12 O           0.8604    3.8196   18.3966 O.3     1  UNL1       -0.3483
     13 C           0.3599    2.6341   19.1674 C.3     1  UNL1        0.1572
     14 C          -0.9637    2.7007   19.8698 C.3     1  UNL1        0.1276
     15 C           1.1832    1.3821   19.2359 C.ar    1  UNL1        0.0064
     16 C           2.4084    1.2425   18.3818 C.ar    1  UNL1        0.0004
     17 C           3.2317   -0.0095   18.4503 C.ar    1  UNL1        0.0294
     18 C           2.8297   -1.1219   19.3728 C.ar    1  UNL1        0.1401
     19 F           3.6530   -2.3740   19.4413 F       1  UNL1       -0.2042
     20 C           1.6045   -0.9823   20.2269 C.ar    1  UNL1        0.0294
     21 C           0.7813    0.2697   20.1584 C.ar    1  UNL1        0.0004
     22 C          -4.5361    4.3518   24.1926 C.ar    1  UNL1        0.0210
     23 C          -5.6717    5.0858   24.8420 C.ar    1  UNL1        0.0222
     24 C          -5.7225    5.2188   26.3352 C.ar    1  UNL1        0.0989
     25 N          -4.6377    4.6178   27.1791 N.ar    1  UNL1       -0.2423
     26 C          -3.5022    3.8839   26.5297 C.ar    1  UNL1        0.0989
     27 C          -3.4513    3.7508   25.0365 C.ar    1  UNL1        0.0222
@<TRIPOS>BOND
     1     1     2    1
     2     2     3   ar
     3     3     9    1
     4     9    10    1
     5    10    11    1
     6    11    12    1
     7    12    13    1
     8    13    15    1
     9    15    16   ar
    10    16    17   ar
    11    17    18   ar
    12    18    19    1
    13    18    20   ar
    14    20    21   ar
    15    13    14    1
    16     3     4   ar
    17     4     5   ar
    18     5    22    1
    19    22    23   ar
    20    23    24   ar
    21    24    25   ar
    22    25    26   ar
    23    26    27   ar
    24     5     6   ar
    25     6     7   ar
    26     7     8    2
    27     7     2   ar
    28    14     9    1
    29    27    22   ar
    30    21    15   ar
@<TRIPOS>MOLECULE
*****
 27 30 0 0 0
SMALL
GASTEIGER

@<TRIPOS>ATOM
      1 C          -9.7093  -18.9568   20.5042 C.3     1  UNL1        0.1363
      2 N          -9.2648  -18.2127   21.7285 N.ar    1  UNL1       -0.2667
      3 C          -7.8303  -18.2719   22.1626 C.ar    1  UNL1        0.2036
      4 N          -7.3858  -17.5278   23.3868 N.ar    1  UNL1       -0.2148
      5 C          -8.3758  -16.7244   24.1769 C.ar    1  UNL1        0.0890
      6 C          -9.8104  -16.6652   23.7428 C.ar    1  UNL1        0.0800
      7 C         -10.2549  -17.4093   22.5186 C.ar    1  UNL1        0.2645
      8 O         -11.6895  -17.3500   22.0845 O.2     1  UNL1       -0.2668
      9 N          -6.8401  -19.0753   21.3725 N.pl3   1  UNL1       -0.2740
     10 C          -7.2477  -20.3885   20.7731 C.3     1  UNL1        0.1257
     11 C          -6.2575  -21.1919   19.9830 C.3     1  UNL1        0.1640
     12 O          -4.8598  -20.6820   19.7923 O.3     1  UNL1       -0.3483
     13 C          -4.4522  -19.3687   20.3917 C.3     1  UNL1        0.1572
     14 C          -5.4424  -18.5654   21.1817 C.3     1  UNL1        0.1276
     15 C          -3.0545  -18.8588   20.2010 C.ar    1  UNL1        0.0064
     16 C          -2.6148  -18.3608   18.8560 C.ar    1  UNL1        0.0004
     17 C          -1.2171  -17.8509   18.6653 C.ar    1  UNL1        0.0294
     18 C          -0.2591  -17.8390   19.8195 C.ar    1  UNL1        0.1401
     19 F           1.1386  -17.3291   19.6288 F       1  UNL1       -0.2042
     20 C          -0.6988  -18.3370   21.1644 C.ar    1  UNL1        0.0294
     21 C          -2.0965  -18.8469   21.3551 C.ar    1  UNL1        0.0004
     22 C          -7.9314  -15.9803   25.4011 C.ar    1  UNL1        0.0210
     23 C          -6.5048  -15.5357   25.5319 C.ar    1  UNL1        0.0222
     24 C          -6.0603  -14.7916   26.7561 C.ar    1  UNL1        0.0989
     25 N          -7.0424  -14.4920   27.8495 N.ar    1  UNL1       -0.2423
     26 C          -8.4690  -14.9366   27.7188 C.ar    1  UNL1        0.0989
     27 C          -8.9135  -15.6807   26.4945 C.ar    1  UNL1        0.0222
@<TRIPOS>BOND
     1     1     2    1
     2     2     3   ar
     3     3     9    1
     4     9    10    1
     5    10    11    1
     6    11    12    1
     7    12    13    1
     8    13    15    1
     9    15    16   ar
    10    16    17   ar
    11    17    18   ar
    12    18    19    1
    13    18    20   ar
    14    20    21   ar
    15    13    14    1
    16     3     4   ar
    17     4     5   ar
    18     5    22    1
    19    22    23   ar
    20    23    24   ar
    21    24    25   ar
    22    25    26   ar
    23    26    27   ar
    24     5     6   ar
    25     6     7   ar
    26     7     8    2
    27     7     2   ar
    28    14     9    1
    29    27    22   ar
    30    21    15   ar
@<TRIPOS>MOLECULE
*****
 27 30 0 0 0
SMALL
GASTEIGER

@<TRIPOS>ATOM
      1 C           8.0631   -7.2840   24.2820 C.3     1  UNL1        0.1363
      2 N           7.7671   -6.5730   25.5691 N.ar    1  UNL1       -0.2667
      3 C           7.5216   -5.0932   25.5692 C.ar    1  UNL1        0.2036
      4 N           7.2255   -4.3822   26.8564 N.ar    1  UNL1       -0.2148
      5 C           7.1750   -5.1508   28.1434 C.ar    1  UNL1        0.0890
      6 C           7.4205   -6.6306   28.1433 C.ar    1  UNL1        0.0800
      7 C           7.7166   -7.3416   26.8562 C.ar    1  UNL1        0.2645
      8 O           7.9621   -8.8215   26.8562 O.2     1  UNL1       -0.2668
      9 N           7.5721   -4.3245   24.2821 N.pl3   1  UNL1       -0.2740
     10 C           8.8904   -4.0623   23.6164 C.3     1  UNL1        0.1257
     11 C           8.9409   -3.2936   22.3292 C.3     1  UNL1        0.1640
     12 O           7.6730   -2.7870   21.7080 O.3     1  UNL1       -0.3483
     13 C           6.3547   -3.0492   22.3738 C.3     1  UNL1        0.1572
     14 C           6.3042   -3.8179   23.6609 C.3     1  UNL1        0.1276
     15 C           5.0868   -2.5427   21.7526 C.ar    1  UNL1        0.0064
     16 C           4.2467   -1.5340   22.4786 C.ar    1  UNL1        0.0004
     17 C           2.9789   -1.0274   21.8573 C.ar    1  UNL1        0.0294
     18 C           2.5511   -1.5295   20.5101 C.ar    1  UNL1        0.1401
     19 F           1.2833   -1.0230   19.8888 F       1  UNL1       -0.2042
     20 C           3.3912   -2.5381   19.7842 C.ar    1  UNL1        0.0294
     21 C           4.6590   -3.0447   20.4054 C.ar    1  UNL1        0.0004
     22 C           6.8790   -4.4397   29.4306 C.ar    1  UNL1        0.0210
     23 C           6.9796   -5.1752   30.7340 C.ar    1  UNL1        0.0222
     24 C           6.6836   -4.4641   32.0212 C.ar    1  UNL1        0.0989
     25 N           6.2869   -3.0176   32.0049 N.ar    1  UNL1       -0.2423
     26 C           6.1863   -2.2822   30.7014 C.ar    1  UNL1        0.0989
     27 C           6.4823   -2.9933   29.4143 C.ar    1  UNL1        0.0222
@<TRIPOS>BOND
     1     1     2    1
     2     2     3   ar
     3     3     9    1
     4     9    10    1
     5    10    11    1
     6    11    12    1
     7    12    13    1
     8    13    15    1
     9    15    16   ar
    10    16    17   ar
    11    17    18   ar
    12    18    19    1
    13    18    20   ar
    14    20    21   ar
    15    13    14    1
    16     3     4   ar
    17     4     5   ar
    18     5    22    1
    19    22    23   ar
    20    23    24   ar
    21    24    25   ar
    22    25    26   ar
    23    26    27   ar
    24     5     6   ar
    25     6     7   ar
    26     7     8    2
    27     7     2   ar
    28    14     9    1
    29    27    22   ar
    30    21    15   ar
@<TRIPOS>MOLECULE
*****
 27 30 0 0 0
SMALL
GASTEIGER

@<TRIPOS>ATOM
      1 C           8.6167   -1.4122   31.3867 C.3     1  UNL1        0.1363
      2 N           7.1956   -0.9853   31.1672 N.ar    1  UNL1       -0.2667
      3 C           6.1597   -1.9981   30.7785 C.ar    1  UNL1        0.2036
      4 N           4.7386   -1.5712   30.5591 N.ar    1  UNL1       -0.2148
      5 C           4.3533   -0.1315   30.7283 C.ar    1  UNL1        0.0890
      6 C           5.3892    0.8813   31.1170 C.ar    1  UNL1        0.0800
      7 C           6.8103    0.4544   31.3365 C.ar    1  UNL1        0.2645
      8 O           7.8462    1.4674   31.7252 O.2     1  UNL1       -0.2668
      9 N           6.5450   -3.4380   30.6093 N.pl3   1  UNL1       -0.2740
     10 C           6.6765   -4.3255   31.8113 C.3     1  UNL1        0.1257
     11 C           7.0617   -5.7653   31.6421 C.3     1  UNL1        0.1640
     12 O           7.3155   -6.3175   30.2707 O.3     1  UNL1       -0.3483
     13 C           7.1840   -5.4299   29.0686 C.3     1  UNL1        0.1572
     14 C           6.7988   -3.9902   29.2379 C.3     1  UNL1        0.1276
     15 C           7.4378   -5.9821   27.6972 C.ar    1  UNL1        0.0064
     16 C           7.2071   -5.1241   26.4887 C.ar    1  UNL1        0.0004
     17 C           7.4608   -5.6763   25.1173 C.ar    1  UNL1        0.0294
     18 C           7.9453   -7.0866   24.9545 C.ar    1  UNL1        0.1401
     19 F           8.1991   -7.6388   23.5831 F       1  UNL1       -0.2042
     20 C           8.1760   -7.9446   26.1630 C.ar    1  UNL1        0.0294
     21 C           7.9222   -7.3924   27.5344 C.ar    1  UNL1        0.0004
     22 C           2.9322    0.2954   30.5088 C.ar    1  UNL1        0.0210
     23 C           2.0910   -0.3989   29.4792 C.ar    1  UNL1        0.0222
     24 C           0.6699    0.0280   29.2597 C.ar    1  UNL1        0.0989
     25 N           0.0900    1.1492   30.0699 N.ar    1  UNL1       -0.2423
     26 C           0.9311    1.8435   31.0996 C.ar    1  UNL1        0.0989
     27 C           2.3523    1.4166   31.3191 C.ar    1  UNL1        0.0222
@<TRIPOS>BOND
     1     1     2    1
     2     2     3   ar
     3     3     9    1
     4     9    10    1
     5    10    11    1
     6    11    12    1
     7    12    13    1
     8    13    15    1
     9    15    16   ar
    10    16    17   ar
    11    17    18   ar
    12    18    19    1
    13    18    20   ar
    14    20    21   ar
    15    13    14    1
    16     3     4   ar
    17     4     5   ar
    18     5    22    1
    19    22    23   ar
    20    23    24   ar
    21    24    25   ar
    22    25    26   ar
    23    26    27   ar
    24     5     6   ar
    25     6     7   ar
    26     7     8    2
    27     7     2   ar
    28    14     9    1
    29    27    22   ar
    30    21    15   ar
@<TRIPOS>MOLECULE
*****
 27 30 0 0 0
SMALL
GASTEIGER

@<TRIPOS>ATOM
      1 C           2.1702    2.2312   23.3730 C.3     1  UNL1        0.1363
      2 N           0.9431    2.5349   22.5656 N.ar    1  UNL1       -0.2667
      3 C           0.9817    2.4207   21.0705 C.ar    1  UNL1        0.2036
      4 N          -0.2455    2.7244   20.2632 N.ar    1  UNL1       -0.2148
      5 C          -1.5113    3.1422   20.9510 C.ar    1  UNL1        0.0890
      6 C          -1.5500    3.2564   22.4461 C.ar    1  UNL1        0.0800
      7 C          -0.3228    2.9527   23.2534 C.ar    1  UNL1        0.2645
      8 O          -0.3614    3.0669   24.7486 O.2     1  UNL1       -0.2668
      9 N           2.2475    2.0029   20.3826 N.pl3   1  UNL1       -0.2740
     10 C           3.2428    3.0383   19.9497 C.3     1  UNL1        0.1257
     11 C           4.5086    2.6204   19.2618 C.3     1  UNL1        0.1640
     12 O           4.7792    1.1672   19.0069 O.3     1  UNL1       -0.3483
     13 C           3.7838    0.1318   19.4399 C.3     1  UNL1        0.1572
     14 C           2.5181    0.5497   20.1277 C.3     1  UNL1        0.1276
     15 C           4.0544   -1.3214   19.1850 C.ar    1  UNL1        0.0064
     16 C           3.0839   -2.3602   19.6639 C.ar    1  UNL1        0.0004
     17 C           3.3545   -3.8134   19.4090 C.ar    1  UNL1        0.0294
     18 C           4.5955   -4.2278   18.6752 C.ar    1  UNL1        0.1401
     19 F           4.8660   -5.6810   18.4203 F       1  UNL1       -0.2042
     20 C           5.5658   -3.1891   18.1964 C.ar    1  UNL1        0.0294
     21 C           5.2953   -1.7358   18.4513 C.ar    1  UNL1        0.0004
     22 C          -2.7385    3.4459   20.1436 C.ar    1  UNL1        0.0210
     23 C          -2.6053    3.9963   18.7547 C.ar    1  UNL1        0.0222
     24 C          -3.8325    4.3000   17.9473 C.ar    1  UNL1        0.0989
     25 N          -5.1929    4.0532   18.5290 N.ar    1  UNL1       -0.2423
     26 C          -5.3261    3.5028   19.9179 C.ar    1  UNL1        0.0989
     27 C          -4.0989    3.1991   20.7252 C.ar    1  UNL1        0.0222
@<TRIPOS>BOND
     1     1     2    1
     2     2     3   ar
     3     3     9    1
     4     9    10    1
     5    10    11    1
     6    11    12    1
     7    12    13    1
     8    13    15    1
     9    15    16   ar
    10    16    17   ar
    11    17    18   ar
    12    18    19    1
    13    18    20   ar
    14    20    21   ar
    15    13    14    1
    16     3     4   ar
    17     4     5   ar
    18     5    22    1
    19    22    23   ar
    20    23    24   ar
    21    24    25   ar
    22    25    26   ar
    23    26    27   ar
    24     5     6   ar
    25     6     7   ar
    26     7     8    2
    27     7     2   ar
    28    14     9    1
    29    27    22   ar
    30    21    15   ar
