@<TRIPOS>MOLECULE
*****
 21 22 0 0 0
SMALL
GASTEIGER

@<TRIPOS>ATOM
      1 C         -10.4456  -16.8863   21.4411 C.2     1  UNL1        0.2254
      2 O         -10.3363  -15.6433   20.6089 O.2     1  UNL1       -0.2749
      3 N          -9.4813  -17.1234   22.5654 N.am    1  UNL1       -0.2756
      4 C          -9.5907  -18.3666   23.3977 C.3     1  UNL1        0.0927
      5 C          -8.9201  -19.6783   23.1155 C.3     1  UNL1        0.0383
      6 C          -9.3048  -20.6387   24.2017 C.3     1  UNL1        0.0704
      7 N         -10.2132  -19.9205   25.1551 N.3     1  UNL1       -0.2960
      8 C         -10.3898  -18.5163   24.6582 C.3     1  UNL1        0.0887
      9 H          -9.7976  -19.9083   26.0865 H       1  UNL1        0.1233
     10 C         -11.2327  -19.0538   20.2441 C.3     1  UNL1        0.0096
     11 C         -11.5193  -17.8924   21.1492 C.3     1  UNL1        0.0767
     12 C         -12.8794  -17.7371   21.7623 C.3     1  UNL1        0.0096
     13 C          -8.4077  -16.1175   22.8574 C.3     1  UNL1        0.1210
     14 C          -7.9535  -15.8937   24.2694 C.ar    1  UNL1        0.0091
     15 C          -8.9499  -15.5245   25.3281 C.ar    1  UNL1       -0.0017
     16 C          -8.4958  -15.3007   26.7401 C.ar    1  UNL1        0.0007
     17 C          -7.0453  -15.4461   27.0933 C.ar    1  UNL1        0.0122
     18 C          -6.0489  -15.8152   26.0346 C.ar    1  UNL1        0.0679
     19 CL         -4.5983  -15.9606   26.3878 Cl      1  UNL1       -0.0814
     20 C          -6.5030  -16.0390   24.6226 C.ar    1  UNL1        0.0658
     21 CL         -5.5066  -16.4082   23.5639 Cl      1  UNL1       -0.0816
@<TRIPOS>BOND
     1    10    11    1
     2    11    12    1
     3    11     1    1
     4     1     2    2
     5     1     3   am
     6     3    13    1
     7    13    14    1
     8    14    15   ar
     9    15    16   ar
    10    16    17   ar
    11    17    18   ar
    12    18    19    1
    13    18    20   ar
    14    20    21    1
    15     4     3    1
    16     4     5    1
    17     5     6    1
    18     6     7    1
    19     7     8    1
    20    20    14   ar
    21     8     4    1
    22     7     9    1
@<TRIPOS>MOLECULE
*****
 21 22 0 0 0
SMALL
GASTEIGER

@<TRIPOS>ATOM
      1 C          -9.4355  -16.6347   22.0340 C.2     1  UNL1        0.2254
      2 O          -8.7860  -15.5543   21.2212 O.2     1  UNL1       -0.2749
      3 N          -8.5953  -17.5427   22.8823 N.am    1  UNL1       -0.2756
      4 C          -9.2448  -18.6232   23.6952 C.3     1  UNL1        0.0927
      5 C          -9.4495  -20.0462   23.2671 C.3     1  UNL1        0.0383
      6 C         -10.1348  -20.7729   24.3862 C.3     1  UNL1        0.0704
      7 N         -10.3537  -19.7990   25.5059 N.3     1  UNL1       -0.2960
      8 C          -9.8036  -18.4705   25.0788 C.3     1  UNL1        0.0887
      9 H          -9.8697  -20.1208   26.3441 H       1  UNL1        0.1233
     10 C         -11.5465  -17.7634   21.0240 C.3     1  UNL1        0.0096
     11 C         -10.9251  -16.8072   21.9986 C.3     1  UNL1        0.0767
     12 C         -11.7934  -16.0236   22.9377 C.3     1  UNL1        0.0096
     13 C          -7.1057  -17.3703   22.9178 C.3     1  UNL1        0.1210
     14 C          -6.2248  -18.2928   22.1284 C.ar    1  UNL1        0.0091
     15 C          -6.8140  -19.1500   21.0476 C.ar    1  UNL1       -0.0017
     16 C          -5.9333  -20.0726   20.2582 C.ar    1  UNL1        0.0007
     17 C          -4.4633  -20.1379   20.5496 C.ar    1  UNL1        0.0122
     18 C          -3.8742  -19.2807   21.6304 C.ar    1  UNL1        0.0679
     19 CL         -2.4041  -19.3461   21.9218 Cl      1  UNL1       -0.0814
     20 C          -4.7549  -18.3582   22.4198 C.ar    1  UNL1        0.0658
     21 CL         -4.1657  -17.5010   23.5006 Cl      1  UNL1       -0.0816
@<TRIPOS>BOND
     1    10    11    1
     2    11    12    1
     3    11     1    1
     4     1     2    2
     5     1     3   am
     6     3    13    1
     7    13    14    1
     8    14    15   ar
     9    15    16   ar
    10    16    17   ar
    11    17    18   ar
    12    18    19    1
    13    18    20   ar
    14    20    21    1
    15     4     3    1
    16     4     5    1
    17     5     6    1
    18     6     7    1
    19     7     8    1
    20    20    14   ar
    21     8     4    1
    22     7     9    1
@<TRIPOS>MOLECULE
*****
 21 22 0 0 0
SMALL
GASTEIGER

@<TRIPOS>ATOM
      1 C          -8.7462  -18.9657   20.7692 C.2     1  UNL1        0.2254
      2 O          -8.0118  -19.0369   19.4632 O.2     1  UNL1       -0.2749
      3 N          -8.1172  -19.5171   22.0143 N.am    1  UNL1       -0.2756
      4 C          -8.8516  -19.4458   23.3204 C.3     1  UNL1        0.0927
      5 C          -9.1313  -18.2001   24.1077 C.3     1  UNL1        0.0383
      6 C          -9.8878  -18.5921   25.3423 C.3     1  UNL1        0.0704
      7 N         -10.0757  -20.0802   25.3178 N.3     1  UNL1       -0.2960
      8 C          -9.4353  -20.6077   24.0682 C.3     1  UNL1        0.0887
      9 H         -11.0709  -20.3035   25.3175 H       1  UNL1        0.1233
     10 C         -11.3329  -19.2079   20.7553 C.3     1  UNL1        0.0096
     11 C         -10.1096  -18.3431   20.8300 C.3     1  UNL1        0.0767
     12 C         -10.2496  -16.8559   20.9656 C.3     1  UNL1        0.0096
     13 C          -6.7539  -20.1396   21.9535 C.3     1  UNL1        0.1210
     14 C          -5.5305  -19.2779   22.0580 C.ar    1  UNL1        0.0091
     15 C          -5.4825  -18.1620   23.0593 C.ar    1  UNL1       -0.0017
     16 C          -4.2592  -17.3003   23.1639 C.ar    1  UNL1        0.0007
     17 C          -3.0839  -17.5545   22.2672 C.ar    1  UNL1        0.0122
     18 C          -3.1320  -18.6703   21.2659 C.ar    1  UNL1        0.0679
     19 CL         -1.9567  -18.9244   20.3691 Cl      1  UNL1       -0.0814
     20 C          -4.3553  -19.5320   21.1613 C.ar    1  UNL1        0.0658
     21 CL         -4.4033  -20.6479   20.1600 Cl      1  UNL1       -0.0816
@<TRIPOS>BOND
     1    10    11    1
     2    11    12    1
     3    11     1    1
     4     1     2    2
     5     1     3   am
     6     3    13    1
     7    13    14    1
     8    14    15   ar
     9    15    16   ar
    10    16    17   ar
    11    17    18   ar
    12    18    19    1
    13    18    20   ar
    14    20    21    1
    15     4     3    1
    16     4     5    1
    17     5     6    1
    18     6     7    1
    19     7     8    1
    20    20    14   ar
    21     8     4    1
    22     7     9    1
@<TRIPOS>MOLECULE
*****
 21 22 0 0 0
SMALL
GASTEIGER

@<TRIPOS>ATOM
      1 C         -10.2463  -16.5128   21.1538 C.2     1  UNL1        0.2254
      2 O         -10.2857  -15.1726   20.4814 O.2     1  UNL1       -0.2749
      3 N          -9.1271  -16.8472   22.0949 N.am    1  UNL1       -0.2756
      4 C          -9.0878  -18.1875   22.7673 C.3     1  UNL1        0.0927
      5 C          -9.9716  -18.6350   23.8937 C.3     1  UNL1        0.0383
      6 C          -9.5878  -20.0397   24.2540 C.3     1  UNL1        0.0704
      7 N          -8.4668  -20.4602   23.3502 N.3     1  UNL1       -0.2960
      8 C          -8.1578  -19.3154   22.4315 C.3     1  UNL1        0.0887
      9 H          -8.7486  -21.2750   22.8053 H       1  UNL1        0.1233
     10 C         -11.0893  -18.6297   19.9056 C.3     1  UNL1        0.0096
     11 C         -11.3262  -17.5188   20.8852 C.3     1  UNL1        0.0767
     12 C         -12.6428  -17.4137   21.5961 C.3     1  UNL1        0.0096
     13 C          -8.0473  -15.8413   22.3636 C.3     1  UNL1        0.1210
     14 C          -7.4039  -15.7750   23.7170 C.ar    1  UNL1        0.0091
     15 C          -5.9246  -15.9813   23.8550 C.ar    1  UNL1       -0.0017
     16 C          -5.2812  -15.9151   25.2084 C.ar    1  UNL1        0.0007
     17 C          -6.1171  -15.6425   26.4237 C.ar    1  UNL1        0.0122
     18 C          -7.5964  -15.4362   26.2856 C.ar    1  UNL1        0.0679
     19 CL         -8.4323  -15.1637   27.5010 Cl      1  UNL1       -0.0814
     20 C          -8.2398  -15.5025   24.9323 C.ar    1  UNL1        0.0658
     21 CL         -9.7191  -15.2962   24.7942 Cl      1  UNL1       -0.0816
@<TRIPOS>BOND
     1    10    11    1
     2    11    12    1
     3    11     1    1
     4     1     2    2
     5     1     3   am
     6     3    13    1
     7    13    14    1
     8    14    15   ar
     9    15    16   ar
    10    16    17   ar
    11    17    18   ar
    12    18    19    1
    13    18    20   ar
    14    20    21    1
    15     4     3    1
    16     4     5    1
    17     5     6    1
    18     6     7    1
    19     7     8    1
    20    20    14   ar
    21     8     4    1
    22     7     9    1
@<TRIPOS>MOLECULE
*****
 21 22 0 0 0
SMALL
GASTEIGER

@<TRIPOS>ATOM
      1 C         -10.1197  -16.9179   21.7267 C.2     1  UNL1        0.2254
      2 O          -9.8160  -15.7835   20.7936 O.2     1  UNL1       -0.2749
      3 N          -9.0520  -17.4451   22.6389 N.am    1  UNL1       -0.2756
      4 C          -9.3558  -18.5796   23.5721 C.3     1  UNL1        0.0927
      5 C          -9.1787  -20.0388   23.2729 C.3     1  UNL1        0.0383
      6 C          -9.6035  -20.8151   24.4842 C.3     1  UNL1        0.0704
      7 N         -10.0430  -19.8356   25.5318 N.3     1  UNL1       -0.2960
      8 C          -9.8900  -18.4540   24.9681 C.3     1  UNL1        0.0887
      9 H          -9.4628  -19.9359   26.3647 H       1  UNL1        0.1233
     10 C         -11.8022  -18.7054   20.8758 C.3     1  UNL1        0.0096
     11 C         -11.4912  -17.5252   21.7477 C.3     1  UNL1        0.0767
     12 C         -12.5515  -16.9522   22.6406 C.3     1  UNL1        0.0096
     13 C          -7.6806  -16.8379   22.6180 C.3     1  UNL1        0.1210
     14 C          -6.4742  -17.7154   22.4605 C.ar    1  UNL1        0.0091
     15 C          -5.2948  -17.5392   23.3704 C.ar    1  UNL1       -0.0017
     16 C          -4.0884  -18.4165   23.2129 C.ar    1  UNL1        0.0007
     17 C          -4.0614  -19.4701   22.1456 C.ar    1  UNL1        0.0122
     18 C          -5.2409  -19.6463   21.2357 C.ar    1  UNL1        0.0679
     19 CL         -5.2139  -20.6999   20.1683 Cl      1  UNL1       -0.0814
     20 C          -6.4472  -18.7689   21.3931 C.ar    1  UNL1        0.0658
     21 CL         -7.6267  -18.9451   20.4833 Cl      1  UNL1       -0.0816
@<TRIPOS>BOND
     1    10    11    1
     2    11    12    1
     3    11     1    1
     4     1     2    2
     5     1     3   am
     6     3    13    1
     7    13    14    1
     8    14    15   ar
     9    15    16   ar
    10    16    17   ar
    11    17    18   ar
    12    18    19    1
    13    18    20   ar
    14    20    21    1
    15     4     3    1
    16     4     5    1
    17     5     6    1
    18     6     7    1
    19     7     8    1
    20    20    14   ar
    21     8     4    1
    22     7     9    1
@<TRIPOS>MOLECULE
*****
 21 22 0 0 0
SMALL
GASTEIGER

@<TRIPOS>ATOM
      1 C          -8.4384  -18.1208   21.7046 C.2     1  UNL1        0.2254
      2 O          -6.9853  -18.3433   22.0032 O.2     1  UNL1       -0.2749
      3 N          -9.0564  -16.7756   21.9466 N.am    1  UNL1       -0.2756
      4 C         -10.5095  -16.5532   21.6479 C.3     1  UNL1        0.0927
      5 C         -11.6264  -16.5602   22.6491 C.3     1  UNL1        0.0383
      6 C         -12.9080  -16.2961   21.9157 C.3     1  UNL1        0.0704
      7 N         -12.5830  -16.1258   20.4612 N.3     1  UNL1       -0.2960
      8 C         -11.1007  -16.2847   20.2957 C.3     1  UNL1        0.0887
      9 H         -12.8686  -15.1977   20.1490 H       1  UNL1        0.1233
     10 C          -9.2184  -19.5835   19.7041 C.3     1  UNL1        0.0096
     11 C          -9.2734  -19.2436   21.1640 C.3     1  UNL1        0.0767
     12 C         -10.1634  -20.0263   22.0833 C.3     1  UNL1        0.0096
     13 C          -8.2214  -15.6529   22.4871 C.3     1  UNL1        0.1210
     14 C          -7.8889  -15.6020   23.9490 C.ar    1  UNL1        0.0091
     15 C          -8.9751  -15.7605   24.9712 C.ar    1  UNL1       -0.0017
     16 C          -8.6426  -15.7097   26.4329 C.ar    1  UNL1        0.0007
     17 C          -7.2239  -15.5003   26.8725 C.ar    1  UNL1        0.0122
     18 C          -6.1376  -15.3418   25.8503 C.ar    1  UNL1        0.0679
     19 CL         -4.7188  -15.1324   26.2899 Cl      1  UNL1       -0.0814
     20 C          -6.4701  -15.3926   24.3885 C.ar    1  UNL1        0.0658
     21 CL         -5.3838  -15.2341   23.3663 Cl      1  UNL1       -0.0816
@<TRIPOS>BOND
     1    10    11    1
     2    11    12    1
     3    11     1    1
     4     1     2    2
     5     1     3   am
     6     3    13    1
     7    13    14    1
     8    14    15   ar
     9    15    16   ar
    10    16    17   ar
    11    17    18   ar
    12    18    19    1
    13    18    20   ar
    14    20    21    1
    15     4     3    1
    16     4     5    1
    17     5     6    1
    18     6     7    1
    19     7     8    1
    20    20    14   ar
    21     8     4    1
    22     7     9    1
@<TRIPOS>MOLECULE
*****
 21 22 0 0 0
SMALL
GASTEIGER

@<TRIPOS>ATOM
      1 C          -8.0580  -17.9338   21.7670 C.2     1  UNL1        0.2254
      2 O          -6.5789  -18.0129   22.0030 O.2     1  UNL1       -0.2749
      3 N          -8.7829  -16.6376   21.9781 N.am    1  UNL1       -0.2756
      4 C         -10.2622  -16.5585   21.7421 C.3     1  UNL1        0.0927
      5 C         -11.3329  -16.8681   22.7460 C.3     1  UNL1        0.0383
      6 C         -12.6629  -16.6569   22.0851 C.3     1  UNL1        0.0704
      7 N         -12.4140  -16.2167   20.6729 N.3     1  UNL1       -0.2960
      8 C         -10.9303  -16.1559   20.4609 C.3     1  UNL1        0.0887
      9 H         -12.8235  -15.2950   20.5203 H       1  UNL1        0.1233
     10 C          -9.4701  -20.0398   22.3334 C.3     1  UNL1        0.0096
     11 C          -8.8124  -19.1508   21.3199 C.3     1  UNL1        0.0767
     12 C          -8.9091  -19.4788   19.8594 C.3     1  UNL1        0.0096
     13 C          -8.0286  -15.4206   22.4252 C.3     1  UNL1        0.1210
     14 C          -7.3053  -15.4273   23.7393 C.ar    1  UNL1        0.0091
     15 C          -5.8058  -15.4059   23.7702 C.ar    1  UNL1       -0.0017
     16 C          -5.0825  -15.4125   25.0842 C.ar    1  UNL1        0.0007
     17 C          -5.8587  -15.4406   26.3674 C.ar    1  UNL1        0.0122
     18 C          -7.3582  -15.4620   26.3366 C.ar    1  UNL1        0.0679
     19 CL         -8.1345  -15.4900   27.6199 Cl      1  UNL1       -0.0814
     20 C          -8.0815  -15.4553   25.0225 C.ar    1  UNL1        0.0658
     21 CL         -9.5811  -15.4767   24.9917 Cl      1  UNL1       -0.0816
@<TRIPOS>BOND
     1    10    11    1
     2    11    12    1
     3    11     1    1
     4     1     2    2
     5     1     3   am
     6     3    13    1
     7    13    14    1
     8    14    15   ar
     9    15    16   ar
    10    16    17   ar
    11    17    18   ar
    12    18    19    1
    13    18    20   ar
    14    20    21    1
    15     4     3    1
    16     4     5    1
    17     5     6    1
    18     6     7    1
    19     7     8    1
    20    20    14   ar
    21     8     4    1
    22     7     9    1
@<TRIPOS>MOLECULE
*****
 21 22 0 0 0
SMALL
GASTEIGER

@<TRIPOS>ATOM
      1 C          -9.8068  -17.9802   21.6264 C.2     1  UNL1        0.2254
      2 O         -10.0353  -19.1909   20.7709 O.2     1  UNL1       -0.2749
      3 N          -8.6187  -17.9208   22.5400 N.am    1  UNL1       -0.2756
      4 C          -8.3902  -16.7100   23.3955 C.3     1  UNL1        0.0927
      5 C          -8.7612  -16.5699   24.8421 C.3     1  UNL1        0.0383
      6 C          -8.3509  -15.2000   25.2953 C.3     1  UNL1        0.0704
      7 N          -7.7263  -14.4936   24.1287 N.3     1  UNL1       -0.2960
      8 C          -7.7506  -15.4268   22.9546 C.3     1  UNL1        0.0887
      9 H          -6.7631  -14.2425   24.3514 H       1  UNL1        0.1233
     10 C         -11.8867  -16.7352   22.5614 C.3     1  UNL1        0.0096
     11 C         -10.7665  -16.8287   21.5682 C.3     1  UNL1        0.0767
     12 C         -10.6060  -15.7710   20.5169 C.3     1  UNL1        0.0096
     13 C          -7.6590  -19.0721   22.5982 C.3     1  UNL1        0.1210
     14 C          -6.2211  -18.8697   22.2221 C.ar    1  UNL1        0.0091
     15 C          -5.3315  -18.0258   23.0861 C.ar    1  UNL1       -0.0017
     16 C          -3.8936  -17.8234   22.7101 C.ar    1  UNL1        0.0007
     17 C          -3.3453  -18.4649   21.4701 C.ar    1  UNL1        0.0122
     18 C          -4.2348  -19.3088   20.6061 C.ar    1  UNL1        0.0679
     19 CL         -3.6863  -19.9504   19.3660 Cl      1  UNL1       -0.0814
     20 C          -5.6727  -19.5112   20.9821 C.ar    1  UNL1        0.0658
     21 CL         -6.5622  -20.3552   20.1181 Cl      1  UNL1       -0.0816
@<TRIPOS>BOND
     1    10    11    1
     2    11    12    1
     3    11     1    1
     4     1     2    2
     5     1     3   am
     6     3    13    1
     7    13    14    1
     8    14    15   ar
     9    15    16   ar
    10    16    17   ar
    11    17    18   ar
    12    18    19    1
    13    18    20   ar
    14    20    21    1
    15     4     3    1
    16     4     5    1
    17     5     6    1
    18     6     7    1
    19     7     8    1
    20    20    14   ar
    21     8     4    1
    22     7     9    1
@<TRIPOS>MOLECULE
*****
 21 22 0 0 0
SMALL
GASTEIGER

@<TRIPOS>ATOM
      1 C         -10.4716  -16.8036   21.5590 C.2     1  UNL1        0.2254
      2 O         -10.1039  -15.8534   20.4581 O.2     1  UNL1       -0.2749
      3 N          -9.4114  -17.6371   22.2156 N.am    1  UNL1       -0.2756
      4 C          -9.7791  -18.5873   23.3165 C.3     1  UNL1        0.0927
      5 C         -10.0711  -20.0501   23.1577 C.3     1  UNL1        0.0383
      6 C         -10.3919  -20.6084   24.5125 C.3     1  UNL1        0.0704
      7 N         -10.2981  -19.4907   25.5086 N.3     1  UNL1       -0.2960
      8 C          -9.9194  -18.2417   24.7694 C.3     1  UNL1        0.0887
      9 H          -9.5876  -19.7084   26.2072 H       1  UNL1        0.1233
     10 C         -12.4753  -15.9098   22.9506 C.3     1  UNL1        0.0096
     11 C         -11.8996  -16.9204   22.0033 C.3     1  UNL1        0.0767
     12 C         -12.7518  -18.0476   21.5002 C.3     1  UNL1        0.0096
     13 C          -7.9834  -17.5204   21.7714 C.3     1  UNL1        0.1210
     14 C          -6.9439  -16.9973   22.7179 C.ar    1  UNL1        0.0091
     15 C          -7.2443  -15.8055   23.5777 C.ar    1  UNL1       -0.0017
     16 C          -6.2048  -15.2823   24.5242 C.ar    1  UNL1        0.0007
     17 C          -4.8649  -15.9510   24.6107 C.ar    1  UNL1        0.0122
     18 C          -4.5645  -17.1428   23.7509 C.ar    1  UNL1        0.0679
     19 CL         -3.2245  -17.8114   23.8375 Cl      1  UNL1       -0.0814
     20 C          -5.6040  -17.6659   22.8044 C.ar    1  UNL1        0.0658
     21 CL         -5.3036  -18.8577   21.9446 Cl      1  UNL1       -0.0816
@<TRIPOS>BOND
     1    10    11    1
     2    11    12    1
     3    11     1    1
     4     1     2    2
     5     1     3   am
     6     3    13    1
     7    13    14    1
     8    14    15   ar
     9    15    16   ar
    10    16    17   ar
    11    17    18   ar
    12    18    19    1
    13    18    20   ar
    14    20    21    1
    15     4     3    1
    16     4     5    1
    17     5     6    1
    18     6     7    1
    19     7     8    1
    20    20    14   ar
    21     8     4    1
    22     7     9    1
