@<TRIPOS>MOLECULE
*****
 35 38 0 0 0
SMALL
GASTEIGER

@<TRIPOS>ATOM
      1 C           7.3521   -5.2972   24.9821 C.ar    1  UNL1       -0.0231
      2 C           7.6961   -6.3503   25.9934 C.ar    1  UNL1       -0.0246
      3 C           8.5043   -7.5463   25.5855 C.ar    1  UNL1       -0.0045
      4 C           8.9685   -7.6892   24.1663 C.ar    1  UNL1       -0.0002
      5 C           8.6245   -6.6362   23.1551 C.ar    1  UNL1        0.0027
      6 C           7.8163   -5.4402   23.5630 C.ar    1  UNL1        0.0322
      7 C           7.4724   -4.3870   22.5516 C.ar    1  UNL1        0.1700
      8 N           8.4503   -3.6028   21.7279 N.ar    1  UNL1       -0.1885
      9 S           7.6724   -2.6644   20.8537 S.2     1  UNL1        0.0341
     10 C           6.2136   -2.8687   21.1371 C.ar    1  UNL1        0.1299
     11 N           6.0900   -3.9334   22.1865 N.ar    1  UNL1       -0.2181
     12 C           5.0779   -2.1369   20.4855 C.ar    1  UNL1        0.0263
     13 C           3.9129   -1.6743   21.3093 C.ar    1  UNL1        0.0052
     14 C           2.7771   -0.9424   20.6578 C.ar    1  UNL1        0.0378
     15 C           2.8065   -0.6732   19.1824 C.ar    1  UNL1        0.1488
     16 C           3.9716   -1.1358   18.3586 C.ar    1  UNL1        0.0916
     17 CL          4.0009   -0.8665   16.8832 Cl      1  UNL1       -0.0791
     18 C           5.1073   -1.8676   19.0102 C.ar    1  UNL1        0.0165
     19 O           1.6708    0.0586   18.5308 O.3     1  UNL1       -0.4783
     20 C           1.6798    1.5574   18.4721 C.3     1  UNL1        0.1662
     21 C           0.3891    2.3108   18.3427 C.3     1  UNL1        0.0472
     22 C           2.9794    2.3031   18.5426 C.3     1  UNL1        0.0472
     23 C           7.2311   -2.8110   25.7265 C.3     1  UNL1        0.0050
     24 C           6.5440   -4.1012   25.3900 C.3     1  UNL1        0.0261
     25 C           7.2319   -6.2074   27.4126 C.3     1  UNL1        0.0433
     26 C           8.0746   -5.4640   28.4061 C.3     1  UNL1        0.0768
     27 N           7.4226   -4.7044   29.5232 N.3     1  UNL1       -0.2724
     28 C           6.8773   -3.3289   29.2768 C.3     1  UNL1        0.0725
     29 C           6.2253   -2.5694   30.3939 C.3     1  UNL1        0.0229
     30 C           6.1185   -3.1854   31.7575 C.3     1  UNL1        0.0393
     31 C           6.6639   -4.5608   32.0039 C.3     1  UNL1        0.0229
     32 C           7.3159   -5.3203   30.8868 C.3     1  UNL1        0.0725
     33 C           5.4665   -2.4258   32.8746 C.2     1  UNL1        0.0501
     34 O           6.1830   -1.2756   33.5178 O.co2   1  UNL1       -0.5492
     35 O           4.0980   -2.8165   33.3485 O.co2   1  UNL1       -0.5492
@<TRIPOS>UNITY_ATOM_ATTR
34 1
charge -1
@<TRIPOS>BOND
     1    23    24    1
     2    24     1    1
     3     1     2   ar
     4     2    25    1
     5    25    26    1
     6    26    27    1
     7    27    28    1
     8    28    29    1
     9    29    30    1
    10    30    33    1
    11    33    34   ar
    12    33    35   ar
    13    30    31    1
    14    31    32    1
    15     2     3   ar
    16     3     4   ar
    17     4     5   ar
    18     5     6   ar
    19     6     7    1
    20     7     8   ar
    21     8     9   ar
    22     9    10   ar
    23    10    12    1
    24    12    13   ar
    25    13    14   ar
    26    14    15   ar
    27    15    19    1
    28    19    20    1
    29    20    21    1
    30    20    22    1
    31    15    16   ar
    32    16    17    1
    33    16    18   ar
    34    10    11   ar
    35     6     1   ar
    36    11     7   ar
    37    32    27    1
    38    18    12   ar
@<TRIPOS>MOLECULE
*****
 35 38 0 0 0
SMALL
GASTEIGER

@<TRIPOS>ATOM
      1 C           6.2026   -3.6081   20.3282 C.ar    1  UNL1       -0.0231
      2 C           5.9800   -2.7589   19.1120 C.ar    1  UNL1       -0.0246
      3 C           7.1452   -2.1050   18.4304 C.ar    1  UNL1       -0.0045
      4 C           8.5330   -2.3003   18.9649 C.ar    1  UNL1       -0.0002
      5 C           8.7556   -3.1495   20.1811 C.ar    1  UNL1        0.0027
      6 C           7.5904   -3.8035   20.8627 C.ar    1  UNL1        0.0322
      7 C           7.8131   -4.6527   22.0790 C.ar    1  UNL1        0.1700
      8 N           8.4907   -5.9906   22.1082 N.ar    1  UNL1       -0.1885
      9 S           8.4936   -6.4779   23.5268 S.2     1  UNL1        0.0341
     10 C           7.8177   -5.4412   24.3745 C.ar    1  UNL1        0.1299
     11 N           7.3972   -4.3132   23.4796 N.ar    1  UNL1       -0.2181
     12 C           7.6006   -5.5189   25.8566 C.ar    1  UNL1        0.0263
     13 C           6.5949   -4.6217   26.5153 C.ar    1  UNL1        0.0052
     14 C           6.3778   -4.6994   27.9974 C.ar    1  UNL1        0.0378
     15 C           7.1663   -5.6742   28.8209 C.ar    1  UNL1        0.1488
     16 C           8.1720   -6.5713   28.1622 C.ar    1  UNL1        0.0916
     17 CL          8.9605   -7.5461   28.9857 Cl      1  UNL1       -0.0791
     18 C           8.3891   -6.4936   26.6801 C.ar    1  UNL1        0.0165
     19 O           6.9492   -5.7519   30.3030 O.3     1  UNL1       -0.4783
     20 C           7.5000   -4.6822   31.1988 C.3     1  UNL1        0.1662
     21 C           8.9799   -4.4451   31.2615 C.3     1  UNL1        0.0472
     22 C           6.5712   -3.8496   32.0319 C.3     1  UNL1        0.0472
     23 C           4.3249   -3.5526   22.1229 C.3     1  UNL1        0.0050
     24 C           5.0374   -4.2621   21.0099 C.3     1  UNL1        0.0261
     25 C           4.5921   -2.5635   18.5774 C.3     1  UNL1        0.0433
     26 C           4.1522   -1.2076   18.1105 C.3     1  UNL1        0.0768
     27 N           3.1209   -0.4448   18.8881 N.3     1  UNL1       -0.2724
     28 C           2.8527    0.9955   18.5662 C.3     1  UNL1        0.0725
     29 C           1.8215    1.7583   19.3437 C.3     1  UNL1        0.0229
     30 C           1.0585    1.0808   20.4432 C.3     1  UNL1        0.0393
     31 C           1.3267   -0.3594   20.7651 C.3     1  UNL1        0.0229
     32 C           2.3579   -1.1222   19.9876 C.3     1  UNL1        0.0725
     33 C           0.0272    1.8437   21.2208 C.2     1  UNL1        0.0501
     34 O           0.3014    2.2418   22.6407 O.co2   1  UNL1       -0.5492
     35 O          -1.2783    2.2085   20.5784 O.co2   1  UNL1       -0.5492
@<TRIPOS>UNITY_ATOM_ATTR
34 1
charge -1
@<TRIPOS>BOND
     1    23    24    1
     2    24     1    1
     3     1     2   ar
     4     2    25    1
     5    25    26    1
     6    26    27    1
     7    27    28    1
     8    28    29    1
     9    29    30    1
    10    30    33    1
    11    33    34   ar
    12    33    35   ar
    13    30    31    1
    14    31    32    1
    15     2     3   ar
    16     3     4   ar
    17     4     5   ar
    18     5     6   ar
    19     6     7    1
    20     7     8   ar
    21     8     9   ar
    22     9    10   ar
    23    10    12    1
    24    12    13   ar
    25    13    14   ar
    26    14    15   ar
    27    15    19    1
    28    19    20    1
    29    20    21    1
    30    20    22    1
    31    15    16   ar
    32    16    17    1
    33    16    18   ar
    34    10    11   ar
    35     6     1   ar
    36    11     7   ar
    37    32    27    1
    38    18    12   ar
@<TRIPOS>MOLECULE
*****
 35 38 0 0 0
SMALL
GASTEIGER

@<TRIPOS>ATOM
      1 C           8.4577   -5.3234   26.1666 C.ar    1  UNL1       -0.0231
      2 C           8.3728   -5.8995   27.5490 C.ar    1  UNL1       -0.0246
      3 C           8.0866   -7.3599   27.7367 C.ar    1  UNL1       -0.0045
      4 C           7.8853   -8.2443   26.5420 C.ar    1  UNL1       -0.0002
      5 C           7.9701   -7.6682   25.1596 C.ar    1  UNL1        0.0027
      6 C           8.2563   -6.2078   24.9720 C.ar    1  UNL1        0.0322
      7 C           8.3412   -5.6318   23.5895 C.ar    1  UNL1        0.1700
      8 N           9.5294   -5.7016   22.6766 N.ar    1  UNL1       -0.1885
      9 S           9.1753   -4.9978   21.4002 S.2     1  UNL1        0.0341
     10 C           7.7682   -4.4929   21.5242 C.ar    1  UNL1        0.1299
     11 N           7.2527   -4.8848   22.8773 N.ar    1  UNL1       -0.2181
     12 C           7.0098   -3.7302   20.4788 C.ar    1  UNL1        0.0263
     13 C           7.7410   -2.8227   19.5345 C.ar    1  UNL1        0.0052
     14 C           6.9826   -2.0599   18.4890 C.ar    1  UNL1        0.0378
     15 C           5.4930   -2.2047   18.3878 C.ar    1  UNL1        0.1488
     16 C           4.7618   -3.1122   19.3322 C.ar    1  UNL1        0.0916
     17 CL          3.2722   -3.2570   19.2310 Cl      1  UNL1       -0.0791
     18 C           5.5202   -3.8750   20.3776 C.ar    1  UNL1        0.0165
     19 O           4.7346   -1.4420   17.3424 O.3     1  UNL1       -0.4783
     20 C           4.1991   -0.0754   17.6518 C.3     1  UNL1        0.1662
     21 C           5.1360    1.0915   17.7556 C.3     1  UNL1        0.0472
     22 C           2.7268    0.1245   17.8574 C.3     1  UNL1        0.0472
     23 C           7.6169   -2.8732   25.9680 C.3     1  UNL1        0.0050
     24 C           8.7439   -3.8630   25.9789 C.3     1  UNL1        0.0261
     25 C           8.5742   -5.0150   28.7437 C.3     1  UNL1        0.0433
     26 C           7.7147   -5.1909   29.9604 C.3     1  UNL1        0.0768
     27 N           6.9623   -4.0214   30.5227 N.3     1  UNL1       -0.2724
     28 C           6.5575   -2.8889   29.6263 C.3     1  UNL1        0.0725
     29 C           5.8052   -1.7194   30.1886 C.3     1  UNL1        0.0229
     30 C           5.4577   -1.6824   31.6473 C.3     1  UNL1        0.0393
     31 C           5.8625   -2.8148   32.5437 C.3     1  UNL1        0.0229
     32 C           6.6148   -3.9843   31.9814 C.3     1  UNL1        0.0725
     33 C           4.7053   -0.5128   32.2096 C.2     1  UNL1        0.0501
     34 O           3.2173   -0.5910   32.3820 O.co2   1  UNL1       -0.5492
     35 O           5.4409    0.7349   32.5994 O.co2   1  UNL1       -0.5492
@<TRIPOS>UNITY_ATOM_ATTR
34 1
charge -1
@<TRIPOS>BOND
     1    23    24    1
     2    24     1    1
     3     1     2   ar
     4     2    25    1
     5    25    26    1
     6    26    27    1
     7    27    28    1
     8    28    29    1
     9    29    30    1
    10    30    33    1
    11    33    34   ar
    12    33    35   ar
    13    30    31    1
    14    31    32    1
    15     2     3   ar
    16     3     4   ar
    17     4     5   ar
    18     5     6   ar
    19     6     7    1
    20     7     8   ar
    21     8     9   ar
    22     9    10   ar
    23    10    12    1
    24    12    13   ar
    25    13    14   ar
    26    14    15   ar
    27    15    19    1
    28    19    20    1
    29    20    21    1
    30    20    22    1
    31    15    16   ar
    32    16    17    1
    33    16    18   ar
    34    10    11   ar
    35     6     1   ar
    36    11     7   ar
    37    32    27    1
    38    18    12   ar
@<TRIPOS>MOLECULE
*****
 35 38 0 0 0
SMALL
GASTEIGER

@<TRIPOS>ATOM
      1 C           3.9907   -1.8601   21.3726 C.ar    1  UNL1       -0.0231
      2 C           4.5300   -3.1967   21.7878 C.ar    1  UNL1       -0.0246
      3 C           4.5353   -4.3384   20.8149 C.ar    1  UNL1       -0.0045
      4 C           4.0013   -4.1435   19.4269 C.ar    1  UNL1       -0.0002
      5 C           3.4620   -2.8068   19.0117 C.ar    1  UNL1        0.0027
      6 C           3.4567   -1.6651   19.9845 C.ar    1  UNL1        0.0322
      7 C           2.9173   -0.3284   19.5692 C.ar    1  UNL1        0.1700
      8 N           3.6957    0.7692   18.9064 N.ar    1  UNL1       -0.1885
      9 S           2.7644    1.9213   18.6714 S.2     1  UNL1        0.0341
     10 C           1.4103    1.5357   19.1890 C.ar    1  UNL1        0.1299
     11 N           1.5048    0.1453   19.7439 N.ar    1  UNL1       -0.2181
     12 C           0.1781    2.3905   19.1573 C.ar    1  UNL1        0.0263
     13 C          -0.1865    3.1346   17.9070 C.ar    1  UNL1        0.0052
     14 C          -1.4187    3.9894   17.8753 C.ar    1  UNL1        0.0378
     15 C          -2.2864    4.0999   19.0939 C.ar    1  UNL1        0.1488
     16 C          -1.9218    3.3558   20.3442 C.ar    1  UNL1        0.0916
     17 CL         -2.7895    3.4664   21.5628 Cl      1  UNL1       -0.0791
     18 C          -0.6896    2.5010   20.3759 C.ar    1  UNL1        0.0165
     19 O          -3.5186    4.9547   19.0622 O.3     1  UNL1       -0.4783
     20 C          -4.7817    4.4272   18.4487 C.3     1  UNL1        0.1662
     21 C          -5.2700    4.9818   17.1433 C.3     1  UNL1        0.0472
     22 C          -5.5565    3.3450   19.1406 C.3     1  UNL1        0.0472
     23 C           2.7794   -0.4681   23.2016 C.3     1  UNL1        0.0050
     24 C           3.9854   -0.7184   22.3455 C.3     1  UNL1        0.0261
     25 C           5.0640   -3.3917   23.1759 C.3     1  UNL1        0.0433
     26 C           6.5196   -3.6876   23.3849 C.3     1  UNL1        0.0768
     27 N           6.9384   -4.7212   24.3881 N.3     1  UNL1       -0.2724
     28 C           6.5953   -4.5420   25.8373 C.3     1  UNL1        0.0725
     29 C           7.0141   -5.5755   26.8404 C.3     1  UNL1        0.0229
     30 C           7.7761   -6.7882   26.3944 C.3     1  UNL1        0.0393
     31 C           8.1192   -6.9673   24.9453 C.3     1  UNL1        0.0229
     32 C           7.7004   -5.9338   23.9421 C.3     1  UNL1        0.0725
     33 C           8.1949   -7.8217   27.3977 C.2     1  UNL1        0.0501
     34 O           9.0032   -7.4198   28.5956 O.co2   1  UNL1       -0.5492
     35 O           7.8054   -9.2571   27.2029 O.co2   1  UNL1       -0.5492
@<TRIPOS>UNITY_ATOM_ATTR
34 1
charge -1
@<TRIPOS>BOND
     1    23    24    1
     2    24     1    1
     3     1     2   ar
     4     2    25    1
     5    25    26    1
     6    26    27    1
     7    27    28    1
     8    28    29    1
     9    29    30    1
    10    30    33    1
    11    33    34   ar
    12    33    35   ar
    13    30    31    1
    14    31    32    1
    15     2     3   ar
    16     3     4   ar
    17     4     5   ar
    18     5     6   ar
    19     6     7    1
    20     7     8   ar
    21     8     9   ar
    22     9    10   ar
    23    10    12    1
    24    12    13   ar
    25    13    14   ar
    26    14    15   ar
    27    15    19    1
    28    19    20    1
    29    20    21    1
    30    20    22    1
    31    15    16   ar
    32    16    17    1
    33    16    18   ar
    34    10    11   ar
    35     6     1   ar
    36    11     7   ar
    37    32    27    1
    38    18    12   ar
@<TRIPOS>MOLECULE
*****
 35 38 0 0 0
SMALL
GASTEIGER

@<TRIPOS>ATOM
      1 C           5.0596   -2.0906   20.1943 C.ar    1  UNL1       -0.0231
      2 C           5.9070   -3.3271   20.2468 C.ar    1  UNL1       -0.0246
      3 C           5.3648   -4.6301   19.7387 C.ar    1  UNL1       -0.0045
      4 C           3.9752   -4.6966   19.1780 C.ar    1  UNL1       -0.0002
      5 C           3.1277   -3.4600   19.1255 C.ar    1  UNL1        0.0027
      6 C           3.6699   -2.1570   19.6336 C.ar    1  UNL1        0.0322
      7 C           2.8224   -0.9205   19.5810 C.ar    1  UNL1        0.1700
      8 N           2.6558   -0.0154   18.3965 N.ar    1  UNL1       -0.1885
      9 S           1.7231    1.0925   18.7872 S.2     1  UNL1        0.0341
     10 C           1.3132    0.8721   20.2133 C.ar    1  UNL1        0.1299
     11 N           1.9926   -0.3719   20.7038 N.ar    1  UNL1       -0.2181
     12 C           0.3867    1.7430   21.0089 C.ar    1  UNL1        0.0263
     13 C           0.6440    1.9751   22.4683 C.ar    1  UNL1        0.0052
     14 C          -0.2825    2.8460   23.2640 C.ar    1  UNL1        0.0378
     15 C          -1.4664    3.4846   22.6003 C.ar    1  UNL1        0.1488
     16 C          -1.7238    3.2525   21.1409 C.ar    1  UNL1        0.0916
     17 CL         -2.9076    3.8912   20.4771 Cl      1  UNL1       -0.0791
     18 C          -0.7972    2.3817   20.3452 C.ar    1  UNL1        0.0165
     19 O          -2.3930    4.3555   23.3959 O.3     1  UNL1       -0.4783
     20 C          -3.4666    3.7343   24.2394 C.3     1  UNL1        0.1662
     21 C          -3.3518    3.7553   25.7349 C.3     1  UNL1        0.0472
     22 C          -4.6551    3.0921   23.5875 C.3     1  UNL1        0.0472
     23 C           6.3101    0.1461   19.7663 C.3     1  UNL1        0.0050
     24 C           5.6018   -0.7876   20.7024 C.3     1  UNL1        0.0261
     25 C           7.2967   -3.2606   20.8075 C.3     1  UNL1        0.0433
     26 C           8.1035   -4.5156   20.9632 C.3     1  UNL1        0.0768
     27 N           8.0969   -5.2544   22.2687 N.3     1  UNL1       -0.2724
     28 C           8.8027   -6.5725   22.3880 C.3     1  UNL1        0.0725
     29 C           8.7961   -7.3112   23.6935 C.3     1  UNL1        0.0229
     30 C           8.0837   -6.7318   24.8795 C.3     1  UNL1        0.0393
     31 C           7.3779   -5.4137   24.7602 C.3     1  UNL1        0.0229
     32 C           7.3845   -4.6750   23.4547 C.3     1  UNL1        0.0725
     33 C           8.0771   -7.4706   26.1850 C.2     1  UNL1        0.0501
     34 O           9.0456   -7.0918   27.2660 O.co2   1  UNL1       -0.5492
     35 O           7.1021   -8.5881   26.4095 O.co2   1  UNL1       -0.5492
@<TRIPOS>UNITY_ATOM_ATTR
34 1
charge -1
@<TRIPOS>BOND
     1    23    24    1
     2    24     1    1
     3     1     2   ar
     4     2    25    1
     5    25    26    1
     6    26    27    1
     7    27    28    1
     8    28    29    1
     9    29    30    1
    10    30    33    1
    11    33    34   ar
    12    33    35   ar
    13    30    31    1
    14    31    32    1
    15     2     3   ar
    16     3     4   ar
    17     4     5   ar
    18     5     6   ar
    19     6     7    1
    20     7     8   ar
    21     8     9   ar
    22     9    10   ar
    23    10    12    1
    24    12    13   ar
    25    13    14   ar
    26    14    15   ar
    27    15    19    1
    28    19    20    1
    29    20    21    1
    30    20    22    1
    31    15    16   ar
    32    16    17    1
    33    16    18   ar
    34    10    11   ar
    35     6     1   ar
    36    11     7   ar
    37    32    27    1
    38    18    12   ar
@<TRIPOS>MOLECULE
*****
 35 38 0 0 0
SMALL
GASTEIGER

@<TRIPOS>ATOM
      1 C           6.9435   -3.1460   19.9926 C.ar    1  UNL1       -0.0231
      2 C           8.2457   -3.7217   20.4648 C.ar    1  UNL1       -0.0246
      3 C           9.5328   -3.0140   20.1606 C.ar    1  UNL1       -0.0045
      4 C           9.5177   -1.7308   19.3841 C.ar    1  UNL1       -0.0002
      5 C           8.2156   -1.1551   18.9119 C.ar    1  UNL1        0.0027
      6 C           6.9285   -1.8628   19.2162 C.ar    1  UNL1        0.0322
      7 C           5.6263   -1.2871   18.7439 C.ar    1  UNL1        0.1700
      8 N           5.1488   -1.2355   17.3229 N.ar    1  UNL1       -0.1885
      9 S           3.8004   -0.5785   17.3106 S.2     1  UNL1        0.0341
     10 C           3.4445   -0.2240   18.7240 C.ar    1  UNL1        0.1299
     11 N           4.5730   -0.6620   19.6098 N.ar    1  UNL1       -0.2181
     12 C           2.1819    0.4500   19.1728 C.ar    1  UNL1        0.0263
     13 C           1.3846   -0.1279   20.3043 C.ar    1  UNL1        0.0052
     14 C           0.1219    0.5461   20.7530 C.ar    1  UNL1        0.0378
     15 C          -0.3434    1.7981   20.0703 C.ar    1  UNL1        0.1488
     16 C           0.4539    2.3760   18.9388 C.ar    1  UNL1        0.0916
     17 CL         -0.0114    3.6280   18.2560 Cl      1  UNL1       -0.0791
     18 C           1.7166    1.7020   18.4900 C.ar    1  UNL1        0.0165
     19 O          -1.6060    2.4721   20.5190 O.3     1  UNL1       -0.4783
     20 C          -1.6003    3.3348   21.7461 C.3     1  UNL1        0.1662
     21 C          -2.8778    3.5890   22.4902 C.3     1  UNL1        0.0472
     22 C          -0.3172    3.9433   22.2293 C.3     1  UNL1        0.0472
     23 C           4.8949   -4.5315   19.1967 C.3     1  UNL1        0.0050
     24 C           5.6564   -3.8537   20.2969 C.3     1  UNL1        0.0261
     25 C           8.2608   -5.0050   21.2414 C.3     1  UNL1        0.0433
     26 C           9.3621   -5.2745   22.2234 C.3     1  UNL1        0.0768
     27 N           9.0570   -5.9566   23.5241 N.3     1  UNL1       -0.2724
     28 C           9.5360   -7.3571   23.7669 C.3     1  UNL1        0.0725
     29 C           9.2308   -8.0392   25.0675 C.3     1  UNL1        0.0229
     30 C           8.4468   -7.3206   26.1253 C.3     1  UNL1        0.0393
     31 C           7.9678   -5.9201   25.8825 C.3     1  UNL1        0.0229
     32 C           8.2729   -5.2381   24.5819 C.3     1  UNL1        0.0725
     33 C           8.1416   -8.0028   27.4260 C.2     1  UNL1        0.0501
     34 O           8.0686   -9.4997   27.4888 O.co2   1  UNL1       -0.5492
     35 O           7.9096   -7.1880   28.6638 O.co2   1  UNL1       -0.5492
@<TRIPOS>UNITY_ATOM_ATTR
34 1
charge -1
@<TRIPOS>BOND
     1    23    24    1
     2    24     1    1
     3     1     2   ar
     4     2    25    1
     5    25    26    1
     6    26    27    1
     7    27    28    1
     8    28    29    1
     9    29    30    1
    10    30    33    1
    11    33    34   ar
    12    33    35   ar
    13    30    31    1
    14    31    32    1
    15     2     3   ar
    16     3     4   ar
    17     4     5   ar
    18     5     6   ar
    19     6     7    1
    20     7     8   ar
    21     8     9   ar
    22     9    10   ar
    23    10    12    1
    24    12    13   ar
    25    13    14   ar
    26    14    15   ar
    27    15    19    1
    28    19    20    1
    29    20    21    1
    30    20    22    1
    31    15    16   ar
    32    16    17    1
    33    16    18   ar
    34    10    11   ar
    35     6     1   ar
    36    11     7   ar
    37    32    27    1
    38    18    12   ar
@<TRIPOS>MOLECULE
*****
 35 38 0 0 0
SMALL
GASTEIGER

@<TRIPOS>ATOM
      1 C           4.0575   -1.7545   22.0293 C.ar    1  UNL1       -0.0231
      2 C           4.6834   -3.1064   22.2039 C.ar    1  UNL1       -0.0246
      3 C           4.5906   -4.1234   21.1053 C.ar    1  UNL1       -0.0045
      4 C           3.8719   -3.7885   19.8320 C.ar    1  UNL1       -0.0002
      5 C           3.2461   -2.4366   19.6573 C.ar    1  UNL1        0.0027
      6 C           3.3389   -1.4196   20.7560 C.ar    1  UNL1        0.0322
      7 C           2.7130   -0.0676   20.5813 C.ar    1  UNL1        0.1700
      8 N           3.3702    1.1365   19.9744 N.ar    1  UNL1       -0.1885
      9 S           2.3834    2.2659   20.0009 S.2     1  UNL1        0.0341
     10 C           1.1163    1.7598   20.6241 C.ar    1  UNL1        0.1299
     11 N           1.3200    0.3177   20.9828 N.ar    1  UNL1       -0.2181
     12 C          -0.1348    2.5561   20.8491 C.ar    1  UNL1        0.0263
     13 C          -0.6161    2.8181   22.2454 C.ar    1  UNL1        0.0052
     14 C          -1.8672    3.6144   22.4704 C.ar    1  UNL1        0.0378
     15 C          -2.6371    4.1486   21.2991 C.ar    1  UNL1        0.1488
     16 C          -2.1558    3.8866   19.9028 C.ar    1  UNL1        0.0916
     17 CL         -2.9256    4.4209   18.7314 Cl      1  UNL1       -0.0791
     18 C          -0.9047    3.0903   19.6778 C.ar    1  UNL1        0.0165
     19 O          -3.8882    4.9449   21.5241 O.3     1  UNL1       -0.4783
     20 C          -5.2127    4.2481   21.6244 C.3     1  UNL1        0.1662
     21 C          -6.1303    4.2071   20.4385 C.3     1  UNL1        0.0472
     22 C          -5.6198    3.5924   22.9107 C.3     1  UNL1        0.0472
     23 C           3.0461   -0.6199   24.1364 C.3     1  UNL1        0.0050
     24 C           4.1503   -0.7375   23.1280 C.3     1  UNL1        0.0261
     25 C           5.4020   -3.4414   23.4773 C.3     1  UNL1        0.0433
     26 C           6.7713   -4.0516   23.4274 C.3     1  UNL1        0.0768
     27 N           7.1549   -5.1150   24.4135 N.3     1  UNL1       -0.2724
     28 C           7.9408   -6.3096   23.9604 C.3     1  UNL1        0.0725
     29 C           8.3244   -7.3729   24.9464 C.3     1  UNL1        0.0229
     30 C           7.9220   -7.2416   26.3854 C.3     1  UNL1        0.0393
     31 C           7.1361   -6.0471   26.8385 C.3     1  UNL1        0.0229
     32 C           6.7526   -4.9838   25.8525 C.3     1  UNL1        0.0725
     33 C           8.3056   -8.3050   27.3714 C.2     1  UNL1        0.0501
     34 O           9.3928   -8.0437   28.3714 O.co2   1  UNL1       -0.5492
     35 O           7.6021   -9.6297   27.3575 O.co2   1  UNL1       -0.5492
@<TRIPOS>UNITY_ATOM_ATTR
34 1
charge -1
@<TRIPOS>BOND
     1    23    24    1
     2    24     1    1
     3     1     2   ar
     4     2    25    1
     5    25    26    1
     6    26    27    1
     7    27    28    1
     8    28    29    1
     9    29    30    1
    10    30    33    1
    11    33    34   ar
    12    33    35   ar
    13    30    31    1
    14    31    32    1
    15     2     3   ar
    16     3     4   ar
    17     4     5   ar
    18     5     6   ar
    19     6     7    1
    20     7     8   ar
    21     8     9   ar
    22     9    10   ar
    23    10    12    1
    24    12    13   ar
    25    13    14   ar
    26    14    15   ar
    27    15    19    1
    28    19    20    1
    29    20    21    1
    30    20    22    1
    31    15    16   ar
    32    16    17    1
    33    16    18   ar
    34    10    11   ar
    35     6     1   ar
    36    11     7   ar
    37    32    27    1
    38    18    12   ar
@<TRIPOS>MOLECULE
*****
 35 38 0 0 0
SMALL
GASTEIGER

@<TRIPOS>ATOM
      1 C         -11.8428   -4.5053   17.0266 C.ar    1  UNL1       -0.0231
      2 C         -11.1510   -5.8352   16.9762 C.ar    1  UNL1       -0.0246
      3 C         -10.0213   -6.1292   17.9182 C.ar    1  UNL1       -0.0045
      4 C          -9.5834   -5.0931   18.9106 C.ar    1  UNL1       -0.0002
      5 C         -10.2752   -3.7632   18.9609 C.ar    1  UNL1        0.0027
      6 C         -11.4049   -3.4692   18.0189 C.ar    1  UNL1        0.0322
      7 C         -12.0967   -2.1392   18.0693 C.ar    1  UNL1        0.1700
      8 N         -11.6615   -0.8915   17.3595 N.ar    1  UNL1       -0.1885
      9 S         -12.6410    0.1954   17.6899 S.2     1  UNL1        0.0341
     10 C         -13.6816   -0.3805   18.6039 C.ar    1  UNL1        0.1299
     11 N         -13.3452   -1.8234   18.8384 N.ar    1  UNL1       -0.2181
     12 C         -14.8529    0.3569   19.1820 C.ar    1  UNL1        0.0263
     13 C         -15.9156   -0.3920   19.9302 C.ar    1  UNL1        0.0052
     14 C         -17.0869    0.3455   20.5082 C.ar    1  UNL1        0.0378
     15 C         -17.1956    1.8318   20.3380 C.ar    1  UNL1        0.1488
     16 C         -16.1329    2.5807   19.5898 C.ar    1  UNL1        0.0916
     17 CL        -16.2416    4.0671   19.4196 Cl      1  UNL1       -0.0791
     18 C         -14.9616    1.8433   19.0117 C.ar    1  UNL1        0.0165
     19 O         -18.3669    2.5693   20.9160 O.3     1  UNL1       -0.4783
     20 C         -18.7548    2.3553   22.3491 C.3     1  UNL1        0.1662
     21 C         -20.1603    1.9611   22.6949 C.3     1  UNL1        0.0472
     22 C         -17.7374    2.5355   23.4365 C.3     1  UNL1        0.0472
     23 C         -14.3915   -4.3933   16.5354 C.3     1  UNL1        0.0050
     24 C         -12.9725   -4.2114   16.0846 C.3     1  UNL1        0.0261
     25 C         -11.5889   -6.8714   15.9839 C.3     1  UNL1        0.0433
     26 C         -12.4319   -8.0288   16.4306 C.3     1  UNL1        0.0768
     27 N         -13.7073   -7.7824   17.1807 N.3     1  UNL1       -0.2724
     28 C         -13.6613   -7.3251   18.6086 C.3     1  UNL1        0.0725
     29 C         -14.9367   -7.0787   19.3586 C.3     1  UNL1        0.0229
     30 C         -16.2581   -7.2895   18.6808 C.3     1  UNL1        0.0393
     31 C         -16.3041   -7.7467   17.2529 C.3     1  UNL1        0.0229
     32 C         -15.0287   -7.9931   16.5029 C.3     1  UNL1        0.0725
     33 C         -17.5336   -7.0430   19.4309 C.2     1  UNL1        0.0501
     34 O         -18.2975   -5.7705   19.2136 O.co2   1  UNL1       -0.5492
     35 O         -18.0451   -8.0690   20.3982 O.co2   1  UNL1       -0.5492
@<TRIPOS>UNITY_ATOM_ATTR
34 1
charge -1
@<TRIPOS>BOND
     1    23    24    1
     2    24     1    1
     3     1     2   ar
     4     2    25    1
     5    25    26    1
     6    26    27    1
     7    27    28    1
     8    28    29    1
     9    29    30    1
    10    30    33    1
    11    33    34   ar
    12    33    35   ar
    13    30    31    1
    14    31    32    1
    15     2     3   ar
    16     3     4   ar
    17     4     5   ar
    18     5     6   ar
    19     6     7    1
    20     7     8   ar
    21     8     9   ar
    22     9    10   ar
    23    10    12    1
    24    12    13   ar
    25    13    14   ar
    26    14    15   ar
    27    15    19    1
    28    19    20    1
    29    20    21    1
    30    20    22    1
    31    15    16   ar
    32    16    17    1
    33    16    18   ar
    34    10    11   ar
    35     6     1   ar
    36    11     7   ar
    37    32    27    1
    38    18    12   ar
@<TRIPOS>MOLECULE
*****
 35 38 0 0 0
SMALL
GASTEIGER

@<TRIPOS>ATOM
      1 C         -15.8000   -0.4553   19.3914 C.ar    1  UNL1       -0.0231
      2 C         -15.1901   -1.6865   18.7896 C.ar    1  UNL1       -0.0246
      3 C         -15.9276   -2.9916   18.8429 C.ar    1  UNL1       -0.0045
      4 C         -17.2750   -3.0655   19.4979 C.ar    1  UNL1       -0.0002
      5 C         -17.8848   -1.8343   20.0996 C.ar    1  UNL1        0.0027
      6 C         -17.1474   -0.5292   20.0463 C.ar    1  UNL1        0.0322
      7 C         -17.7573    0.7021   20.6481 C.ar    1  UNL1        0.1700
      8 N         -18.8796    1.5066   20.0623 N.ar    1  UNL1       -0.1885
      9 S         -19.1680    2.6466   20.9935 S.2     1  UNL1        0.0341
     10 C         -18.2238    2.5468   22.1548 C.ar    1  UNL1        0.1299
     11 N         -17.3520    1.3450   21.9413 N.ar    1  UNL1       -0.2181
     12 C         -18.1622    3.4841   23.3243 C.ar    1  UNL1        0.0263
     13 C         -19.3935    3.7482   24.1393 C.ar    1  UNL1        0.0052
     14 C         -19.3319    4.6855   25.3088 C.ar    1  UNL1        0.0378
     15 C         -18.0392    5.3588   25.6631 C.ar    1  UNL1        0.1488
     16 C         -16.8080    5.0948   24.8480 C.ar    1  UNL1        0.0916
     17 CL        -15.5152    5.7681   25.2023 Cl      1  UNL1       -0.0791
     18 C         -16.8695    4.1574   23.6786 C.ar    1  UNL1        0.0165
     19 O         -17.9777    6.2962   26.8325 O.3     1  UNL1       -0.4783
     20 C         -17.8202    5.7528   28.2217 C.3     1  UNL1        0.1662
     21 C         -19.0305    5.5118   29.0745 C.3     1  UNL1        0.0472
     22 C         -16.4525    5.4504   28.7583 C.3     1  UNL1        0.0472
     23 C         -15.2851    1.7908   18.1914 C.3     1  UNL1        0.0050
     24 C         -15.0625    0.8498   19.3381 C.3     1  UNL1        0.0261
     25 C         -13.8426   -1.6127   18.1346 C.3     1  UNL1        0.0433
     26 C         -12.6058   -1.9165   18.9270 C.3     1  UNL1        0.0768
     27 N         -11.9538   -3.2626   18.8129 N.3     1  UNL1       -0.2724
     28 C         -10.5595   -3.3770   18.2718 C.3     1  UNL1        0.0725
     29 C          -9.9074   -4.7231   18.1577 C.3     1  UNL1        0.0229
     30 C         -10.6497   -5.9546   18.5847 C.3     1  UNL1        0.0393
     31 C         -12.0440   -5.8402   19.1257 C.3     1  UNL1        0.0229
     32 C         -12.6961   -4.4941   19.2398 C.3     1  UNL1        0.0725
     33 C          -9.9977   -7.3007   18.4705 C.2     1  UNL1        0.0501
     34 O         -10.4597   -8.2716   17.4247 O.co2   1  UNL1       -0.5492
     35 O          -8.8836   -7.6758   19.4022 O.co2   1  UNL1       -0.5492
@<TRIPOS>UNITY_ATOM_ATTR
34 1
charge -1
@<TRIPOS>BOND
     1    23    24    1
     2    24     1    1
     3     1     2   ar
     4     2    25    1
     5    25    26    1
     6    26    27    1
     7    27    28    1
     8    28    29    1
     9    29    30    1
    10    30    33    1
    11    33    34   ar
    12    33    35   ar
    13    30    31    1
    14    31    32    1
    15     2     3   ar
    16     3     4   ar
    17     4     5   ar
    18     5     6   ar
    19     6     7    1
    20     7     8   ar
    21     8     9   ar
    22     9    10   ar
    23    10    12    1
    24    12    13   ar
    25    13    14   ar
    26    14    15   ar
    27    15    19    1
    28    19    20    1
    29    20    21    1
    30    20    22    1
    31    15    16   ar
    32    16    17    1
    33    16    18   ar
    34    10    11   ar
    35     6     1   ar
    36    11     7   ar
    37    32    27    1
    38    18    12   ar
