@<TRIPOS>MOLECULE
*****
 39 42 0 0 0
SMALL
GASTEIGER

@<TRIPOS>ATOM
      1 C          -7.9550  -18.7710   22.3414 C.3     1  UNL1        0.1116
      2 C          -6.6960  -19.0281   21.5675 C.ar    1  UNL1       -0.0131
      3 C          -5.4617  -19.4986   22.2782 C.ar    1  UNL1       -0.0041
      4 C          -4.2027  -19.7557   21.5044 C.ar    1  UNL1       -0.0032
      5 C          -4.1780  -19.5423   20.0199 C.ar    1  UNL1       -0.0048
      6 C          -5.4123  -19.0718   19.3092 C.ar    1  UNL1       -0.0032
      7 C          -6.6713  -18.8147   20.0830 C.ar    1  UNL1       -0.0041
      8 C          -2.9190  -19.7994   19.2460 C.3     1  UNL1        0.1174
      9 N          -1.8629  -18.7379   19.1578 N.3     1  UNL1       -0.1785
     10 H          -1.9983  -18.2611   18.2663 H       1  UNL1        0.1488
     11 S          -1.7806  -17.6724   20.2105 S.O2    1  UNL1        0.0453
     12 O          -2.7168  -16.8130   19.4138 O.2     1  UNL1       -0.1572
     13 O          -0.8444  -18.5318   21.0073 O.2     1  UNL1       -0.1572
     14 C          -1.6984  -16.6070   21.2631 C.3     1  UNL1        0.1952
     15 C          -2.6859  -16.5902   22.3921 C.ar    1  UNL1        0.0029
     16 C          -2.5917  -17.6119   23.4862 C.ar    1  UNL1       -0.0025
     17 C          -3.5792  -17.5951   24.6151 C.ar    1  UNL1       -0.0003
     18 C          -4.6610  -16.5566   24.6499 C.ar    1  UNL1       -0.0000
     19 C          -4.7552  -15.5349   23.5558 C.ar    1  UNL1       -0.0003
     20 C          -3.7677  -15.5517   22.4269 C.ar    1  UNL1       -0.0025
     21 C         -10.1929  -20.6049   25.0578 C.3     1  UNL1        0.1152
     22 N          -9.6018  -19.5212   24.2056 N.am    1  UNL1       -0.2740
     23 C          -8.5461  -19.8547   23.1935 C.2     1  UNL1        0.2303
     24 O          -8.0815  -21.2720   23.0336 O.2     1  UNL1       -0.2745
     25 C         -10.0664  -18.1039   24.3655 C.3     1  UNL1        0.1138
     26 C          -9.2839  -17.1499   25.2184 C.ar    1  UNL1       -0.0029
     27 C          -8.6789  -15.9208   24.6075 C.ar    1  UNL1       -0.0026
     28 C          -7.8964  -14.9667   25.4604 C.ar    1  UNL1       -0.0003
     29 C          -7.7190  -15.2417   26.9242 C.ar    1  UNL1       -0.0000
     30 C          -8.3240  -16.4708   27.5352 C.ar    1  UNL1       -0.0003
     31 C          -9.1065  -17.4249   26.6823 C.ar    1  UNL1       -0.0026
     32 C         -11.3135  -17.6407   23.6725 C.3     1  UNL1        0.0968
     33 N         -11.2950  -17.3694   22.1973 N.3     1  UNL1       -0.2689
     34 C         -11.4704  -18.3889   21.1111 C.3     1  UNL1        0.0748
     35 C         -11.3817  -17.6805   19.7918 C.3     1  UNL1        0.0480
     36 C         -11.1515  -16.2233   20.0627 C.3     1  UNL1        0.1278
     37 O         -11.0012  -15.1472   19.0286 O.3     1  UNL1       -0.3830
     38 C         -11.0979  -16.0310   21.5494 C.3     1  UNL1        0.1017
     39 H         -10.8619  -14.2937   19.4679 H       1  UNL1        0.2104
@<TRIPOS>BOND
     1    21    22    1
     2    22    23   am
     3    23    24    2
     4    23     1    1
     5     1     2    1
     6     2     3   ar
     7     3     4   ar
     8     4     5   ar
     9     5     8    1
    10     8     9    1
    11     9    11    1
    12    11    12    2
    13    11    13    2
    14    11    14    1
    15    14    15    1
    16    15    16   ar
    17    16    17   ar
    18    17    18   ar
    19    18    19   ar
    20    19    20   ar
    21     5     6   ar
    22     6     7   ar
    23    22    25    1
    24    25    32    1
    25    32    33    1
    26    33    34    1
    27    34    35    1
    28    35    36    1
    29    36    37    1
    30    36    38    1
    31    25    26    1
    32    26    27   ar
    33    27    28   ar
    34    28    29   ar
    35    29    30   ar
    36    30    31   ar
    37     7     2   ar
    38    38    33    1
    39    31    26   ar
    40    20    15   ar
    41     9    10    1
    42    37    39    1
@<TRIPOS>MOLECULE
*****
 39 42 0 0 0
SMALL
GASTEIGER

@<TRIPOS>ATOM
      1 C          -6.3937  -15.5231   23.7775 C.3     1  UNL1        0.1116
      2 C          -5.0733  -16.1555   23.4507 C.ar    1  UNL1       -0.0131
      3 C          -4.7955  -17.5695   23.8671 C.ar    1  UNL1       -0.0041
      4 C          -3.4751  -18.2018   23.5403 C.ar    1  UNL1       -0.0032
      5 C          -2.4327  -17.4202   22.7971 C.ar    1  UNL1       -0.0048
      6 C          -2.7105  -16.0062   22.3807 C.ar    1  UNL1       -0.0032
      7 C          -4.0308  -15.3739   22.7075 C.ar    1  UNL1       -0.0041
      8 C          -1.1123  -18.0526   22.4703 C.3     1  UNL1        0.1174
      9 N          -0.7217  -18.2766   21.0395 N.3     1  UNL1       -0.1785
     10 H           0.0843  -18.9017   21.0487 H       1  UNL1        0.1488
     11 S          -1.7110  -18.8597   20.0744 S.O2    1  UNL1        0.0453
     12 O          -1.6325  -17.6145   19.2418 O.2     1  UNL1       -0.1572
     13 O          -1.7895  -20.1048   20.9070 O.2     1  UNL1       -0.1572
     14 C          -2.7002  -19.4427   19.1093 C.3     1  UNL1        0.1952
     15 C          -4.1035  -19.7292   19.5551 C.ar    1  UNL1        0.0029
     16 C          -4.5504  -21.1461   19.7611 C.ar    1  UNL1       -0.0025
     17 C          -5.9537  -21.4326   20.2068 C.ar    1  UNL1       -0.0003
     18 C          -6.9100  -20.3022   20.4466 C.ar    1  UNL1       -0.0000
     19 C          -6.4631  -18.8853   20.2406 C.ar    1  UNL1       -0.0003
     20 C          -5.0598  -18.5988   19.7949 C.ar    1  UNL1       -0.0025
     21 C          -8.6278  -15.6603   27.0547 C.3     1  UNL1        0.1152
     22 N          -8.1990  -15.8049   25.6246 N.am    1  UNL1       -0.2740
     23 C          -6.8226  -15.3785   25.2076 C.2     1  UNL1        0.2303
     24 O          -5.8751  -14.8076   26.2207 O.2     1  UNL1       -0.2745
     25 C          -9.1464  -16.3758   24.6115 C.3     1  UNL1        0.1138
     26 C          -9.2335  -17.8608   24.4193 C.ar    1  UNL1       -0.0029
     27 C          -8.5445  -18.5080   23.2546 C.ar    1  UNL1       -0.0026
     28 C          -8.6315  -19.9931   23.0624 C.ar    1  UNL1       -0.0003
     29 C          -9.4076  -20.8310   24.0349 C.ar    1  UNL1       -0.0000
     30 C         -10.0966  -20.1838   25.1996 C.ar    1  UNL1       -0.0003
     31 C         -10.0095  -18.6987   25.3918 C.ar    1  UNL1       -0.0026
     32 C         -10.0068  -15.4615   23.7905 C.3     1  UNL1        0.0968
     33 N         -10.9043  -16.0276   22.7303 N.3     1  UNL1       -0.2689
     34 C         -12.1930  -16.7586   22.9640 C.3     1  UNL1        0.0748
     35 C         -12.7558  -17.1450   21.6283 C.3     1  UNL1        0.0480
     36 C         -11.8148  -16.6527   20.5690 C.3     1  UNL1        0.1278
     37 O         -11.9876  -16.8213   19.0886 O.3     1  UNL1       -0.3830
     38 C         -10.6705  -15.9622   21.2501 C.3     1  UNL1        0.1017
     39 H         -11.2392  -16.4120   18.6269 H       1  UNL1        0.2104
@<TRIPOS>BOND
     1    21    22    1
     2    22    23   am
     3    23    24    2
     4    23     1    1
     5     1     2    1
     6     2     3   ar
     7     3     4   ar
     8     4     5   ar
     9     5     8    1
    10     8     9    1
    11     9    11    1
    12    11    12    2
    13    11    13    2
    14    11    14    1
    15    14    15    1
    16    15    16   ar
    17    16    17   ar
    18    17    18   ar
    19    18    19   ar
    20    19    20   ar
    21     5     6   ar
    22     6     7   ar
    23    22    25    1
    24    25    32    1
    25    32    33    1
    26    33    34    1
    27    34    35    1
    28    35    36    1
    29    36    37    1
    30    36    38    1
    31    25    26    1
    32    26    27   ar
    33    27    28   ar
    34    28    29   ar
    35    29    30   ar
    36    30    31   ar
    37     7     2   ar
    38    38    33    1
    39    31    26   ar
    40    20    15   ar
    41     9    10    1
    42    37    39    1
@<TRIPOS>MOLECULE
*****
 39 42 0 0 0
SMALL
GASTEIGER

@<TRIPOS>ATOM
      1 C          -8.0599  -19.8395   20.9940 C.3     1  UNL1        0.1116
      2 C          -6.6373  -19.8322   20.5183 C.ar    1  UNL1       -0.0131
      3 C          -5.8686  -21.1174   20.4323 C.ar    1  UNL1       -0.0041
      4 C          -4.4461  -21.1100   19.9567 C.ar    1  UNL1       -0.0032
      5 C          -3.7922  -19.8175   19.5670 C.ar    1  UNL1       -0.0048
      6 C          -4.5609  -18.5323   19.6530 C.ar    1  UNL1       -0.0032
      7 C          -5.9834  -18.5397   20.1287 C.ar    1  UNL1       -0.0041
      8 C          -2.3696  -19.8102   19.0914 C.3     1  UNL1        0.1174
      9 N          -1.6368  -18.5104   18.9377 N.3     1  UNL1       -0.1785
     10 H          -2.0712  -18.0180   18.1571 H       1  UNL1        0.1488
     11 S          -1.5789  -17.5422   20.0820 S.O2    1  UNL1        0.0453
     12 O          -0.6323  -18.4538   20.8052 O.2     1  UNL1       -0.1572
     13 O          -2.5254  -16.6307   19.3588 O.2     1  UNL1       -0.1572
     14 C          -1.5208  -16.5742   21.2263 C.3     1  UNL1        0.1952
     15 C          -2.6097  -16.5662   22.2579 C.ar    1  UNL1        0.0029
     16 C          -2.8879  -17.8000   23.0643 C.ar    1  UNL1       -0.0025
     17 C          -3.9768  -17.7920   24.0959 C.ar    1  UNL1       -0.0003
     18 C          -4.7875  -16.5503   24.3212 C.ar    1  UNL1       -0.0000
     19 C          -4.5093  -15.3165   23.5148 C.ar    1  UNL1       -0.0003
     20 C          -3.4204  -15.3244   22.4832 C.ar    1  UNL1       -0.0025
     21 C         -11.1833  -17.5531   20.1182 C.3     1  UNL1        0.1152
     22 N         -10.1249  -18.2653   20.9073 N.am    1  UNL1       -0.2740
     23 C          -9.1182  -19.1274   20.2048 C.2     1  UNL1        0.2303
     24 O          -9.1699  -19.2773   18.7133 O.2     1  UNL1       -0.2745
     25 C         -10.0732  -18.1153   22.3989 C.3     1  UNL1        0.1138
     26 C          -9.3130  -16.9771   23.0124 C.ar    1  UNL1       -0.0029
     27 C          -9.3571  -16.7588   24.4957 C.ar    1  UNL1       -0.0026
     28 C          -8.5968  -15.6205   25.1092 C.ar    1  UNL1       -0.0003
     29 C          -7.7924  -14.7006   24.2394 C.ar    1  UNL1       -0.0000
     30 C          -7.7483  -14.9190   22.7559 C.ar    1  UNL1       -0.0003
     31 C          -8.5085  -16.0572   22.1425 C.ar    1  UNL1       -0.0026
     32 C         -10.7819  -19.1037   23.2770 C.3     1  UNL1        0.0968
     33 N         -12.1191  -18.7616   23.8641 N.3     1  UNL1       -0.2689
     34 C         -13.2360  -18.0509   23.1587 C.3     1  UNL1        0.0748
     35 C         -14.3815  -17.9202   24.1183 C.3     1  UNL1        0.0480
     36 C         -13.9726  -18.5500   25.4168 C.3     1  UNL1        0.1278
     37 O         -14.8141  -18.6435   26.6549 O.3     1  UNL1       -0.3830
     38 C         -12.5744  -19.0700   25.2597 C.3     1  UNL1        0.1017
     39 H         -14.3146  -19.0969   27.3519 H       1  UNL1        0.2104
@<TRIPOS>BOND
     1    21    22    1
     2    22    23   am
     3    23    24    2
     4    23     1    1
     5     1     2    1
     6     2     3   ar
     7     3     4   ar
     8     4     5   ar
     9     5     8    1
    10     8     9    1
    11     9    11    1
    12    11    12    2
    13    11    13    2
    14    11    14    1
    15    14    15    1
    16    15    16   ar
    17    16    17   ar
    18    17    18   ar
    19    18    19   ar
    20    19    20   ar
    21     5     6   ar
    22     6     7   ar
    23    22    25    1
    24    25    32    1
    25    32    33    1
    26    33    34    1
    27    34    35    1
    28    35    36    1
    29    36    37    1
    30    36    38    1
    31    25    26    1
    32    26    27   ar
    33    27    28   ar
    34    28    29   ar
    35    29    30   ar
    36    30    31   ar
    37     7     2   ar
    38    38    33    1
    39    31    26   ar
    40    20    15   ar
    41     9    10    1
    42    37    39    1
@<TRIPOS>MOLECULE
*****
 39 42 0 0 0
SMALL
GASTEIGER

@<TRIPOS>ATOM
      1 C           2.7615    0.4638   23.4331 C.3     1  UNL1        0.1116
      2 C           3.0566    0.0631   22.0180 C.ar    1  UNL1       -0.0131
      3 C           2.0198   -0.6617   21.2119 C.ar    1  UNL1       -0.0041
      4 C           2.3149   -1.0623   19.7969 C.ar    1  UNL1       -0.0032
      5 C           3.6469   -0.7382   19.1879 C.ar    1  UNL1       -0.0048
      6 C           4.6837   -0.0135   19.9940 C.ar    1  UNL1       -0.0032
      7 C           4.3885    0.3872   21.4090 C.ar    1  UNL1       -0.0041
      8 C           3.9420   -1.1389   17.7728 C.3     1  UNL1        0.1174
      9 N           4.6211   -2.4459   17.4895 N.3     1  UNL1       -0.1785
     10 H           5.3792   -2.2484   16.8363 H       1  UNL1        0.1488
     11 S           5.2148   -3.2419   18.6139 S.O2    1  UNL1        0.0453
     12 O           6.5133   -2.5099   18.4464 O.2     1  UNL1       -0.1572
     13 O           3.9163   -3.9739   18.7814 O.2     1  UNL1       -0.1572
     14 C           5.8085   -4.0378   19.7382 C.3     1  UNL1        0.1952
     15 C           5.8401   -3.4681   21.1254 C.ar    1  UNL1        0.0029
     16 C           7.1120   -2.8881   21.6692 C.ar    1  UNL1       -0.0025
     17 C           7.1436   -2.3184   23.0565 C.ar    1  UNL1       -0.0003
     18 C           5.9033   -2.3287   23.8999 C.ar    1  UNL1       -0.0000
     19 C           4.6314   -2.9086   23.3561 C.ar    1  UNL1       -0.0003
     20 C           4.5998   -3.4783   21.9688 C.ar    1  UNL1       -0.0025
     21 C           3.3288    4.2768   24.3760 C.3     1  UNL1        0.1152
     22 N           2.7122    3.0348   23.8040 N.am    1  UNL1       -0.2740
     23 C           3.3781    1.7057   24.0050 C.2     1  UNL1        0.2303
     24 O           4.6606    1.6188   24.7780 O.2     1  UNL1       -0.2745
     25 C           1.4297    3.1217   23.0310 C.3     1  UNL1        0.1138
     26 C           1.4434    2.9843   21.5374 C.ar    1  UNL1       -0.0029
     27 C           0.2759    2.3616   20.8308 C.ar    1  UNL1       -0.0026
     28 C           0.2896    2.2242   19.3371 C.ar    1  UNL1       -0.0003
     29 C           1.4708    2.7094   18.5501 C.ar    1  UNL1       -0.0000
     30 C           2.6383    3.3321   19.2568 C.ar    1  UNL1       -0.0003
     31 C           2.6246    3.4695   20.7504 C.ar    1  UNL1       -0.0026
     32 C           0.1333    3.3461   23.7517 C.3     1  UNL1        0.0968
     33 N          -0.0654    2.7871   25.1294 N.3     1  UNL1       -0.2689
     34 C          -0.2035    3.5839   26.3927 C.3     1  UNL1        0.0748
     35 C          -0.3843    2.6224   27.5297 C.3     1  UNL1        0.0480
     36 C          -0.3579    1.2313   26.9691 C.3     1  UNL1        0.1278
     37 O          -0.5032   -0.0386   27.7541 O.3     1  UNL1       -0.3830
     38 C          -0.1608    1.3332   25.4856 C.3     1  UNL1        0.1017
     39 H          -0.4503   -0.7981   27.1531 H       1  UNL1        0.2104
@<TRIPOS>BOND
     1    21    22    1
     2    22    23   am
     3    23    24    2
     4    23     1    1
     5     1     2    1
     6     2     3   ar
     7     3     4   ar
     8     4     5   ar
     9     5     8    1
    10     8     9    1
    11     9    11    1
    12    11    12    2
    13    11    13    2
    14    11    14    1
    15    14    15    1
    16    15    16   ar
    17    16    17   ar
    18    17    18   ar
    19    18    19   ar
    20    19    20   ar
    21     5     6   ar
    22     6     7   ar
    23    22    25    1
    24    25    32    1
    25    32    33    1
    26    33    34    1
    27    34    35    1
    28    35    36    1
    29    36    37    1
    30    36    38    1
    31    25    26    1
    32    26    27   ar
    33    27    28   ar
    34    28    29   ar
    35    29    30   ar
    36    30    31   ar
    37     7     2   ar
    38    38    33    1
    39    31    26   ar
    40    20    15   ar
    41     9    10    1
    42    37    39    1
@<TRIPOS>MOLECULE
*****
 39 42 0 0 0
SMALL
GASTEIGER

@<TRIPOS>ATOM
      1 C          -8.8205  -19.5998   21.4343 C.3     1  UNL1        0.1116
      2 C          -7.3468  -19.7708   21.2127 C.ar    1  UNL1       -0.0131
      3 C          -6.3677  -19.1180   22.1428 C.ar    1  UNL1       -0.0041
      4 C          -4.8941  -19.2891   21.9211 C.ar    1  UNL1       -0.0032
      5 C          -4.3996  -20.1130   20.7694 C.ar    1  UNL1       -0.0048
      6 C          -5.3787  -20.7659   19.8393 C.ar    1  UNL1       -0.0032
      7 C          -6.8523  -20.5948   20.0610 C.ar    1  UNL1       -0.0041
      8 C          -2.9259  -20.2841   20.5477 C.3     1  UNL1        0.1174
      9 N          -2.0833  -19.1042   20.1636 N.3     1  UNL1       -0.1785
     10 H          -2.3778  -18.8241   19.2281 H       1  UNL1        0.1488
     11 S          -2.0960  -17.8660   21.0103 S.O2    1  UNL1        0.0453
     12 O          -1.3457  -18.5940   22.0860 O.2     1  UNL1       -0.1572
     13 O          -2.8462  -17.1380   19.9347 O.2     1  UNL1       -0.1572
     14 C          -2.1086  -16.6280   21.8571 C.3     1  UNL1        0.1952
     15 C          -3.1617  -16.4504   22.9103 C.ar    1  UNL1        0.0029
     16 C          -4.1609  -15.3379   22.7919 C.ar    1  UNL1       -0.0025
     17 C          -5.2140  -15.1603   23.8451 C.ar    1  UNL1       -0.0003
     18 C          -5.2680  -16.0952   25.0169 C.ar    1  UNL1       -0.0000
     19 C          -4.2689  -17.2077   25.1353 C.ar    1  UNL1       -0.0003
     20 C          -3.2157  -17.3853   24.0821 C.ar    1  UNL1       -0.0025
     21 C         -11.3420  -17.0300   19.7645 C.3     1  UNL1        0.1152
     22 N         -10.5045  -17.7275   20.7951 N.am    1  UNL1       -0.2740
     23 C          -9.6579  -18.9023   20.4037 C.2     1  UNL1        0.2303
     24 O          -9.6488  -19.3796   18.9817 O.2     1  UNL1       -0.2745
     25 C         -10.5136  -17.2502   22.2171 C.3     1  UNL1        0.1138
     26 C         -11.6118  -17.6781   23.1449 C.ar    1  UNL1       -0.0029
     27 C         -11.3265  -18.6605   24.2419 C.ar    1  UNL1       -0.0026
     28 C         -12.4247  -19.0885   25.1697 C.ar    1  UNL1       -0.0003
     29 C         -13.8082  -18.5341   25.0005 C.ar    1  UNL1       -0.0000
     30 C         -14.0934  -17.5516   23.9034 C.ar    1  UNL1       -0.0003
     31 C         -12.9952  -17.1236   22.9757 C.ar    1  UNL1       -0.0026
     32 C          -9.4244  -16.3448   22.7113 C.3     1  UNL1        0.0968
     33 N          -9.0692  -16.3250   24.1685 N.3     1  UNL1       -0.2689
     34 C          -8.8738  -17.5266   25.0449 C.3     1  UNL1        0.0748
     35 C          -8.5309  -17.0443   26.4232 C.3     1  UNL1        0.0480
     36 C          -8.5144  -15.5446   26.3988 C.3     1  UNL1        0.1278
     37 O          -8.2173  -14.6470   27.5633 O.3     1  UNL1       -0.3830
     38 C          -8.8471  -15.1001   25.0053 C.3     1  UNL1        0.1017
     39 H          -8.2724  -13.7210   27.2800 H       1  UNL1        0.2104
@<TRIPOS>BOND
     1    21    22    1
     2    22    23   am
     3    23    24    2
     4    23     1    1
     5     1     2    1
     6     2     3   ar
     7     3     4   ar
     8     4     5   ar
     9     5     8    1
    10     8     9    1
    11     9    11    1
    12    11    12    2
    13    11    13    2
    14    11    14    1
    15    14    15    1
    16    15    16   ar
    17    16    17   ar
    18    17    18   ar
    19    18    19   ar
    20    19    20   ar
    21     5     6   ar
    22     6     7   ar
    23    22    25    1
    24    25    32    1
    25    32    33    1
    26    33    34    1
    27    34    35    1
    28    35    36    1
    29    36    37    1
    30    36    38    1
    31    25    26    1
    32    26    27   ar
    33    27    28   ar
    34    28    29   ar
    35    29    30   ar
    36    30    31   ar
    37     7     2   ar
    38    38    33    1
    39    31    26   ar
    40    20    15   ar
    41     9    10    1
    42    37    39    1
@<TRIPOS>MOLECULE
*****
 39 42 0 0 0
SMALL
GASTEIGER

@<TRIPOS>ATOM
      1 C           3.0094    0.4124   24.1948 C.3     1  UNL1        0.1116
      2 C           3.9830   -0.5563   23.5915 C.ar    1  UNL1       -0.0131
      3 C           5.0487   -0.0648   22.6574 C.ar    1  UNL1       -0.0041
      4 C           6.0222   -1.0334   22.0541 C.ar    1  UNL1       -0.0032
      5 C           5.9300   -2.4936   22.3849 C.ar    1  UNL1       -0.0048
      6 C           4.8642   -2.9851   23.3190 C.ar    1  UNL1       -0.0032
      7 C           3.8908   -2.0164   23.9223 C.ar    1  UNL1       -0.0041
      8 C           6.9035   -3.4622   21.7816 C.3     1  UNL1        0.1174
      9 N           6.4675   -4.3688   20.6690 N.3     1  UNL1       -0.1785
     10 H           6.1050   -5.2167   21.1050 H       1  UNL1        0.1488
     11 S           5.4295   -3.9080   19.6890 S.O2    1  UNL1        0.0453
     12 O           4.4326   -4.8443   20.3048 O.2     1  UNL1       -0.1572
     13 O           6.4265   -2.9716   19.0733 O.2     1  UNL1       -0.1572
     14 C           4.3915   -3.4472   18.7092 C.3     1  UNL1        0.1952
     15 C           3.7184   -2.1201   18.8982 C.ar    1  UNL1        0.0029
     16 C           3.8524   -1.0552   17.8504 C.ar    1  UNL1       -0.0025
     17 C           3.1792    0.2719   18.0394 C.ar    1  UNL1       -0.0003
     18 C           2.3721    0.5341   19.2763 C.ar    1  UNL1       -0.0000
     19 C           2.2381   -0.5309   20.3240 C.ar    1  UNL1       -0.0003
     20 C           2.9113   -1.8580   20.1350 C.ar    1  UNL1       -0.0025
     21 C           4.3928    3.7758   25.7835 C.3     1  UNL1        0.1152
     22 N           4.0154    2.3325   25.6271 N.am    1  UNL1       -0.2740
     23 C           3.3868    1.8557   24.3513 C.2     1  UNL1        0.2303
     24 O           3.1356    2.8222   23.2320 O.2     1  UNL1       -0.2745
     25 C           4.2666    1.3660   26.7463 C.3     1  UNL1        0.1138
     26 C           5.2842    0.2762   26.5821 C.ar    1  UNL1       -0.0029
     27 C           6.5674    0.5516   25.8559 C.ar    1  UNL1       -0.0026
     28 C           7.5850   -0.5381   25.6916 C.ar    1  UNL1       -0.0003
     29 C           7.3193   -1.9033   26.2535 C.ar    1  UNL1       -0.0000
     30 C           6.0360   -2.1787   26.9798 C.ar    1  UNL1       -0.0003
     31 C           5.0185   -1.0889   27.1440 C.ar    1  UNL1       -0.0026
     32 C           3.5003    1.4893   28.0299 C.3     1  UNL1        0.0968
     33 N           2.0584    1.0795   28.0848 N.3     1  UNL1       -0.2689
     34 C           0.9585    1.6049   27.2106 C.3     1  UNL1        0.0748
     35 C          -0.3164    0.9225   27.6091 C.3     1  UNL1        0.0480
     36 C          -0.0046   -0.0247   28.7296 C.3     1  UNL1        0.1278
     37 O          -0.9878   -0.9130   29.4326 O.3     1  UNL1       -0.3830
     38 C           1.4631    0.0723   29.0236 C.3     1  UNL1        0.1017
     39 H          -0.5291   -1.4248   30.1172 H       1  UNL1        0.2104
@<TRIPOS>BOND
     1    21    22    1
     2    22    23   am
     3    23    24    2
     4    23     1    1
     5     1     2    1
     6     2     3   ar
     7     3     4   ar
     8     4     5   ar
     9     5     8    1
    10     8     9    1
    11     9    11    1
    12    11    12    2
    13    11    13    2
    14    11    14    1
    15    14    15    1
    16    15    16   ar
    17    16    17   ar
    18    17    18   ar
    19    18    19   ar
    20    19    20   ar
    21     5     6   ar
    22     6     7   ar
    23    22    25    1
    24    25    32    1
    25    32    33    1
    26    33    34    1
    27    34    35    1
    28    35    36    1
    29    36    37    1
    30    36    38    1
    31    25    26    1
    32    26    27   ar
    33    27    28   ar
    34    28    29   ar
    35    29    30   ar
    36    30    31   ar
    37     7     2   ar
    38    38    33    1
    39    31    26   ar
    40    20    15   ar
    41     9    10    1
    42    37    39    1
@<TRIPOS>MOLECULE
*****
 39 42 0 0 0
SMALL
GASTEIGER

@<TRIPOS>ATOM
      1 C          -6.8928  -19.5686   21.6841 C.3     1  UNL1        0.1116
      2 C          -8.0504  -18.7432   21.2056 C.ar    1  UNL1       -0.0131
      3 C          -8.9367  -19.2579   20.1106 C.ar    1  UNL1       -0.0041
      4 C         -10.0942  -18.4325   19.6322 C.ar    1  UNL1       -0.0032
      5 C         -10.3652  -17.0923   20.2489 C.ar    1  UNL1       -0.0048
      6 C          -9.4789  -16.5775   21.3440 C.ar    1  UNL1       -0.0032
      7 C          -8.3214  -17.4029   21.8224 C.ar    1  UNL1       -0.0041
      8 C         -11.5228  -16.2668   19.7705 C.3     1  UNL1        0.1174
      9 N         -12.7599  -16.1516   20.6108 N.3     1  UNL1       -0.1785
     10 H         -13.5399  -16.4598   20.0303 H       1  UNL1        0.1488
     11 S         -12.8600  -16.9031   21.9052 S.O2    1  UNL1        0.0453
     12 O         -13.3509  -18.1120   21.1653 O.2     1  UNL1       -0.1572
     13 O         -12.3691  -15.6941   22.6451 O.2     1  UNL1       -0.1572
     14 C         -12.9601  -17.6545   23.1995 C.3     1  UNL1        0.1952
     15 C         -11.8317  -18.5375   23.6433 C.ar    1  UNL1        0.0029
     16 C         -11.4619  -19.7455   22.8346 C.ar    1  UNL1       -0.0025
     17 C         -10.3335  -20.6285   23.2784 C.ar    1  UNL1       -0.0003
     18 C          -9.5749  -20.3035   24.5310 C.ar    1  UNL1       -0.0000
     19 C          -9.9447  -19.0956   25.3397 C.ar    1  UNL1       -0.0003
     20 C         -11.0731  -18.2126   24.8958 C.ar    1  UNL1       -0.0025
     21 C          -4.0148  -21.3050   19.5742 C.3     1  UNL1        0.1152
     22 N          -4.7143  -20.3747   20.5203 N.am    1  UNL1       -0.2740
     23 C          -6.1933  -20.4989   20.7380 C.2     1  UNL1        0.2303
     24 O          -6.9726  -21.5535   20.0096 O.2     1  UNL1       -0.2745
     25 C          -3.9350  -19.3202   21.2486 C.3     1  UNL1        0.1138
     26 C          -2.7776  -18.6439   20.5756 C.ar    1  UNL1       -0.0029
     27 C          -1.4525  -18.5546   21.2727 C.ar    1  UNL1       -0.0026
     28 C          -0.2950  -17.8782   20.5997 C.ar    1  UNL1       -0.0003
     29 C          -0.4627  -17.2912   19.2296 C.ar    1  UNL1       -0.0000
     30 C          -1.7880  -17.3805   18.5325 C.ar    1  UNL1       -0.0003
     31 C          -2.9454  -18.0568   19.2055 C.ar    1  UNL1       -0.0026
     32 C          -4.3131  -18.9419   22.6501 C.3     1  UNL1        0.0968
     33 N          -4.5457  -17.5024   23.0016 N.3     1  UNL1       -0.2689
     34 C          -3.6289  -16.3582   22.6848 C.3     1  UNL1        0.0748
     35 C          -4.2525  -15.1029   23.2189 C.3     1  UNL1        0.0480
     36 C          -5.5547  -15.4712   23.8659 C.3     1  UNL1        0.1278
     37 O          -6.5083  -14.5231   24.5305 O.3     1  UNL1       -0.3830
     38 C          -5.7359  -16.9542   23.7315 C.3     1  UNL1        0.1017
     39 H          -7.2728  -15.0163   24.8669 H       1  UNL1        0.2104
@<TRIPOS>BOND
     1    21    22    1
     2    22    23   am
     3    23    24    2
     4    23     1    1
     5     1     2    1
     6     2     3   ar
     7     3     4   ar
     8     4     5   ar
     9     5     8    1
    10     8     9    1
    11     9    11    1
    12    11    12    2
    13    11    13    2
    14    11    14    1
    15    14    15    1
    16    15    16   ar
    17    16    17   ar
    18    17    18   ar
    19    18    19   ar
    20    19    20   ar
    21     5     6   ar
    22     6     7   ar
    23    22    25    1
    24    25    32    1
    25    32    33    1
    26    33    34    1
    27    34    35    1
    28    35    36    1
    29    36    37    1
    30    36    38    1
    31    25    26    1
    32    26    27   ar
    33    27    28   ar
    34    28    29   ar
    35    29    30   ar
    36    30    31   ar
    37     7     2   ar
    38    38    33    1
    39    31    26   ar
    40    20    15   ar
    41     9    10    1
    42    37    39    1
@<TRIPOS>MOLECULE
*****
 39 42 0 0 0
SMALL
GASTEIGER

@<TRIPOS>ATOM
      1 C           2.5657   -0.1571   23.6143 C.3     1  UNL1        0.1116
      2 C           3.0020   -0.9006   22.3866 C.ar    1  UNL1       -0.0131
      3 C           2.2540   -0.7256   21.0983 C.ar    1  UNL1       -0.0041
      4 C           2.6904   -1.4690   19.8708 C.ar    1  UNL1       -0.0032
      5 C           3.8748   -2.3874   19.9316 C.ar    1  UNL1       -0.0048
      6 C           4.6228   -2.5623   21.2199 C.ar    1  UNL1       -0.0032
      7 C           4.1865   -1.8189   22.4474 C.ar    1  UNL1       -0.0041
      8 C           4.3111   -3.1308   18.7040 C.3     1  UNL1        0.1174
      9 N           4.6062   -2.3814   17.4386 N.3     1  UNL1       -0.1785
     10 H           3.7152   -2.0254   17.0926 H       1  UNL1        0.1488
     11 S           5.5576   -1.2217   17.4581 S.O2    1  UNL1        0.0453
     12 O           6.7082   -2.1687   17.6289 O.2     1  UNL1       -0.1572
     13 O           4.4069   -0.2748   17.2874 O.2     1  UNL1       -0.1572
     14 C           6.5089   -0.0622   17.4777 C.3     1  UNL1        0.1952
     15 C           6.5365    0.8654   18.6562 C.ar    1  UNL1        0.0029
     16 C           6.7023    2.3412   18.4452 C.ar    1  UNL1       -0.0025
     17 C           6.7300    3.2688   19.6237 C.ar    1  UNL1       -0.0003
     18 C           6.5919    2.7207   21.0130 C.ar    1  UNL1       -0.0000
     19 C           6.4261    1.2449   21.2240 C.ar    1  UNL1       -0.0003
     20 C           6.3984    0.3173   20.0455 C.ar    1  UNL1       -0.0025
     21 C           3.7468    3.5609   24.3428 C.3     1  UNL1        0.1152
     22 N           2.9354    2.4048   23.8381 N.am    1  UNL1       -0.2740
     23 C           3.3771    0.9990   24.1190 C.2     1  UNL1        0.2303
     24 O           4.6304    0.7496   24.9046 O.2     1  UNL1       -0.2745
     25 C           1.6821    2.6543   23.0525 C.3     1  UNL1        0.1138
     26 C           1.7080    2.5770   21.5547 C.ar    1  UNL1       -0.0029
     27 C           0.4324    2.3734   20.7922 C.ar    1  UNL1       -0.0026
     28 C           0.4582    2.2961   19.2943 C.ar    1  UNL1       -0.0003
     29 C           1.7596    2.4225   18.5591 C.ar    1  UNL1       -0.0000
     30 C           3.0352    2.6261   19.3218 C.ar    1  UNL1       -0.0003
     31 C           3.0093    2.7033   20.8195 C.ar    1  UNL1       -0.0026
     32 C           0.4030    2.9810   23.7647 C.3     1  UNL1        0.0968
     33 N           0.1940    2.5246   25.1782 N.3     1  UNL1       -0.2689
     34 C           0.3396    3.3702   26.4085 C.3     1  UNL1        0.0748
     35 C           0.0382    2.5106   27.6002 C.3     1  UNL1        0.0480
     36 C          -0.2937    1.1337   27.1065 C.3     1  UNL1        0.1278
     37 O          -0.6580   -0.0450   27.9598 O.3     1  UNL1       -0.3830
     38 C          -0.1975    1.1423   25.6096 C.3     1  UNL1        0.1017
     39 H          -0.8253   -0.8146   27.3936 H       1  UNL1        0.2104
@<TRIPOS>BOND
     1    21    22    1
     2    22    23   am
     3    23    24    2
     4    23     1    1
     5     1     2    1
     6     2     3   ar
     7     3     4   ar
     8     4     5   ar
     9     5     8    1
    10     8     9    1
    11     9    11    1
    12    11    12    2
    13    11    13    2
    14    11    14    1
    15    14    15    1
    16    15    16   ar
    17    16    17   ar
    18    17    18   ar
    19    18    19   ar
    20    19    20   ar
    21     5     6   ar
    22     6     7   ar
    23    22    25    1
    24    25    32    1
    25    32    33    1
    26    33    34    1
    27    34    35    1
    28    35    36    1
    29    36    37    1
    30    36    38    1
    31    25    26    1
    32    26    27   ar
    33    27    28   ar
    34    28    29   ar
    35    29    30   ar
    36    30    31   ar
    37     7     2   ar
    38    38    33    1
    39    31    26   ar
    40    20    15   ar
    41     9    10    1
    42    37    39    1
@<TRIPOS>MOLECULE
*****
 39 42 0 0 0
SMALL
GASTEIGER

@<TRIPOS>ATOM
      1 C          -8.1290  -18.7139   22.5034 C.3     1  UNL1        0.1116
      2 C          -6.7045  -18.2856   22.6972 C.ar    1  UNL1       -0.0131
      3 C          -5.6016  -19.3005   22.6390 C.ar    1  UNL1       -0.0041
      4 C          -4.1773  -18.8721   22.8328 C.ar    1  UNL1       -0.0032
      5 C          -3.8558  -17.4288   23.0849 C.ar    1  UNL1       -0.0048
      6 C          -4.9587  -16.4139   23.1431 C.ar    1  UNL1       -0.0032
      7 C          -6.3831  -16.8422   22.9493 C.ar    1  UNL1       -0.0041
      8 C          -2.4313  -17.0005   23.2787 C.3     1  UNL1        0.1174
      9 N          -1.4452  -17.1463   22.1580 N.3     1  UNL1       -0.1785
     10 H          -0.6307  -17.6249   22.5428 H       1  UNL1        0.1488
     11 S          -1.8314  -17.8841   20.9103 S.O2    1  UNL1        0.0453
     12 O          -2.3833  -16.6153   20.3310 O.2     1  UNL1       -0.1572
     13 O          -1.2796  -19.1528   21.4896 O.2     1  UNL1       -0.1572
     14 C          -2.2177  -18.6217   19.6627 C.3     1  UNL1        0.1952
     15 C          -3.5255  -19.3536   19.5986 C.ar    1  UNL1        0.0029
     16 C          -4.7892  -18.6060   19.2920 C.ar    1  UNL1       -0.0025
     17 C          -6.0969  -19.3379   19.2279 C.ar    1  UNL1       -0.0003
     18 C          -6.1409  -20.8175   19.4704 C.ar    1  UNL1       -0.0000
     19 C          -4.8772  -21.5651   19.7770 C.ar    1  UNL1       -0.0003
     20 C          -3.5695  -20.8332   19.8411 C.ar    1  UNL1       -0.0025
     21 C         -10.3448  -20.7335   25.1036 C.3     1  UNL1        0.1152
     22 N          -9.7868  -19.5981   24.2979 N.am    1  UNL1       -0.2740
     23 C          -8.6870  -19.8494   23.3092 C.2     1  UNL1        0.2303
     24 O          -8.1453  -21.2361   23.1264 O.2     1  UNL1       -0.2745
     25 C         -10.3286  -18.2113   24.4807 C.3     1  UNL1        0.1138
     26 C          -9.5643  -17.2087   25.2934 C.ar    1  UNL1       -0.0029
     27 C          -9.1870  -17.5232   26.7106 C.ar    1  UNL1       -0.0026
     28 C          -8.4227  -16.5205   27.5235 C.ar    1  UNL1       -0.0003
     29 C          -8.0358  -15.2033   26.9189 C.ar    1  UNL1       -0.0000
     30 C          -8.4132  -14.8889   25.5016 C.ar    1  UNL1       -0.0003
     31 C          -9.1775  -15.8915   24.6889 C.ar    1  UNL1       -0.0026
     32 C         -11.6346  -17.8273   23.8507 C.3     1  UNL1        0.0968
     33 N         -11.7071  -17.5637   22.3758 N.3     1  UNL1       -0.2689
     34 C         -11.3974  -18.5488   21.2878 C.3     1  UNL1        0.0748
     35 C         -11.6008  -17.8627   19.9695 C.3     1  UNL1        0.0480
     36 C         -12.0363  -16.4536   20.2427 C.3     1  UNL1        0.1278
     37 O         -12.3508  -15.4121   19.2101 O.3     1  UNL1       -0.3830
     38 C         -12.1019  -16.2688   21.7299 C.3     1  UNL1        0.1017
     39 H         -12.6074  -14.5869   19.6509 H       1  UNL1        0.2104
@<TRIPOS>BOND
     1    21    22    1
     2    22    23   am
     3    23    24    2
     4    23     1    1
     5     1     2    1
     6     2     3   ar
     7     3     4   ar
     8     4     5   ar
     9     5     8    1
    10     8     9    1
    11     9    11    1
    12    11    12    2
    13    11    13    2
    14    11    14    1
    15    14    15    1
    16    15    16   ar
    17    16    17   ar
    18    17    18   ar
    19    18    19   ar
    20    19    20   ar
    21     5     6   ar
    22     6     7   ar
    23    22    25    1
    24    25    32    1
    25    32    33    1
    26    33    34    1
    27    34    35    1
    28    35    36    1
    29    36    37    1
    30    36    38    1
    31    25    26    1
    32    26    27   ar
    33    27    28   ar
    34    28    29   ar
    35    29    30   ar
    36    30    31   ar
    37     7     2   ar
    38    38    33    1
    39    31    26   ar
    40    20    15   ar
    41     9    10    1
    42    37    39    1
