@<TRIPOS>MOLECULE
*****
 37 41 0 0 0
SMALL
GASTEIGER

@<TRIPOS>ATOM
      1 C           0.8207    3.6690   21.4938 C.3     1  UNL1        0.0972
      2 C           2.0447    4.2108   20.8169 C.3     1  UNL1        0.0431
      3 C           1.6439    4.7002   19.4569 C.3     1  UNL1        0.0968
      4 N           0.1722    4.4609   19.2932 N.am    1  UNL1       -0.2623
      5 C          -0.6469    4.7995   18.0831 C.2     1  UNL1        0.3073
      6 O           0.0035    5.4380   16.8918 O.2     1  UNL1       -0.2523
      7 N          -2.1166    4.4995   18.0643 N.am    1  UNL1       -0.2626
      8 C          -3.0592    4.7796   16.9315 C.3     1  UNL1        0.0964
      9 C          -4.4267    4.3200   17.3420 C.3     1  UNL1        0.0390
     10 C          -4.3293    3.7559   18.7286 C.3     1  UNL1        0.0758
     11 C          -2.9016    3.8668   19.1749 C.3     1  UNL1        0.1106
     12 C          -0.3366    3.8235   20.5522 C.3     1  UNL1        0.1147
     13 C           0.4692    3.9523   24.0524 C.3     1  UNL1        0.1152
     14 N           0.7639    3.0766   22.8708 N.am    1  UNL1       -0.2738
     15 C           1.0019    1.6085   23.0660 C.2     1  UNL1        0.2551
     16 O           0.9452    1.0161   24.4429 O.2     1  UNL1       -0.2694
     17 C           1.2967    0.7329   21.8844 C.ar    1  UNL1        0.0830
     18 C           0.3096    0.2957   20.8428 C.ar    1  UNL1        0.0115
     19 C           1.0331   -0.5667   19.8515 C.ar    1  UNL1        0.0071
     20 C           2.4673   -0.6626   20.2803 C.ar    1  UNL1        0.0296
     21 S           2.6302    0.1406   21.5367 S.2     1  UNL1       -0.0824
     22 C           3.5488   -1.4275   19.5764 C.ar    1  UNL1        0.0060
     23 C           4.6485   -0.6924   18.8691 C.ar    1  UNL1        0.0005
     24 C           5.7299   -1.4572   18.1652 C.ar    1  UNL1        0.0000
     25 C           5.7117   -2.9571   18.1686 C.ar    1  UNL1        0.0000
     26 C           4.6120   -3.6922   18.8759 C.ar    1  UNL1        0.0000
     27 C           3.5306   -2.9273   19.5798 C.ar    1  UNL1        0.0005
     28 N          -5.4610    3.1816   19.5283 N.3     1  UNL1       -0.2982
     29 H          -5.3621    2.1671   19.4921 H       1  UNL1        0.1232
     30 C          -5.6205    3.5498   20.9737 C.3     1  UNL1        0.0540
     31 C          -6.6679    4.5422   21.3836 C.3     1  UNL1        0.0157
     32 C          -6.8275    4.9104   22.8289 C.3     1  UNL1        0.0014
     33 C          -5.9396    4.2862   23.8643 C.3     1  UNL1        0.0001
     34 C          -5.3436    3.9684   25.2036 C.3     1  UNL1        0.0000
     35 C          -6.7801    5.1682   24.7394 C.3     1  UNL1        0.0000
     36 C          -4.8921    3.2938   23.4544 C.3     1  UNL1        0.0014
     37 C          -4.7326    2.9257   22.0091 C.3     1  UNL1        0.0157
@<TRIPOS>BOND
     1    13    14    1
     2    14    15   am
     3    15    16    2
     4    15    17    1
     5    17    18   ar
     6    18    19   ar
     7    19    20   ar
     8    20    22    1
     9    22    23   ar
    10    23    24   ar
    11    24    25   ar
    12    25    26   ar
    13    26    27   ar
    14    20    21   ar
    15     1    14    1
    16     1     2    1
    17     2     3    1
    18     3     4    1
    19     4     5   am
    20     5     6    2
    21     5     7   am
    22     7     8    1
    23     8     9    1
    24     9    10    1
    25    10    28    1
    26    28    30    1
    27    30    31    1
    28    31    32    1
    29    32    33    1
    30    33    34    1
    31    33    35    1
    32    33    36    1
    33    36    37    1
    34    10    11    1
    35     4    12    1
    36    21    17   ar
    37    12     1    1
    38    27    22   ar
    39    11     7    1
    40    37    30    1
    41    28    29    1
@<TRIPOS>MOLECULE
*****
 37 41 0 0 0
SMALL
GASTEIGER

@<TRIPOS>ATOM
      1 C           6.7714   -1.4582   27.3941 C.3     1  UNL1        0.0972
      2 C           6.1521   -2.2153   28.5313 C.3     1  UNL1        0.0431
      3 C           6.1823   -3.6749   28.1873 C.3     1  UNL1        0.0968
      4 N           6.8202   -3.8200   26.8375 N.am    1  UNL1       -0.2623
      5 C           7.0531   -5.1088   26.1063 C.2     1  UNL1        0.3073
      6 O           6.6333   -6.4089   26.7255 O.2     1  UNL1       -0.2523
      7 N           7.7060   -5.0975   24.7558 N.am    1  UNL1       -0.2626
      8 C           8.0024   -6.3001   23.9097 C.3     1  UNL1        0.0964
      9 C           8.6566   -5.8275   22.6453 C.3     1  UNL1        0.0390
     10 C           8.7645   -4.3328   22.7100 C.3     1  UNL1        0.0758
     11 C           8.1770   -3.8816   24.0143 C.3     1  UNL1        0.1106
     12 C           7.1843   -2.4498   26.3472 C.3     1  UNL1        0.1147
     13 C           7.9321    0.7160   28.2162 C.3     1  UNL1        0.1152
     14 N           6.9469    0.0296   27.3173 N.am    1  UNL1       -0.2738
     15 C           6.1373    0.8309   26.3414 C.2     1  UNL1        0.2551
     16 O           6.3128    2.3186   26.2645 O.2     1  UNL1       -0.2694
     17 C           5.1521    0.1445   25.4424 C.ar    1  UNL1        0.0830
     18 C           3.6921   -0.0549   25.7234 C.ar    1  UNL1        0.0115
     19 C           3.0916   -0.7856   24.5592 C.ar    1  UNL1        0.0071
     20 C           4.1803   -1.0378   23.5587 C.ar    1  UNL1        0.0296
     21 S           5.4537   -0.4629   24.1045 S.2     1  UNL1       -0.0824
     22 C           4.0232   -1.7414   22.2432 C.ar    1  UNL1        0.0060
     23 C           3.1724   -1.1365   21.1661 C.ar    1  UNL1        0.0005
     24 C           3.0153   -1.8400   19.8507 C.ar    1  UNL1        0.0000
     25 C           3.7090   -3.1485   19.6124 C.ar    1  UNL1        0.0000
     26 C           4.5598   -3.7534   20.6895 C.ar    1  UNL1        0.0000
     27 C           4.7168   -3.0498   22.0049 C.ar    1  UNL1        0.0005
     28 N           9.3560   -3.4451   21.6555 N.3     1  UNL1       -0.2982
     29 H           9.8707   -4.0503   21.0158 H       1  UNL1        0.1232
     30 C           8.4627   -2.5840   20.8124 C.3     1  UNL1        0.0540
     31 C           8.0907   -3.0205   19.4264 C.3     1  UNL1        0.0157
     32 C           7.1975   -2.1595   18.5834 C.3     1  UNL1        0.0014
     33 C           6.6763   -0.8620   19.1263 C.3     1  UNL1        0.0001
     34 C           5.9367    0.4412   19.1963 C.3     1  UNL1        0.0000
     35 C           6.0473   -0.8459   17.7646 C.3     1  UNL1        0.0000
     36 C           7.0484   -0.4254   20.5123 C.3     1  UNL1        0.0014
     37 C           7.9416   -1.2865   21.3553 C.3     1  UNL1        0.0157
@<TRIPOS>BOND
     1    13    14    1
     2    14    15   am
     3    15    16    2
     4    15    17    1
     5    17    18   ar
     6    18    19   ar
     7    19    20   ar
     8    20    22    1
     9    22    23   ar
    10    23    24   ar
    11    24    25   ar
    12    25    26   ar
    13    26    27   ar
    14    20    21   ar
    15     1    14    1
    16     1     2    1
    17     2     3    1
    18     3     4    1
    19     4     5   am
    20     5     6    2
    21     5     7   am
    22     7     8    1
    23     8     9    1
    24     9    10    1
    25    10    28    1
    26    28    30    1
    27    30    31    1
    28    31    32    1
    29    32    33    1
    30    33    34    1
    31    33    35    1
    32    33    36    1
    33    36    37    1
    34    10    11    1
    35     4    12    1
    36    21    17   ar
    37    12     1    1
    38    27    22   ar
    39    11     7    1
    40    37    30    1
    41    28    29    1
@<TRIPOS>MOLECULE
*****
 37 41 0 0 0
SMALL
GASTEIGER

@<TRIPOS>ATOM
      1 C           2.4875    0.8820   25.7512 C.3     1  UNL1        0.0972
      2 C           3.1037    1.4395   27.0000 C.3     1  UNL1        0.0431
      3 C           4.3708    0.6833   27.2692 C.3     1  UNL1        0.0968
      4 N           4.5378   -0.3416   26.1867 N.am    1  UNL1       -0.2623
      5 C           5.6699   -1.3179   26.0640 C.2     1  UNL1        0.3073
      6 O           6.7696   -1.3233   27.0841 O.2     1  UNL1       -0.2523
      7 N           5.7024   -2.2889   24.9211 N.am    1  UNL1       -0.2626
      8 C           6.7639   -3.3182   24.6685 C.3     1  UNL1        0.0964
      9 C           6.3966   -4.0665   23.4214 C.3     1  UNL1        0.0390
     10 C           5.1080   -3.4997   22.9033 C.3     1  UNL1        0.0758
     11 C           4.6790   -2.4011   23.8302 C.3     1  UNL1        0.1106
     12 C           3.3738   -0.2188   25.2485 C.3     1  UNL1        0.1147
     13 C          -0.1023    1.0843   25.7961 C.3     1  UNL1        0.1152
     14 N           1.2094    1.3441   25.1165 N.am    1  UNL1       -0.2738
     15 C           1.2430    2.0662   23.8021 C.2     1  UNL1        0.2551
     16 O          -0.0351    2.5283   23.1673 O.2     1  UNL1       -0.2694
     17 C           2.5547    2.3260   23.1224 C.ar    1  UNL1        0.0830
     18 C           3.4922    3.4588   23.4189 C.ar    1  UNL1        0.0115
     19 C           4.6761    3.3316   22.5067 C.ar    1  UNL1        0.0071
     20 C           4.4703    2.1201   21.6464 C.ar    1  UNL1        0.0296
     21 S           3.1592    1.4987   22.0270 S.2     1  UNL1       -0.0824
     22 C           5.4106    1.6182   20.5909 C.ar    1  UNL1        0.0060
     23 C           5.5360    2.3512   19.2883 C.ar    1  UNL1        0.0005
     24 C           6.4762    1.8493   18.2328 C.ar    1  UNL1        0.0000
     25 C           7.2910    0.6144   18.4800 C.ar    1  UNL1        0.0000
     26 C           7.1656   -0.1186   19.7826 C.ar    1  UNL1        0.0000
     27 C           6.2254    0.3833   20.8381 C.ar    1  UNL1        0.0005
     28 N           4.3769   -3.9521   21.6742 N.3     1  UNL1       -0.2982
     29 H           3.4523   -4.2582   21.9774 H       1  UNL1        0.1232
     30 C           4.1656   -3.0003   20.5342 C.3     1  UNL1        0.0540
     31 C           4.9729   -3.1434   19.2783 C.3     1  UNL1        0.0157
     32 C           4.7617   -2.1916   18.1383 C.3     1  UNL1        0.0014
     33 C           3.7430   -1.0967   18.2545 C.3     1  UNL1        0.0001
     34 C           2.9035    0.0919   17.8904 C.3     1  UNL1        0.0000
     35 C           4.2589   -0.8270   16.8719 C.3     1  UNL1        0.0000
     36 C           2.9356   -0.9536   19.5105 C.3     1  UNL1        0.0014
     37 C           3.1469   -1.9054   20.6504 C.3     1  UNL1        0.0157
@<TRIPOS>BOND
     1    13    14    1
     2    14    15   am
     3    15    16    2
     4    15    17    1
     5    17    18   ar
     6    18    19   ar
     7    19    20   ar
     8    20    22    1
     9    22    23   ar
    10    23    24   ar
    11    24    25   ar
    12    25    26   ar
    13    26    27   ar
    14    20    21   ar
    15     1    14    1
    16     1     2    1
    17     2     3    1
    18     3     4    1
    19     4     5   am
    20     5     6    2
    21     5     7   am
    22     7     8    1
    23     8     9    1
    24     9    10    1
    25    10    28    1
    26    28    30    1
    27    30    31    1
    28    31    32    1
    29    32    33    1
    30    33    34    1
    31    33    35    1
    32    33    36    1
    33    36    37    1
    34    10    11    1
    35     4    12    1
    36    21    17   ar
    37    12     1    1
    38    27    22   ar
    39    11     7    1
    40    37    30    1
    41    28    29    1
@<TRIPOS>MOLECULE
*****
 37 41 0 0 0
SMALL
GASTEIGER

@<TRIPOS>ATOM
      1 C           5.1288    4.6288   18.2014 C.3     1  UNL1        0.0972
      2 C           4.4238    5.2695   17.0428 C.3     1  UNL1        0.0431
      3 C           2.9624    4.9512   17.1560 C.3     1  UNL1        0.0968
      4 N           2.7642    4.1137   18.3845 N.am    1  UNL1       -0.2623
      5 C           1.4566    3.5707   18.8799 C.2     1  UNL1        0.3073
      6 O           0.1923    3.8541   18.1243 O.2     1  UNL1       -0.2523
      7 N           1.4135    2.7443   20.1311 N.am    1  UNL1       -0.2626
      8 C           0.1868    2.1374   20.7449 C.3     1  UNL1        0.0964
      9 C           0.6045    1.3977   21.9812 C.3     1  UNL1        0.0390
     10 C           2.0895    1.5476   22.1314 C.3     1  UNL1        0.0758
     11 C           2.5894    2.3798   20.9880 C.3     1  UNL1        0.1106
     12 C           4.1032    3.9144   19.0307 C.3     1  UNL1        0.1147
     13 C           7.2284    5.9842   18.9120 C.3     1  UNL1        0.1152
     14 N           6.6012    4.6914   18.4816 N.am    1  UNL1       -0.2738
     15 C           7.4462    3.4612   18.3314 C.2     1  UNL1        0.2551
     16 O           8.9185    3.5238   18.6115 O.2     1  UNL1       -0.2694
     17 C           6.8190    2.1684   17.9010 C.ar    1  UNL1        0.0830
     18 C           6.6662    1.6901   16.4875 C.ar    1  UNL1        0.0115
     19 C           5.9872    0.3530   16.5215 C.ar    1  UNL1        0.0071
     20 C           5.7203    0.0049   17.9559 C.ar    1  UNL1        0.0296
     21 S           6.2344    1.1269   18.8085 S.2     1  UNL1       -0.0824
     22 C           5.0560   -1.2456   18.4509 C.ar    1  UNL1        0.0060
     23 C           5.6994   -2.5800   18.2160 C.ar    1  UNL1        0.0005
     24 C           5.0350   -3.8304   18.7110 C.ar    1  UNL1        0.0000
     25 C           3.7273   -3.7464   19.4409 C.ar    1  UNL1        0.0000
     26 C           3.0839   -2.4120   19.6759 C.ar    1  UNL1        0.0000
     27 C           3.7483   -1.1615   19.1809 C.ar    1  UNL1        0.0005
     28 N           2.9273    0.9671   23.2319 N.3     1  UNL1       -0.2982
     29 H           2.2821    0.6212   23.9421 H       1  UNL1        0.1232
     30 C           3.8849   -0.1492   22.9363 C.3     1  UNL1        0.0540
     31 C           5.2112    0.1487   22.3023 C.3     1  UNL1        0.0157
     32 C           6.1687   -0.9674   22.0067 C.3     1  UNL1        0.0014
     33 C           5.7999   -2.3814   22.3453 C.3     1  UNL1        0.0001
     34 C           5.9043   -3.8718   22.4798 C.3     1  UNL1        0.0000
     35 C           7.1626   -2.6012   21.7579 C.3     1  UNL1        0.0000
     36 C           4.4735   -2.6793   22.9794 C.3     1  UNL1        0.0014
     37 C           3.5161   -1.5631   23.2749 C.3     1  UNL1        0.0157
@<TRIPOS>BOND
     1    13    14    1
     2    14    15   am
     3    15    16    2
     4    15    17    1
     5    17    18   ar
     6    18    19   ar
     7    19    20   ar
     8    20    22    1
     9    22    23   ar
    10    23    24   ar
    11    24    25   ar
    12    25    26   ar
    13    26    27   ar
    14    20    21   ar
    15     1    14    1
    16     1     2    1
    17     2     3    1
    18     3     4    1
    19     4     5   am
    20     5     6    2
    21     5     7   am
    22     7     8    1
    23     8     9    1
    24     9    10    1
    25    10    28    1
    26    28    30    1
    27    30    31    1
    28    31    32    1
    29    32    33    1
    30    33    34    1
    31    33    35    1
    32    33    36    1
    33    36    37    1
    34    10    11    1
    35     4    12    1
    36    21    17   ar
    37    12     1    1
    38    27    22   ar
    39    11     7    1
    40    37    30    1
    41    28    29    1
@<TRIPOS>MOLECULE
*****
 37 41 0 0 0
SMALL
GASTEIGER

@<TRIPOS>ATOM
      1 C           2.5727    3.3274   24.8409 C.3     1  UNL1        0.0972
      2 C           1.2843    3.3837   25.6070 C.3     1  UNL1        0.0431
      3 C           0.1582    3.1930   24.6348 C.3     1  UNL1        0.0968
      4 N           0.7505    3.0188   23.2678 N.am    1  UNL1       -0.2623
      5 C          -0.0150    2.8000   21.9965 C.2     1  UNL1        0.3073
      6 O          -1.5134    2.7393   22.0243 O.2     1  UNL1       -0.2523
      7 N           0.7181    2.6418   20.6974 N.am    1  UNL1       -0.2626
      8 C           0.0915    2.4183   19.3530 C.3     1  UNL1        0.0964
      9 C           1.1925    2.3178   18.3392 C.3     1  UNL1        0.0390
     10 C           2.4996    2.4791   19.0572 C.3     1  UNL1        0.0758
     11 C           2.2064    2.6794   20.5145 C.3     1  UNL1        0.1106
     12 C           2.2429    3.1019   23.3952 C.3     1  UNL1        0.1147
     13 C           4.3986    4.7939   25.9659 C.3     1  UNL1        0.1152
     14 N           3.9493    3.4714   25.4191 N.am    1  UNL1       -0.2738
     15 C           4.8766    2.2928   25.4505 C.2     1  UNL1        0.2551
     16 O           6.2532    2.4367   26.0287 O.2     1  UNL1       -0.2694
     17 C           4.4274    0.9702   24.9038 C.ar    1  UNL1        0.0830
     18 C           3.8437   -0.1602   25.6986 C.ar    1  UNL1        0.0115
     19 C           3.5385   -1.2832   24.7522 C.ar    1  UNL1        0.0071
     20 C           3.9334   -0.8469   23.3725 C.ar    1  UNL1        0.0296
     21 S           4.4828    0.5457   23.4662 S.2     1  UNL1       -0.0824
     22 C           3.8021   -1.6605   22.1191 C.ar    1  UNL1        0.0060
     23 C           4.5196   -2.9721   21.9977 C.ar    1  UNL1        0.0005
     24 C           4.3883   -3.7856   20.7444 C.ar    1  UNL1        0.0000
     25 C           3.5394   -3.2875   19.6124 C.ar    1  UNL1        0.0000
     26 C           2.8219   -1.9758   19.7338 C.ar    1  UNL1        0.0000
     27 C           2.9533   -1.1624   20.9871 C.ar    1  UNL1        0.0005
     28 N           3.8610    2.4461   18.4281 N.3     1  UNL1       -0.2982
     29 H           4.3761    3.2446   18.7987 H       1  UNL1        0.1232
     30 C           4.7401    1.2436   18.6055 C.3     1  UNL1        0.0540
     31 C           5.5579    1.0900   19.8534 C.3     1  UNL1        0.0157
     32 C           6.4370   -0.1123   20.0308 C.3     1  UNL1        0.0014
     33 C           6.4983   -1.1611   18.9602 C.3     1  UNL1        0.0001
     34 C           6.8910   -2.4145   18.2356 C.3     1  UNL1        0.0000
     35 C           7.4525   -1.7500   19.9566 C.3     1  UNL1        0.0000
     36 C           5.6804   -1.0075   17.7122 C.3     1  UNL1        0.0014
     37 C           4.8014    0.1948   17.5349 C.3     1  UNL1        0.0157
@<TRIPOS>BOND
     1    13    14    1
     2    14    15   am
     3    15    16    2
     4    15    17    1
     5    17    18   ar
     6    18    19   ar
     7    19    20   ar
     8    20    22    1
     9    22    23   ar
    10    23    24   ar
    11    24    25   ar
    12    25    26   ar
    13    26    27   ar
    14    20    21   ar
    15     1    14    1
    16     1     2    1
    17     2     3    1
    18     3     4    1
    19     4     5   am
    20     5     6    2
    21     5     7   am
    22     7     8    1
    23     8     9    1
    24     9    10    1
    25    10    28    1
    26    28    30    1
    27    30    31    1
    28    31    32    1
    29    32    33    1
    30    33    34    1
    31    33    35    1
    32    33    36    1
    33    36    37    1
    34    10    11    1
    35     4    12    1
    36    21    17   ar
    37    12     1    1
    38    27    22   ar
    39    11     7    1
    40    37    30    1
    41    28    29    1
@<TRIPOS>MOLECULE
*****
 37 41 0 0 0
SMALL
GASTEIGER

@<TRIPOS>ATOM
      1 C           3.2561    0.9859   26.1709 C.3     1  UNL1        0.0972
      2 C           3.3812    2.1060   27.1606 C.3     1  UNL1        0.0431
      3 C           2.5420    3.2501   26.6743 C.3     1  UNL1        0.0968
      4 N           1.8982    2.8372   25.3840 N.am    1  UNL1       -0.2623
      5 C           0.9752    3.6763   24.5510 C.2     1  UNL1        0.3073
      6 O           0.6220    5.0659   24.9916 O.2     1  UNL1       -0.2523
      7 N           0.4053    3.1257   23.2773 N.am    1  UNL1       -0.2626
      8 C          -0.5258    3.8431   22.3454 C.3     1  UNL1        0.0964
      9 C          -0.8401    2.9220   21.2041 C.3     1  UNL1        0.0390
     10 C          -0.1032    1.6352   21.4306 C.3     1  UNL1        0.0758
     11 C           0.6664    1.7611   22.7119 C.3     1  UNL1        0.1106
     12 C           2.3396    1.4377   25.0728 C.3     1  UNL1        0.1147
     13 C           3.4965   -1.3388   27.3060 C.3     1  UNL1        0.1152
     14 N           3.9293   -0.3515   26.2631 N.am    1  UNL1       -0.2738
     15 C           5.0355   -0.7014   25.3122 C.2     1  UNL1        0.2551
     16 O           5.7087   -2.0386   25.4043 O.2     1  UNL1       -0.2694
     17 C           5.4683    0.2860   24.2693 C.ar    1  UNL1        0.0830
     18 C           6.4707    1.3858   24.4584 C.ar    1  UNL1        0.0115
     19 C           6.5967    2.1264   23.1601 C.ar    1  UNL1        0.0071
     20 C           5.6723    1.4843   22.1685 C.ar    1  UNL1        0.0296
     21 S           4.9749    0.3469   22.8541 S.2     1  UNL1       -0.0824
     22 C           5.4791    1.9057   20.7419 C.ar    1  UNL1        0.0060
     23 C           4.2167    2.6035   20.3304 C.ar    1  UNL1        0.0005
     24 C           4.0236    3.0248   18.9038 C.ar    1  UNL1        0.0000
     25 C           5.0928    2.7483   17.8888 C.ar    1  UNL1        0.0000
     26 C           6.3552    2.0505   18.3003 C.ar    1  UNL1        0.0000
     27 C           6.5483    1.6292   19.7269 C.ar    1  UNL1        0.0005
     28 N          -0.1312    0.4334   20.5334 N.3     1  UNL1       -0.2982
     29 H          -0.8263    0.6214   19.8110 H       1  UNL1        0.1232
     30 C           1.1181   -0.0055   19.8285 C.3     1  UNL1        0.0540
     31 C           2.0971   -0.9025   20.5261 C.3     1  UNL1        0.0157
     32 C           3.3463   -1.3414   19.8213 C.3     1  UNL1        0.0014
     33 C           3.6165   -0.8832   18.4188 C.3     1  UNL1        0.0001
     34 C           4.3105   -0.7165   17.0994 C.3     1  UNL1        0.0000
     35 C           4.8366   -1.7224   18.6583 C.3     1  UNL1        0.0000
     36 C           2.6375    0.0139   17.7211 C.3     1  UNL1        0.0014
     37 C           1.3883    0.4528   18.4260 C.3     1  UNL1        0.0157
@<TRIPOS>BOND
     1    13    14    1
     2    14    15   am
     3    15    16    2
     4    15    17    1
     5    17    18   ar
     6    18    19   ar
     7    19    20   ar
     8    20    22    1
     9    22    23   ar
    10    23    24   ar
    11    24    25   ar
    12    25    26   ar
    13    26    27   ar
    14    20    21   ar
    15     1    14    1
    16     1     2    1
    17     2     3    1
    18     3     4    1
    19     4     5   am
    20     5     6    2
    21     5     7   am
    22     7     8    1
    23     8     9    1
    24     9    10    1
    25    10    28    1
    26    28    30    1
    27    30    31    1
    28    31    32    1
    29    32    33    1
    30    33    34    1
    31    33    35    1
    32    33    36    1
    33    36    37    1
    34    10    11    1
    35     4    12    1
    36    21    17   ar
    37    12     1    1
    38    27    22   ar
    39    11     7    1
    40    37    30    1
    41    28    29    1
@<TRIPOS>MOLECULE
*****
 37 41 0 0 0
SMALL
GASTEIGER

@<TRIPOS>ATOM
      1 C           1.9089    3.6138   21.3459 C.3     1  UNL1        0.0972
      2 C           1.0108    4.3899   20.4289 C.3     1  UNL1        0.0431
      3 C           1.7617    4.6519   19.1571 C.3     1  UNL1        0.0968
      4 N           3.1239    4.0377   19.2882 N.am    1  UNL1       -0.2623
      5 C           4.2053    4.0611   18.2489 C.2     1  UNL1        0.3073
      6 O           3.9682    4.7449   16.9351 O.2     1  UNL1       -0.2523
      7 N           5.5238    3.4006   18.5235 N.am    1  UNL1       -0.2626
      8 C           6.6931    3.3426   17.5858 C.3     1  UNL1        0.0964
      9 C           7.7965    2.5883   18.2668 C.3     1  UNL1        0.0390
     10 C           7.3090    2.1800   19.6254 C.3     1  UNL1        0.0758
     11 C           5.9044    2.6820   19.7840 C.3     1  UNL1        0.1106
     12 C           3.2149    3.3961   20.6410 C.3     1  UNL1        0.1147
     13 C           1.4080    4.1278   23.8430 C.3     1  UNL1        0.1152
     14 N           1.5619    3.1387   22.7258 N.am    1  UNL1       -0.2738
     15 C           1.3689    1.6745   22.9885 C.2     1  UNL1        0.2551
     16 O           1.0219    1.1994   24.3683 O.2     1  UNL1       -0.2694
     17 C           1.5228    0.6855   21.8714 C.ar    1  UNL1        0.0830
     18 C           0.4417    0.2426   20.9305 C.ar    1  UNL1        0.0115
     19 C           1.0356   -0.7510   19.9766 C.ar    1  UNL1        0.0071
     20 C           2.4838   -0.9222   20.3278 C.ar    1  UNL1        0.0296
     21 S           2.7849   -0.0344   21.4988 S.2     1  UNL1       -0.0824
     22 C           3.4597   -1.8231   19.6304 C.ar    1  UNL1        0.0060
     23 C           4.5860   -1.2348   18.8333 C.ar    1  UNL1        0.0005
     24 C           5.5617   -2.1357   18.1360 C.ar    1  UNL1        0.0000
     25 C           5.4112   -3.6248   18.2358 C.ar    1  UNL1        0.0000
     26 C           4.2850   -4.2130   19.0329 C.ar    1  UNL1        0.0000
     27 C           3.3092   -3.3122   19.7302 C.ar    1  UNL1        0.0005
     28 N           8.0891    1.4057   20.6461 N.3     1  UNL1       -0.2982
     29 H           7.9871    1.9006   21.5321 H       1  UNL1        0.1232
     30 C           7.7556   -0.0324   20.9123 C.3     1  UNL1        0.0540
     31 C           8.5685   -1.1208   20.2765 C.3     1  UNL1        0.0157
     32 C           8.2350   -2.5589   20.5427 C.3     1  UNL1        0.0014
     33 C           7.0885   -2.9083   21.4446 C.3     1  UNL1        0.0001
     34 C           6.1058   -3.7357   22.2192 C.3     1  UNL1        0.0000
     35 C           7.5602   -4.2843   21.0778 C.3     1  UNL1        0.0000
     36 C           6.2756   -1.8198   22.0804 C.3     1  UNL1        0.0014
     37 C           6.6091   -0.3818   21.8142 C.3     1  UNL1        0.0157
@<TRIPOS>BOND
     1    13    14    1
     2    14    15   am
     3    15    16    2
     4    15    17    1
     5    17    18   ar
     6    18    19   ar
     7    19    20   ar
     8    20    22    1
     9    22    23   ar
    10    23    24   ar
    11    24    25   ar
    12    25    26   ar
    13    26    27   ar
    14    20    21   ar
    15     1    14    1
    16     1     2    1
    17     2     3    1
    18     3     4    1
    19     4     5   am
    20     5     6    2
    21     5     7   am
    22     7     8    1
    23     8     9    1
    24     9    10    1
    25    10    28    1
    26    28    30    1
    27    30    31    1
    28    31    32    1
    29    32    33    1
    30    33    34    1
    31    33    35    1
    32    33    36    1
    33    36    37    1
    34    10    11    1
    35     4    12    1
    36    21    17   ar
    37    12     1    1
    38    27    22   ar
    39    11     7    1
    40    37    30    1
    41    28    29    1
@<TRIPOS>MOLECULE
*****
 37 41 0 0 0
SMALL
GASTEIGER

@<TRIPOS>ATOM
      1 C           6.4067   -0.7129   31.0734 C.3     1  UNL1        0.0972
      2 C           6.9420    0.6061   31.5465 C.3     1  UNL1        0.0431
      3 C           7.3783    1.3877   30.3430 C.3     1  UNL1        0.0968
      4 N           7.1128    0.5519   29.1261 N.am    1  UNL1       -0.2623
      5 C           7.3977    0.9453   27.7069 C.2     1  UNL1        0.3073
      6 O           8.0038    2.2842   27.4070 O.2     1  UNL1       -0.2523
      7 N           7.0766   -0.0003   26.5876 N.am    1  UNL1       -0.2626
      8 C           7.3041    0.2530   25.1268 C.3     1  UNL1        0.0964
      9 C           6.8397   -0.9553   24.3689 C.3     1  UNL1        0.0390
     10 C           6.3253   -1.9555   25.3615 C.3     1  UNL1        0.0758
     11 C           6.4717   -1.3653   26.7327 C.3     1  UNL1        0.1106
     12 C           6.5122   -0.7465   29.5775 C.3     1  UNL1        0.1147
     13 C           6.7494   -2.9370   32.3720 C.3     1  UNL1        0.1152
     14 N           5.8615   -1.8065   31.9435 N.am    1  UNL1       -0.2738
     15 C           4.4284   -1.7695   32.3851 C.2     1  UNL1        0.2551
     16 O           3.8833   -2.8629   33.2552 O.2     1  UNL1       -0.2694
     17 C           3.5406   -0.6390   31.9566 C.ar    1  UNL1        0.0830
     18 C           3.3022    0.6320   32.7170 C.ar    1  UNL1        0.0115
     19 C           2.3495    1.4755   31.9228 C.ar    1  UNL1        0.0071
     20 C           1.9990    0.7260   30.6717 C.ar    1  UNL1        0.0296
     21 S           2.7351   -0.5808   30.6926 S.2     1  UNL1       -0.0824
     22 C           1.0746    1.2001   29.5895 C.ar    1  UNL1        0.0060
     23 C           1.2425    2.5723   29.0076 C.ar    1  UNL1        0.0005
     24 C           0.3182    3.0463   27.9256 C.ar    1  UNL1        0.0000
     25 C          -0.7740    2.1480   27.4254 C.ar    1  UNL1        0.0000
     26 C          -0.9419    0.7757   28.0073 C.ar    1  UNL1        0.0000
     27 C          -0.0175    0.3018   29.0893 C.ar    1  UNL1        0.0005
     28 N           5.7632   -3.3084   25.0393 N.3     1  UNL1       -0.2982
     29 H           5.2913   -3.2244   24.1390 H       1  UNL1        0.1232
     30 C           6.6750   -4.4955   24.9412 C.3     1  UNL1        0.0540
     31 C           6.9005   -5.3689   26.1396 C.3     1  UNL1        0.0157
     32 C           7.8122   -6.5560   26.0415 C.3     1  UNL1        0.0014
     33 C           8.4985   -6.8695   24.7451 C.3     1  UNL1        0.0001
     34 C           9.3680   -7.5710   23.7441 C.3     1  UNL1        0.0000
     35 C           9.0260   -7.9867   25.5959 C.3     1  UNL1        0.0000
     36 C           8.2730   -5.9959   23.5467 C.3     1  UNL1        0.0014
     37 C           7.3613   -4.8090   23.6448 C.3     1  UNL1        0.0157
@<TRIPOS>BOND
     1    13    14    1
     2    14    15   am
     3    15    16    2
     4    15    17    1
     5    17    18   ar
     6    18    19   ar
     7    19    20   ar
     8    20    22    1
     9    22    23   ar
    10    23    24   ar
    11    24    25   ar
    12    25    26   ar
    13    26    27   ar
    14    20    21   ar
    15     1    14    1
    16     1     2    1
    17     2     3    1
    18     3     4    1
    19     4     5   am
    20     5     6    2
    21     5     7   am
    22     7     8    1
    23     8     9    1
    24     9    10    1
    25    10    28    1
    26    28    30    1
    27    30    31    1
    28    31    32    1
    29    32    33    1
    30    33    34    1
    31    33    35    1
    32    33    36    1
    33    36    37    1
    34    10    11    1
    35     4    12    1
    36    21    17   ar
    37    12     1    1
    38    27    22   ar
    39    11     7    1
    40    37    30    1
    41    28    29    1
@<TRIPOS>MOLECULE
*****
 37 41 0 0 0
SMALL
GASTEIGER

@<TRIPOS>ATOM
      1 C           4.6168   -0.2890   18.5884 C.3     1  UNL1        0.0972
      2 C           4.2769   -1.5343   17.8244 C.3     1  UNL1        0.0431
      3 C           4.2739   -2.6833   18.7885 C.3     1  UNL1        0.0968
      4 N           4.6119   -2.1482   20.1484 N.am    1  UNL1       -0.2623
      5 C           4.7192   -2.9518   21.4105 C.2     1  UNL1        0.3073
      6 O           4.4785   -4.4320   21.3799 O.2     1  UNL1       -0.2523
      7 N           5.0672   -2.2751   22.7032 N.am    1  UNL1       -0.2626
      8 C           5.2095   -2.9441   24.0382 C.3     1  UNL1        0.0964
      9 C           5.5643   -1.8931   25.0479 C.3     1  UNL1        0.0390
     10 C           5.6413   -0.5745   24.3369 C.3     1  UNL1        0.0758
     11 C           5.3341   -0.8106   22.8878 C.3     1  UNL1        0.1106
     12 C           4.8239   -0.6683   20.0247 C.3     1  UNL1        0.1147
     13 C           5.8813    1.4423   17.1208 C.3     1  UNL1        0.1152
     14 N           4.7298    1.0931   18.0164 N.am    1  UNL1       -0.2738
     15 C           3.6913    2.1260   18.3401 C.2     1  UNL1        0.2551
     16 O           3.8043    3.5080   17.7681 O.2     1  UNL1       -0.2694
     17 C           2.5399    1.7767   19.2357 C.ar    1  UNL1        0.0830
     18 C           1.3743    0.9046   18.8738 C.ar    1  UNL1        0.0115
     19 C           0.4658    0.8272   20.0649 C.ar    1  UNL1        0.0071
     20 C           1.0699    1.6515   21.1629 C.ar    1  UNL1        0.0296
     21 S           2.3517    2.2383   20.6504 S.2     1  UNL1       -0.0824
     22 C           0.4934    1.8535   22.5329 C.ar    1  UNL1        0.0060
     23 C          -0.5008    2.9504   22.7740 C.ar    1  UNL1        0.0005
     24 C          -1.0773    3.1524   24.1440 C.ar    1  UNL1        0.0000
     25 C          -0.6595    2.2573   25.2729 C.ar    1  UNL1        0.0000
     26 C           0.3347    1.1604   25.0318 C.ar    1  UNL1        0.0000
     27 C           0.9111    0.9584   23.6618 C.ar    1  UNL1        0.0005
     28 N           5.9682    0.7480   24.9648 N.3     1  UNL1       -0.2982
     29 H           6.7423    1.1438   24.4315 H       1  UNL1        0.1232
     30 C           4.9170    1.8140   25.0584 C.3     1  UNL1        0.0540
     31 C           4.2212    2.0687   26.3626 C.3     1  UNL1        0.0157
     32 C           3.1700    3.1347   26.4562 C.3     1  UNL1        0.0014
     33 C           2.8148    3.9460   25.2456 C.3     1  UNL1        0.0001
     34 C           2.1359    4.9692   24.3841 C.3     1  UNL1        0.0000
     35 C           1.8831    4.5560   26.2507 C.3     1  UNL1        0.0000
     36 C           3.5106    3.6913   23.9414 C.3     1  UNL1        0.0014
     37 C           4.5617    2.6254   23.8479 C.3     1  UNL1        0.0157
@<TRIPOS>BOND
     1    13    14    1
     2    14    15   am
     3    15    16    2
     4    15    17    1
     5    17    18   ar
     6    18    19   ar
     7    19    20   ar
     8    20    22    1
     9    22    23   ar
    10    23    24   ar
    11    24    25   ar
    12    25    26   ar
    13    26    27   ar
    14    20    21   ar
    15     1    14    1
    16     1     2    1
    17     2     3    1
    18     3     4    1
    19     4     5   am
    20     5     6    2
    21     5     7   am
    22     7     8    1
    23     8     9    1
    24     9    10    1
    25    10    28    1
    26    28    30    1
    27    30    31    1
    28    31    32    1
    29    32    33    1
    30    33    34    1
    31    33    35    1
    32    33    36    1
    33    36    37    1
    34    10    11    1
    35     4    12    1
    36    21    17   ar
    37    12     1    1
    38    27    22   ar
    39    11     7    1
    40    37    30    1
    41    28    29    1
