@<TRIPOS>MOLECULE
*****
 42 45 0 0 0
SMALL
GASTEIGER

@<TRIPOS>ATOM
      1 C           0.7339    3.2007   18.9091 C.3     1  UNL1        0.0959
      2 C          -0.3535    3.2335   17.8764 C.3     1  UNL1        0.1163
      3 N          -1.5541    3.8927   18.4883 N.am    1  UNL1       -0.2442
      4 C          -2.8692    4.1347   17.8087 C.2     1  UNL1        0.4047
      5 O          -3.0691    3.7026   16.3863 O.2     1  UNL1       -0.2262
      6 C          -1.2086    4.2671   19.8991 C.3     1  UNL1        0.0998
      7 C           0.2055    3.8395   20.1591 C.3     1  UNL1        0.0556
      8 N           3.7691    0.6440   18.9501 N.am    1  UNL1       -0.2485
      9 C           2.3946    1.2154   19.1351 C.2     1  UNL1        0.3059
     10 O           1.3061    0.3728   19.7311 O.2     1  UNL1       -0.2524
     11 N           2.1084    2.6293   18.7241 N.am    1  UNL1       -0.2885
     12 H           4.4835    1.1971   18.5589 H       1  UNL1        0.1583
     13 H           2.8228    3.1824   18.3329 H       1  UNL1        0.1510
     14 C           4.8531   -2.6960   20.6038 C.ar    1  UNL1        0.0803
     15 S           4.8020   -1.1969   20.5899 S.2     1  UNL1       -0.0488
     16 C           4.0552   -0.7698   19.3611 C.ar    1  UNL1        0.1664
     17 N           3.6446   -2.0050   18.6155 N.ar    1  UNL1       -0.2282
     18 C           4.1378   -3.1954   19.3835 C.ar    1  UNL1        0.0701
     19 C           3.9488   -4.6329   18.9989 C.3     1  UNL1        0.0528
     20 C           4.9873   -3.5280   23.0613 C.3     1  UNL1        0.0779
     21 C           5.5050   -3.5462   21.6535 C.2     1  UNL1        0.1807
     22 O           6.6744   -4.4146   21.2956 O.2     1  UNL1       -0.2908
     23 O          -3.9843    4.8090   18.5514 O.3     1  UNL1       -0.4418
     24 C          -5.3073    4.1192   18.7060 C.3     1  UNL1        0.1378
     25 C          -5.8529    4.9071   17.5520 C.3     1  UNL1        0.0437
     26 C          -4.7616    3.3313   19.8599 C.3     1  UNL1        0.0437
     27 C          -6.6302    3.4293   18.8606 C.3     1  UNL1        0.0437
     28 C           0.9588    4.0191   21.4437 C.3     1  UNL1        0.0755
     29 N           0.5743    3.2240   22.6562 N.3     1  UNL1       -0.2726
     30 C           1.1848    1.8745   22.8927 C.3     1  UNL1        0.0721
     31 C           0.8003    1.0795   24.1052 C.3     1  UNL1        0.0174
     32 C          -0.1948    1.6341   25.0811 C.3     1  UNL1        0.0031
     33 C          -0.8053    2.9836   24.8445 C.3     1  UNL1        0.0204
     34 C          -0.4207    3.7786   23.6321 C.3     1  UNL1        0.0724
     35 C          -1.8004    3.5381   25.8204 C.3     1  UNL1        0.0277
     36 C          -3.2145    3.7897   25.3883 C.ar    1  UNL1       -0.0220
     37 C          -3.6996    3.2677   24.0683 C.ar    1  UNL1       -0.0020
     38 C          -5.1138    3.5193   23.6362 C.ar    1  UNL1        0.0293
     39 C          -6.0429    4.2929   24.5240 C.ar    1  UNL1        0.1401
     40 F          -7.4572    4.5445   24.0918 F       1  UNL1       -0.2042
     41 C          -5.5579    4.8150   25.8438 C.ar    1  UNL1        0.0293
     42 C          -4.1437    4.5634   26.2760 C.ar    1  UNL1       -0.0020
@<TRIPOS>BOND
     1    20    21    1
     2    21    22    2
     3    21    14    1
     4    14    15   ar
     5    15    16   ar
     6    16     8    1
     7     8     9   am
     8     9    10    2
     9     9    11   am
    10     1    11    1
    11     1     2    1
    12     2     3    1
    13     3     4   am
    14     4     5    2
    15     4    23    1
    16    23    24    1
    17    24    25    1
    18    24    26    1
    19    24    27    1
    20     3     6    1
    21     6     7    1
    22     7    28    1
    23    28    29    1
    24    29    30    1
    25    30    31    1
    26    31    32    1
    27    32    33    1
    28    33    35    1
    29    35    36    1
    30    36    37   ar
    31    37    38   ar
    32    38    39   ar
    33    39    40    1
    34    39    41   ar
    35    41    42   ar
    36    33    34    1
    37    16    17   ar
    38    17    18   ar
    39    18    19    1
    40    18    14   ar
    41     7     1    1
    42    34    29    1
    43    42    36   ar
    44     8    12    1
    45    11    13    1
@<TRIPOS>MOLECULE
*****
 42 45 0 0 0
SMALL
GASTEIGER

@<TRIPOS>ATOM
      1 C           6.6979   -2.3479   28.5869 C.3     1  UNL1        0.0959
      2 C           7.0111   -3.7097   29.1323 C.3     1  UNL1        0.1163
      3 N           7.8867   -4.4162   28.1403 N.am    1  UNL1       -0.2442
      4 C           8.4377   -5.8042   28.2818 C.2     1  UNL1        0.4047
      5 O           8.1224   -6.6152   29.5037 O.2     1  UNL1       -0.2262
      6 C           8.1147   -3.4911   26.9818 C.3     1  UNL1        0.0998
      7 C           7.3800   -2.2128   27.2579 C.3     1  UNL1        0.0556
      8 N           3.6022   -0.0182   29.4469 N.am    1  UNL1       -0.2485
      9 C           4.4488   -1.0616   28.7802 C.2     1  UNL1        0.3059
     10 O           3.8930   -1.8623   27.6400 O.2     1  UNL1       -0.2524
     11 N           5.8513   -1.3045   29.2536 N.am    1  UNL1       -0.2885
     12 H           3.9670    0.5072   30.1952 H       1  UNL1        0.1583
     13 H           6.2161   -0.7791   30.0020 H       1  UNL1        0.1510
     14 C           0.3038    1.0261   27.6874 C.ar    1  UNL1        0.0803
     15 S           1.7997    1.0595   27.7932 S.2     1  UNL1       -0.0488
     16 C           2.1998    0.2246   28.9734 C.ar    1  UNL1        0.1664
     17 N           0.9511   -0.3249   29.5971 N.ar    1  UNL1       -0.2282
     18 C          -0.2206    0.1704   28.8023 C.ar    1  UNL1        0.0701
     19 C          -1.6636   -0.1360   29.0745 C.3     1  UNL1        0.0528
     20 C          -0.2207    1.5285   25.1930 C.3     1  UNL1        0.0779
     21 C          -0.5224    1.7254   26.6491 C.2     1  UNL1        0.1807
     22 O          -1.6503    2.6217   27.0669 O.2     1  UNL1       -0.2908
     23 O           9.3038   -6.3811   27.2017 O.3     1  UNL1       -0.4418
     24 C           8.6862   -6.8642   25.9230 C.3     1  UNL1        0.1378
     25 C           7.8391   -7.8303   26.6972 C.3     1  UNL1        0.0437
     26 C           9.5332   -5.8982   25.1489 C.3     1  UNL1        0.0437
     27 C           8.0685   -7.3474   24.6443 C.3     1  UNL1        0.0437
     28 C           7.3352   -1.0105   26.3621 C.3     1  UNL1        0.0755
     29 N           6.1580   -0.7919   25.4584 N.3     1  UNL1       -0.2726
     30 C           5.3668    0.4791   25.5515 C.3     1  UNL1        0.0721
     31 C           4.1898    0.6976   24.6478 C.3     1  UNL1        0.0174
     32 C           3.8039   -0.3548   23.6510 C.3     1  UNL1        0.0031
     33 C           4.5951   -1.6257   23.5579 C.3     1  UNL1        0.0204
     34 C           5.7722   -1.8443   24.4616 C.3     1  UNL1        0.0724
     35 C           4.2092   -2.6781   22.5612 C.3     1  UNL1        0.0277
     36 C           4.1398   -2.3392   21.1016 C.ar    1  UNL1       -0.0220
     37 C           3.1115   -1.3662   20.6056 C.ar    1  UNL1       -0.0020
     38 C           3.0421   -1.0273   19.1461 C.ar    1  UNL1        0.0293
     39 C           4.0010   -1.6615   18.1825 C.ar    1  UNL1        0.1401
     40 F           3.9315   -1.3225   16.7229 F       1  UNL1       -0.2042
     41 C           5.0292   -2.6344   18.6784 C.ar    1  UNL1        0.0293
     42 C           5.0986   -2.9734   20.1380 C.ar    1  UNL1       -0.0020
@<TRIPOS>BOND
     1    20    21    1
     2    21    22    2
     3    21    14    1
     4    14    15   ar
     5    15    16   ar
     6    16     8    1
     7     8     9   am
     8     9    10    2
     9     9    11   am
    10     1    11    1
    11     1     2    1
    12     2     3    1
    13     3     4   am
    14     4     5    2
    15     4    23    1
    16    23    24    1
    17    24    25    1
    18    24    26    1
    19    24    27    1
    20     3     6    1
    21     6     7    1
    22     7    28    1
    23    28    29    1
    24    29    30    1
    25    30    31    1
    26    31    32    1
    27    32    33    1
    28    33    35    1
    29    35    36    1
    30    36    37   ar
    31    37    38   ar
    32    38    39   ar
    33    39    40    1
    34    39    41   ar
    35    41    42   ar
    36    33    34    1
    37    16    17   ar
    38    17    18   ar
    39    18    19    1
    40    18    14   ar
    41     7     1    1
    42    34    29    1
    43    42    36   ar
    44     8    12    1
    45    11    13    1
@<TRIPOS>MOLECULE
*****
 42 45 0 0 0
SMALL
GASTEIGER

@<TRIPOS>ATOM
      1 C           2.3450    1.0209   19.9887 C.3     1  UNL1        0.0959
      2 C           2.8679    0.5973   18.6482 C.3     1  UNL1        0.1163
      3 N           3.5109   -0.7487   18.8056 N.am    1  UNL1       -0.2442
      4 C           4.1646   -1.5464   17.7164 C.2     1  UNL1        0.4047
      5 O           4.2145   -1.0063   16.3179 O.2     1  UNL1       -0.2262
      6 C           3.3854   -1.1570   20.2435 C.3     1  UNL1        0.0998
      7 C           2.6649   -0.0633   20.9747 C.3     1  UNL1        0.0556
      8 N          -0.5689    3.5791   20.8345 N.am    1  UNL1       -0.2485
      9 C           0.1479    2.2964   20.5329 C.2     1  UNL1        0.3059
     10 O          -0.6155    1.0066   20.4738 O.2     1  UNL1       -0.2524
     11 N           1.6282    2.3035   20.2903 N.am    1  UNL1       -0.2885
     12 H          -0.0679    4.4256   20.8733 H       1  UNL1        0.1583
     13 H           2.1293    3.1501   20.3291 H       1  UNL1        0.1510
     14 C          -4.4458    3.7341   20.7303 C.ar    1  UNL1        0.0803
     15 S          -3.1115    3.8480   20.0547 S.2     1  UNL1       -0.0488
     16 C          -2.0491    3.5719   21.0770 C.ar    1  UNL1        0.1664
     17 N          -2.7270    3.2873   22.3846 N.ar    1  UNL1       -0.2282
     18 C          -4.2082    3.3876   22.1703 C.ar    1  UNL1        0.0701
     19 C          -5.2661    3.1781   23.2129 C.3     1  UNL1        0.0528
     20 C          -6.1603    3.1178   18.8782 C.3     1  UNL1        0.0779
     21 C          -5.7830    3.9320   20.0802 C.2     1  UNL1        0.1807
     22 O          -6.7428    4.9440   20.6319 O.2     1  UNL1       -0.2908
     23 O           4.7684   -2.8842   18.0256 O.3     1  UNL1       -0.4418
     24 C           5.9538   -2.9787   18.9399 C.3     1  UNL1        0.1378
     25 C           6.6704   -1.9491   18.1173 C.3     1  UNL1        0.0437
     26 C           5.2373   -4.0083   19.7624 C.3     1  UNL1        0.0437
     27 C           7.1392   -3.0733   19.8542 C.3     1  UNL1        0.0437
     28 C           2.3240   -0.0552   22.4354 C.3     1  UNL1        0.0755
     29 N           3.0871    0.8266   23.3788 N.3     1  UNL1       -0.2726
     30 C           4.4776    1.2698   23.0323 C.3     1  UNL1        0.0721
     31 C           5.2407    2.1516   23.9757 C.3     1  UNL1        0.0174
     32 C           4.6133    2.5903   25.2656 C.3     1  UNL1        0.0031
     33 C           3.2228    2.1471   25.6122 C.3     1  UNL1        0.0204
     34 C           2.4597    1.2653   24.6688 C.3     1  UNL1        0.0724
     35 C           2.5954    2.5858   26.9021 C.3     1  UNL1        0.0277
     36 C           1.4246    1.8329   27.4608 C.ar    1  UNL1       -0.0220
     37 C           1.6497    0.5974   28.2811 C.ar    1  UNL1       -0.0020
     38 C           0.4788   -0.1555   28.8398 C.ar    1  UNL1        0.0293
     39 C          -0.9171    0.3270   28.5783 C.ar    1  UNL1        0.1401
     40 F          -2.0880   -0.4260   29.1370 F       1  UNL1       -0.2042
     41 C          -1.1423    1.5625   27.7580 C.ar    1  UNL1        0.0293
     42 C           0.0286    2.3155   27.1992 C.ar    1  UNL1       -0.0020
@<TRIPOS>BOND
     1    20    21    1
     2    21    22    2
     3    21    14    1
     4    14    15   ar
     5    15    16   ar
     6    16     8    1
     7     8     9   am
     8     9    10    2
     9     9    11   am
    10     1    11    1
    11     1     2    1
    12     2     3    1
    13     3     4   am
    14     4     5    2
    15     4    23    1
    16    23    24    1
    17    24    25    1
    18    24    26    1
    19    24    27    1
    20     3     6    1
    21     6     7    1
    22     7    28    1
    23    28    29    1
    24    29    30    1
    25    30    31    1
    26    31    32    1
    27    32    33    1
    28    33    35    1
    29    35    36    1
    30    36    37   ar
    31    37    38   ar
    32    38    39   ar
    33    39    40    1
    34    39    41   ar
    35    41    42   ar
    36    33    34    1
    37    16    17   ar
    38    17    18   ar
    39    18    19    1
    40    18    14   ar
    41     7     1    1
    42    34    29    1
    43    42    36   ar
    44     8    12    1
    45    11    13    1
@<TRIPOS>MOLECULE
*****
 42 45 0 0 0
SMALL
GASTEIGER

@<TRIPOS>ATOM
      1 C           0.8642    3.1955   18.7908 C.3     1  UNL1        0.0959
      2 C          -0.2652    3.2000   17.8037 C.3     1  UNL1        0.1163
      3 N          -1.4381    3.8812   18.4444 N.am    1  UNL1       -0.2442
      4 C          -2.7799    4.1064   17.8129 C.2     1  UNL1        0.4047
      5 O          -3.0397    3.6315   16.4139 O.2     1  UNL1       -0.2262
      6 C          -1.0335    4.2977   19.8274 C.3     1  UNL1        0.0998
      7 C           0.3894    3.8739   20.0415 C.3     1  UNL1        0.0556
      8 N           3.8867    0.6238   18.7622 N.am    1  UNL1       -0.2485
      9 C           2.5221    1.2047   18.9865 C.2     1  UNL1        0.3059
     10 O           1.4508    0.3758   19.6307 O.2     1  UNL1       -0.2524
     11 N           2.2288    2.6146   18.5665 N.am    1  UNL1       -0.2885
     12 H           4.5899    1.1679   18.3394 H       1  UNL1        0.1583
     13 H           2.9319    3.1587   18.1437 H       1  UNL1        0.1510
     14 C           4.9368   -2.7024   20.4648 C.ar    1  UNL1        0.0803
     15 S           4.8467   -1.2051   20.4588 S.2     1  UNL1       -0.0488
     16 C           4.1800   -0.7859   19.1821 C.ar    1  UNL1        0.1664
     17 N           3.8581   -2.0243   18.3991 N.ar    1  UNL1       -0.2282
     18 C           4.3258   -3.2086   19.1919 C.ar    1  UNL1        0.0701
     19 C           4.2039   -4.6468   18.7835 C.3     1  UNL1        0.0528
     20 C           4.8967   -3.5776   22.9107 C.3     1  UNL1        0.0779
     21 C           5.5332   -3.5453   21.5528 C.2     1  UNL1        0.1807
     22 O           6.7661   -4.3559   21.2829 O.2     1  UNL1       -0.2908
     23 O          -3.8620    4.8065   18.5802 O.3     1  UNL1       -0.4418
     24 C          -5.1985    4.1498   18.7608 C.3     1  UNL1        0.1378
     25 C          -4.6539    3.3584   19.9129 C.3     1  UNL1        0.0437
     26 C          -5.7430    4.9412   17.6087 C.3     1  UNL1        0.0437
     27 C          -6.5349    3.4931   18.9413 C.3     1  UNL1        0.0437
     28 C           1.1958    4.0905   21.2876 C.3     1  UNL1        0.0755
     29 N           1.1820    3.0609   22.3784 N.3     1  UNL1       -0.2726
     30 C           2.2057    1.9646   22.3880 C.3     1  UNL1        0.0721
     31 C           2.1918    0.9351   23.4788 C.3     1  UNL1        0.0174
     32 C           1.1542    1.0019   24.5599 C.3     1  UNL1        0.0031
     33 C           0.1305    2.0981   24.5503 C.3     1  UNL1        0.0204
     34 C           0.1444    3.1277   23.4596 C.3     1  UNL1        0.0724
     35 C          -0.9071    2.1649   25.6315 C.3     1  UNL1        0.0277
     36 C          -0.4992    2.0512   27.0705 C.ar    1  UNL1       -0.0220
     37 C          -0.8139    0.8044   27.8430 C.ar    1  UNL1       -0.0020
     38 C          -0.4060    0.6907   29.2819 C.ar    1  UNL1        0.0293
     39 C           0.3165    1.8237   29.9485 C.ar    1  UNL1        0.1401
     40 F           0.7244    1.7099   31.3876 F       1  UNL1       -0.2042
     41 C           0.6311    3.0704   29.1761 C.ar    1  UNL1        0.0293
     42 C           0.2233    3.1842   27.7371 C.ar    1  UNL1       -0.0020
@<TRIPOS>BOND
     1    20    21    1
     2    21    22    2
     3    21    14    1
     4    14    15   ar
     5    15    16   ar
     6    16     8    1
     7     8     9   am
     8     9    10    2
     9     9    11   am
    10     1    11    1
    11     1     2    1
    12     2     3    1
    13     3     4   am
    14     4     5    2
    15     4    23    1
    16    23    24    1
    17    24    25    1
    18    24    26    1
    19    24    27    1
    20     3     6    1
    21     6     7    1
    22     7    28    1
    23    28    29    1
    24    29    30    1
    25    30    31    1
    26    31    32    1
    27    32    33    1
    28    33    35    1
    29    35    36    1
    30    36    37   ar
    31    37    38   ar
    32    38    39   ar
    33    39    40    1
    34    39    41   ar
    35    41    42   ar
    36    33    34    1
    37    16    17   ar
    38    17    18   ar
    39    18    19    1
    40    18    14   ar
    41     7     1    1
    42    34    29    1
    43    42    36   ar
    44     8    12    1
    45    11    13    1
@<TRIPOS>MOLECULE
*****
 42 45 0 0 0
SMALL
GASTEIGER

@<TRIPOS>ATOM
      1 C           4.0734   -1.2566   26.9415 C.3     1  UNL1        0.0959
      2 C           3.1607   -0.9143   28.0816 C.3     1  UNL1        0.1163
      3 N           4.0076   -0.4577   29.2324 N.am    1  UNL1       -0.2442
      4 C           3.5064   -0.0182   30.5761 C.2     1  UNL1        0.4047
      5 O           2.0338   -0.0107   30.8616 O.2     1  UNL1       -0.2262
      6 C           5.4437   -0.5178   28.8035 C.3     1  UNL1        0.0998
      7 C           5.4844   -1.0115   27.3877 C.3     1  UNL1        0.0556
      8 N           3.2257   -1.3269   23.0651 N.am    1  UNL1       -0.2485
      9 C           3.6496   -0.8273   24.4144 C.2     1  UNL1        0.3059
     10 O           4.0736    0.6013   24.5859 O.2     1  UNL1       -0.2524
     11 N           3.6495   -1.7562   25.5922 N.am    1  UNL1       -0.2885
     12 H           2.9474   -2.2645   22.9525 H       1  UNL1        0.1583
     13 H           3.3712   -2.6938   25.4796 H       1  UNL1        0.1510
     14 C           2.4966    0.8944   19.9668 C.ar    1  UNL1        0.0803
     15 S           2.0457   -0.0737   21.0201 S.2     1  UNL1       -0.0488
     16 C           3.2258   -0.3981   21.8874 C.ar    1  UNL1        0.1664
     17 N           4.4061    0.3697   21.3700 N.ar    1  UNL1       -0.2282
     18 C           3.9554    1.1684   20.1831 C.ar    1  UNL1        0.0701
     19 C           4.8130    2.0810   19.3573 C.3     1  UNL1        0.0528
     20 C           1.5100    2.9740   18.7620 C.3     1  UNL1        0.0779
     21 C           1.6392    1.4848   18.8869 C.2     1  UNL1        0.1807
     22 O           0.9111    0.5861   17.9319 O.2     1  UNL1       -0.2908
     23 O           4.4777    0.4138   31.6344 O.3     1  UNL1       -0.4418
     24 C           4.4679   -0.2523   32.9783 C.3     1  UNL1        0.1378
     25 C           5.1316   -1.4595   32.3848 C.3     1  UNL1        0.0437
     26 C           3.8043    0.9550   33.5718 C.3     1  UNL1        0.0437
     27 C           4.4582   -0.9183   34.3223 C.3     1  UNL1        0.0437
     28 C           6.7192   -1.2230   26.5628 C.3     1  UNL1        0.0755
     29 N           6.9079   -2.5070   25.8106 N.3     1  UNL1       -0.2726
     30 C           6.7781   -3.8202   26.5239 C.3     1  UNL1        0.0721
     31 C           6.9667   -5.1041   25.7717 C.3     1  UNL1        0.0174
     32 C           7.2852   -5.0749   24.3061 C.3     1  UNL1        0.0031
     33 C           7.4150   -3.7618   23.5928 C.3     1  UNL1        0.0204
     34 C           7.2263   -2.4779   24.3451 C.3     1  UNL1        0.0724
     35 C           7.7334   -3.7326   22.1273 C.3     1  UNL1        0.0277
     36 C           6.6845   -3.3141   21.1401 C.ar    1  UNL1       -0.0220
     37 C           7.0231   -2.3337   20.0564 C.ar    1  UNL1       -0.0020
     38 C           5.9742   -1.9151   19.0692 C.ar    1  UNL1        0.0293
     39 C           4.5868   -2.4770   19.1656 C.ar    1  UNL1        0.1401
     40 F           3.5379   -2.0584   18.1783 F       1  UNL1       -0.2042
     41 C           4.2482   -3.4573   20.2492 C.ar    1  UNL1        0.0293
     42 C           5.2971   -3.8759   21.2365 C.ar    1  UNL1       -0.0020
@<TRIPOS>BOND
     1    20    21    1
     2    21    22    2
     3    21    14    1
     4    14    15   ar
     5    15    16   ar
     6    16     8    1
     7     8     9   am
     8     9    10    2
     9     9    11   am
    10     1    11    1
    11     1     2    1
    12     2     3    1
    13     3     4   am
    14     4     5    2
    15     4    23    1
    16    23    24    1
    17    24    25    1
    18    24    26    1
    19    24    27    1
    20     3     6    1
    21     6     7    1
    22     7    28    1
    23    28    29    1
    24    29    30    1
    25    30    31    1
    26    31    32    1
    27    32    33    1
    28    33    35    1
    29    35    36    1
    30    36    37   ar
    31    37    38   ar
    32    38    39   ar
    33    39    40    1
    34    39    41   ar
    35    41    42   ar
    36    33    34    1
    37    16    17   ar
    38    17    18   ar
    39    18    19    1
    40    18    14   ar
    41     7     1    1
    42    34    29    1
    43    42    36   ar
    44     8    12    1
    45    11    13    1
@<TRIPOS>MOLECULE
*****
 42 45 0 0 0
SMALL
GASTEIGER

@<TRIPOS>ATOM
      1 C           1.9045    2.8544   19.7183 C.3     1  UNL1        0.0959
      2 C           2.1644    1.8167   18.6668 C.3     1  UNL1        0.1163
      3 N           3.2229    0.8880   19.1837 N.am    1  UNL1       -0.2442
      4 C           3.7879   -0.2965   18.4572 C.2     1  UNL1        0.4047
      5 O           3.2928   -0.6399   17.0835 O.2     1  UNL1       -0.2262
      6 C           3.6172    1.3518   20.5546 C.3     1  UNL1        0.0998
      7 C           2.8024    2.5671   20.8850 C.3     1  UNL1        0.0556
      8 N          -1.5314    4.8405   19.6917 N.am    1  UNL1       -0.2485
      9 C          -0.5465    3.7134   19.7898 C.2     1  UNL1        0.3059
     10 O          -1.0277    2.3181   20.0574 O.2     1  UNL1       -0.2524
     11 N           0.9196    3.9815   19.6202 N.am    1  UNL1       -0.2885
     12 H          -1.2156    5.7562   19.5161 H       1  UNL1        0.1583
     13 H           1.2354    4.8972   19.4446 H       1  UNL1        0.1510
     14 C          -5.2402    4.5070   20.7867 C.ar    1  UNL1        0.0803
     15 S          -3.8377    4.9768   21.0362 S.2     1  UNL1       -0.0488
     16 C          -2.9974    4.5723   19.8612 C.ar    1  UNL1        0.1664
     17 N          -3.8807    3.8526   18.8855 N.ar    1  UNL1       -0.2282
     18 C          -5.2668    3.8123   19.4575 C.ar    1  UNL1        0.0701
     19 C          -6.4685    3.1870   18.8134 C.3     1  UNL1        0.0528
     20 C          -6.3824    4.1163   23.0872 C.3     1  UNL1        0.0779
     21 C          -6.4105    4.6985   21.7050 C.2     1  UNL1        0.1807
     22 O          -7.6091    5.4722   21.2414 O.2     1  UNL1       -0.2908
     23 O           4.8480   -1.1375   19.1043 O.3     1  UNL1       -0.4418
     24 C           4.8108   -2.6304   18.9634 C.3     1  UNL1        0.1378
     25 C           3.5830   -2.6809   19.8237 C.3     1  UNL1        0.0437
     26 C           6.0386   -2.5798   18.1032 C.3     1  UNL1        0.0437
     27 C           4.7736   -4.1233   18.8226 C.3     1  UNL1        0.0437
     28 C           2.8730    3.3564   22.1585 C.3     1  UNL1        0.0755
     29 N           1.6298    3.5939   22.9637 N.3     1  UNL1       -0.2726
     30 C           0.9056    4.9031   22.8566 C.3     1  UNL1        0.0721
     31 C          -0.3375    5.1406   23.6617 C.3     1  UNL1        0.0174
     32 C          -0.8563    4.0688   24.5739 C.3     1  UNL1        0.0031
     33 C          -0.1321    2.7597   24.6810 C.3     1  UNL1        0.0204
     34 C           1.1110    2.5222   23.8759 C.3     1  UNL1        0.0724
     35 C          -0.6510    1.6880   25.5933 C.3     1  UNL1        0.0277
     36 C          -0.3011    1.7102   27.0517 C.ar    1  UNL1       -0.0220
     37 C           0.5930    2.7866   27.5922 C.ar    1  UNL1       -0.0020
     38 C           0.9430    2.8089   29.0506 C.ar    1  UNL1        0.0293
     39 C           0.3988    1.7548   29.9686 C.ar    1  UNL1        0.1401
     40 F           0.7488    1.7771   31.4271 F       1  UNL1       -0.2042
     41 C          -0.4952    0.6784   29.4282 C.ar    1  UNL1        0.0293
     42 C          -0.8452    0.6561   27.9697 C.ar    1  UNL1       -0.0020
@<TRIPOS>BOND
     1    20    21    1
     2    21    22    2
     3    21    14    1
     4    14    15   ar
     5    15    16   ar
     6    16     8    1
     7     8     9   am
     8     9    10    2
     9     9    11   am
    10     1    11    1
    11     1     2    1
    12     2     3    1
    13     3     4   am
    14     4     5    2
    15     4    23    1
    16    23    24    1
    17    24    25    1
    18    24    26    1
    19    24    27    1
    20     3     6    1
    21     6     7    1
    22     7    28    1
    23    28    29    1
    24    29    30    1
    25    30    31    1
    26    31    32    1
    27    32    33    1
    28    33    35    1
    29    35    36    1
    30    36    37   ar
    31    37    38   ar
    32    38    39   ar
    33    39    40    1
    34    39    41   ar
    35    41    42   ar
    36    33    34    1
    37    16    17   ar
    38    17    18   ar
    39    18    19    1
    40    18    14   ar
    41     7     1    1
    42    34    29    1
    43    42    36   ar
    44     8    12    1
    45    11    13    1
@<TRIPOS>MOLECULE
*****
 42 45 0 0 0
SMALL
GASTEIGER

@<TRIPOS>ATOM
      1 C           2.2272    2.9945   19.2708 C.3     1  UNL1        0.0959
      2 C           2.6027    1.9479   18.2641 C.3     1  UNL1        0.1163
      3 N           3.3885    0.8843   18.9723 N.am    1  UNL1       -0.2442
      4 C           3.9633   -0.3515   18.3461 C.2     1  UNL1        0.4047
      5 O           3.7712   -0.6087   16.8808 O.2     1  UNL1       -0.2262
      6 C           3.4986    1.2738   20.4167 C.3     1  UNL1        0.0998
      7 C           2.7808    2.5779   20.6011 C.3     1  UNL1        0.0556
      8 N          -0.8438    5.4798   18.8924 N.am    1  UNL1       -0.2485
      9 C          -0.0534    4.2351   19.1678 C.2     1  UNL1        0.3059
     10 O          -0.7530    2.9861   19.6156 O.2     1  UNL1       -0.2524
     11 N           1.4367    4.2393   18.9954 N.am    1  UNL1       -0.2885
     12 H          -0.3846    6.2996   18.5985 H       1  UNL1        0.1583
     13 H           1.8959    5.0590   18.7015 H       1  UNL1        0.1510
     14 C          -4.6936    5.0086   18.7419 C.ar    1  UNL1        0.0803
     15 S          -3.3177    4.7281   18.2144 S.2     1  UNL1       -0.0488
     16 C          -2.3338    5.4756   19.0648 C.ar    1  UNL1        0.1664
     17 N          -3.1016    6.2181   20.1181 N.ar    1  UNL1       -0.2282
     18 C          -4.5600    5.9295   19.9185 C.ar    1  UNL1        0.0701
     19 C          -5.6870    6.4673   20.7495 C.3     1  UNL1        0.0528
     20 C          -6.5861    3.2292   18.7858 C.3     1  UNL1        0.0779
     21 C          -5.9774    4.4639   18.1899 C.2     1  UNL1        0.1807
     22 O          -6.6528    5.1539   17.0419 O.2     1  UNL1       -0.2908
     23 O           4.7302   -1.3303   19.1850 O.3     1  UNL1       -0.4418
     24 C           4.4956   -2.8029   19.0225 C.3     1  UNL1        0.1378
     25 C           3.1832   -2.6727   19.7371 C.3     1  UNL1        0.0437
     26 C           5.8080   -2.9330   18.3079 C.3     1  UNL1        0.0437
     27 C           4.2611   -4.2754   18.8599 C.3     1  UNL1        0.0437
     28 C           2.6412    3.3329   21.8897 C.3     1  UNL1        0.0755
     29 N           1.6630    2.8696   22.9283 N.3     1  UNL1       -0.2726
     30 C           1.7740    1.4870   23.4993 C.3     1  UNL1        0.0721
     31 C           0.7958    1.0238   24.5378 C.3     1  UNL1        0.0174
     32 C          -0.2933    1.9432   25.0053 C.3     1  UNL1        0.0031
     33 C          -0.4043    3.3258   24.4343 C.3     1  UNL1        0.0204
     34 C           0.5739    3.7890   23.3958 C.3     1  UNL1        0.0724
     35 C          -1.4934    4.2451   24.9018 C.3     1  UNL1        0.0277
     36 C          -2.8882    4.0850   24.3738 C.ar    1  UNL1       -0.0220
     37 C          -3.1080    3.6139   22.9666 C.ar    1  UNL1       -0.0020
     38 C          -4.5028    3.4538   22.4386 C.ar    1  UNL1        0.0293
     39 C          -5.6778    3.7647   23.3176 C.ar    1  UNL1        0.1401
     40 F          -7.0727    3.6045   22.7894 F       1  UNL1       -0.2042
     41 C          -5.4581    4.2357   24.7246 C.ar    1  UNL1        0.0293
     42 C          -4.0633    4.3959   25.2527 C.ar    1  UNL1       -0.0020
@<TRIPOS>BOND
     1    20    21    1
     2    21    22    2
     3    21    14    1
     4    14    15   ar
     5    15    16   ar
     6    16     8    1
     7     8     9   am
     8     9    10    2
     9     9    11   am
    10     1    11    1
    11     1     2    1
    12     2     3    1
    13     3     4   am
    14     4     5    2
    15     4    23    1
    16    23    24    1
    17    24    25    1
    18    24    26    1
    19    24    27    1
    20     3     6    1
    21     6     7    1
    22     7    28    1
    23    28    29    1
    24    29    30    1
    25    30    31    1
    26    31    32    1
    27    32    33    1
    28    33    35    1
    29    35    36    1
    30    36    37   ar
    31    37    38   ar
    32    38    39   ar
    33    39    40    1
    34    39    41   ar
    35    41    42   ar
    36    33    34    1
    37    16    17   ar
    38    17    18   ar
    39    18    19    1
    40    18    14   ar
    41     7     1    1
    42    34    29    1
    43    42    36   ar
    44     8    12    1
    45    11    13    1
@<TRIPOS>MOLECULE
*****
 42 45 0 0 0
SMALL
GASTEIGER

@<TRIPOS>ATOM
      1 C           3.8379   -0.7432   26.6995 C.3     1  UNL1        0.0959
      2 C           4.7351   -1.8872   27.0686 C.3     1  UNL1        0.1163
      3 N           5.3308   -1.5939   28.4137 N.am    1  UNL1       -0.2442
      4 C           6.2875   -2.4718   29.1647 C.2     1  UNL1        0.4047
      5 O           6.7303   -3.7771   28.5729 O.2     1  UNL1       -0.2262
      6 C           4.8017   -0.2686   28.8759 C.3     1  UNL1        0.0998
      7 C           3.8790    0.2571   27.8165 C.3     1  UNL1        0.0556
      8 N           2.8541   -0.8837   22.8573 N.am    1  UNL1       -0.2485
      9 C           3.6523   -1.0059   24.1214 C.2     1  UNL1        0.3059
     10 O           5.0631   -1.5129   24.0715 O.2     1  UNL1       -0.2524
     11 N           3.0397   -0.6210   25.4355 N.am    1  UNL1       -0.2885
     12 H           1.9281   -0.5509   22.8900 H       1  UNL1        0.1583
     13 H           2.1138   -0.2882   25.4682 H       1  UNL1        0.1510
     14 C           4.3335   -1.1550   19.2791 C.ar    1  UNL1        0.0803
     15 S           3.7039   -0.3528   20.3792 S.2     1  UNL1       -0.0488
     16 C           3.4667   -1.2685   21.5434 C.ar    1  UNL1        0.1664
     17 N           3.9496   -2.6368   21.1627 N.ar    1  UNL1       -0.2282
     18 C           4.4853   -2.5666   19.7634 C.ar    1  UNL1        0.0701
     19 C           5.0702   -3.7076   18.9849 C.3     1  UNL1        0.0528
     20 C           3.8352   -0.8281   16.7504 C.3     1  UNL1        0.0779
     21 C           4.7398   -0.6367   17.9315 C.2     1  UNL1        0.1807
     22 O           6.0507    0.0731   17.7650 O.2     1  UNL1       -0.2908
     23 O           6.8015   -2.0445   30.5074 O.3     1  UNL1       -0.4418
     24 C           7.9166   -2.8059   31.1608 C.3     1  UNL1        0.1378
     25 C           8.9191   -1.9998   30.3891 C.3     1  UNL1        0.0437
     26 C           6.9141   -3.6119   31.9323 C.3     1  UNL1        0.0437
     27 C           9.0316   -3.5673   31.8141 C.3     1  UNL1        0.0437
     28 C           3.1292    1.5553   27.8655 C.3     1  UNL1        0.0755
     29 N           1.6292    1.5562   27.8486 N.3     1  UNL1       -0.2726
     30 C           0.8733    0.3455   28.3100 C.3     1  UNL1        0.0721
     31 C          -0.6266    0.3465   28.2931 C.3     1  UNL1        0.0174
     32 C          -1.3705    1.5580   27.8148 C.3     1  UNL1        0.0031
     33 C          -0.6146    2.7686   27.3535 C.3     1  UNL1        0.0204
     34 C           0.8853    2.7677   27.3703 C.3     1  UNL1        0.0724
     35 C          -1.3585    3.9802   26.8752 C.3     1  UNL1        0.0277
     36 C          -2.4856    3.8305   25.8968 C.ar    1  UNL1       -0.0220
     37 C          -2.1921    3.5822   24.4469 C.ar    1  UNL1       -0.0020
     38 C          -3.3191    3.4325   23.4685 C.ar    1  UNL1        0.0293
     39 C          -4.7397    3.5310   23.9399 C.ar    1  UNL1        0.1401
     40 F          -5.8668    3.3813   22.9614 F       1  UNL1       -0.2042
     41 C          -5.0332    3.7793   25.3898 C.ar    1  UNL1        0.0293
     42 C          -3.9061    3.9290   26.3683 C.ar    1  UNL1       -0.0020
@<TRIPOS>BOND
     1    20    21    1
     2    21    22    2
     3    21    14    1
     4    14    15   ar
     5    15    16   ar
     6    16     8    1
     7     8     9   am
     8     9    10    2
     9     9    11   am
    10     1    11    1
    11     1     2    1
    12     2     3    1
    13     3     4   am
    14     4     5    2
    15     4    23    1
    16    23    24    1
    17    24    25    1
    18    24    26    1
    19    24    27    1
    20     3     6    1
    21     6     7    1
    22     7    28    1
    23    28    29    1
    24    29    30    1
    25    30    31    1
    26    31    32    1
    27    32    33    1
    28    33    35    1
    29    35    36    1
    30    36    37   ar
    31    37    38   ar
    32    38    39   ar
    33    39    40    1
    34    39    41   ar
    35    41    42   ar
    36    33    34    1
    37    16    17   ar
    38    17    18   ar
    39    18    19    1
    40    18    14   ar
    41     7     1    1
    42    34    29    1
    43    42    36   ar
    44     8    12    1
    45    11    13    1
@<TRIPOS>MOLECULE
*****
 42 45 0 0 0
SMALL
GASTEIGER

@<TRIPOS>ATOM
      1 C           4.7085   -1.0602   26.7445 C.3     1  UNL1        0.0959
      2 C           3.4529   -1.1754   27.5570 C.3     1  UNL1        0.1163
      3 N           3.2341    0.1315   28.2601 N.am    1  UNL1       -0.2442
      4 C           2.0950    0.4582   29.1797 C.2     1  UNL1        0.4047
      5 O           1.0428   -0.5720   29.4655 O.2     1  UNL1       -0.2262
      6 C           4.3546    1.0544   27.8821 C.3     1  UNL1        0.0998
      7 C           5.2658    0.3179   26.9454 C.3     1  UNL1        0.0556
      8 N           5.5616   -3.2689   23.5596 N.am    1  UNL1       -0.2485
      9 C           4.9676   -2.1947   24.4216 C.2     1  UNL1        0.3059
     10 O           4.0387   -1.1805   23.8227 O.2     1  UNL1       -0.2524
     11 N           5.3025   -2.1344   25.8825 N.am    1  UNL1       -0.2885
     12 H           6.1713   -3.9346   23.9526 H       1  UNL1        0.1583
     13 H           5.9121   -2.8001   26.2756 H       1  UNL1        0.1510
     14 C           5.1678   -2.8407   19.7220 C.ar    1  UNL1        0.0803
     15 S           5.7684   -2.4243   21.0320 S.2     1  UNL1       -0.0488
     16 C           5.2267   -3.3291   22.0988 C.ar    1  UNL1        0.1664
     17 N           4.2913   -4.3047   21.4480 N.ar    1  UNL1       -0.2282
     18 C           4.2549   -4.0028   19.9792 C.ar    1  UNL1        0.0701
     19 C           3.4474   -4.7345   18.9484 C.3     1  UNL1        0.0528
     20 C           4.4160   -1.2882   17.7793 C.3     1  UNL1        0.0779
     21 C           5.4335   -2.2063   18.3891 C.2     1  UNL1        0.1807
     22 O           6.7167   -2.4899   17.6659 O.2     1  UNL1       -0.2908
     23 O           2.0080    1.8149   29.8134 O.3     1  UNL1       -0.4418
     24 C           1.8871    1.9404   31.3032 C.3     1  UNL1        0.1378
     25 C           0.5155    2.5263   31.1425 C.3     1  UNL1        0.0437
     26 C           3.2585    1.3545   31.4640 C.3     1  UNL1        0.0437
     27 C           1.7661    2.0659   32.7931 C.3     1  UNL1        0.0437
     28 C           6.5149    0.8636   26.3196 C.3     1  UNL1        0.0755
     29 N           6.6168    0.9807   24.8276 N.3     1  UNL1       -0.2726
     30 C           7.6742    0.2179   24.0858 C.3     1  UNL1        0.0721
     31 C           7.7760    0.3351   22.5939 C.3     1  UNL1        0.0174
     32 C           6.8206    1.2150   21.8437 C.3     1  UNL1        0.0031
     33 C           5.7633    1.9778   22.5854 C.3     1  UNL1        0.0204
     34 C           5.6614    1.8607   24.0774 C.3     1  UNL1        0.0724
     35 C           4.8079    2.8578   21.8352 C.3     1  UNL1        0.0277
     36 C           3.8299    2.2532   20.8719 C.ar    1  UNL1       -0.0220
     37 C           3.5875    2.9034   19.5421 C.ar    1  UNL1       -0.0020
     38 C           2.6095    2.2988   18.5787 C.ar    1  UNL1        0.0293
     39 C           1.8740    1.0440   18.9452 C.ar    1  UNL1        0.1401
     40 F           0.8960    0.4394   17.9818 F       1  UNL1       -0.2042
     41 C           2.1164    0.3937   20.2750 C.ar    1  UNL1        0.0293
     42 C           3.0944    0.9983   21.2384 C.ar    1  UNL1       -0.0020
@<TRIPOS>BOND
     1    20    21    1
     2    21    22    2
     3    21    14    1
     4    14    15   ar
     5    15    16   ar
     6    16     8    1
     7     8     9   am
     8     9    10    2
     9     9    11   am
    10     1    11    1
    11     1     2    1
    12     2     3    1
    13     3     4   am
    14     4     5    2
    15     4    23    1
    16    23    24    1
    17    24    25    1
    18    24    26    1
    19    24    27    1
    20     3     6    1
    21     6     7    1
    22     7    28    1
    23    28    29    1
    24    29    30    1
    25    30    31    1
    26    31    32    1
    27    32    33    1
    28    33    35    1
    29    35    36    1
    30    36    37   ar
    31    37    38   ar
    32    38    39   ar
    33    39    40    1
    34    39    41   ar
    35    41    42   ar
    36    33    34    1
    37    16    17   ar
    38    17    18   ar
    39    18    19    1
    40    18    14   ar
    41     7     1    1
    42    34    29    1
    43    42    36   ar
    44     8    12    1
    45    11    13    1
