@<TRIPOS>MOLECULE
*****
 34 37 0 0 0
SMALL
GASTEIGER

@<TRIPOS>ATOM
      1 C           3.8277   -1.5472   19.6526 C.ar    1  UNL1        0.0484
      2 C           4.4015   -2.2819   18.4775 C.ar    1  UNL1        0.1356
      3 O           4.0183   -1.8824   17.0833 O.3     1  UNL1       -0.5056
      4 C           5.3584   -3.4161   18.6964 C.ar    1  UNL1        0.0732
      5 C           5.7416   -3.8156   20.0905 C.ar    1  UNL1        0.1426
      6 O           6.6985   -4.9498   20.3094 O.3     1  UNL1       -0.5052
      7 C           5.1678   -3.0809   21.2658 C.ar    1  UNL1        0.1070
      8 C           5.5510   -3.4804   22.6598 C.ar    1  UNL1        0.2046
      9 O           6.5079   -4.6146   22.8788 O.2     1  UNL1       -0.2863
     10 C           4.9772   -2.7458   23.8350 C.ar    1  UNL1        0.0797
     11 C           4.0203   -1.6116   23.6161 C.ar    1  UNL1        0.1485
     12 O           3.6372   -1.2121   22.2220 O.2     1  UNL1       -0.4534
     13 C           4.2109   -1.9467   21.0468 C.ar    1  UNL1        0.1502
     14 H           3.4205   -1.1739   16.9465 H       1  UNL1        0.2922
     15 H           7.0569   -5.4087   19.5753 H       1  UNL1        0.2922
     16 C           0.0001    2.9895   18.7769 C.3     1  UNL1        0.0897
     17 N           0.9570    1.8553   18.9958 N.3     1  UNL1       -0.2694
     18 C           0.4874    0.5958   19.6615 C.3     1  UNL1        0.0726
     19 C           1.4443   -0.5384   19.8805 C.3     1  UNL1        0.0244
     20 C           2.8708   -0.4130   19.4337 C.3     1  UNL1        0.0580
     21 C           3.3403    0.8465   18.7680 C.3     1  UNL1        0.1306
     22 O           4.7668    0.9718   18.3213 O.3     1  UNL1       -0.3827
     23 C           2.3834    1.9807   18.5491 C.3     1  UNL1        0.1020
     24 H           4.9027    1.8415   17.9136 H       1  UNL1        0.2104
     25 C           3.4466   -0.8769   24.7913 C.2     1  UNL1        0.0377
     26 C           3.1223    0.5832   24.6775 C.2     1  UNL1        0.0048
     27 C           2.5486    1.3179   25.8528 C.ar    1  UNL1        0.0213
     28 C           3.4543    1.8233   26.9363 C.ar    1  UNL1        0.0585
     29 CL          4.9339    1.5940   26.8447 Cl      1  UNL1       -0.0822
     30 C           2.8806    2.5579   28.1115 C.ar    1  UNL1        0.0114
     31 C           1.4010    2.7872   28.2031 C.ar    1  UNL1        0.0017
     32 C           0.4953    2.2818   27.1195 C.ar    1  UNL1        0.0114
     33 C           1.0690    1.5472   25.9444 C.ar    1  UNL1        0.0585
     34 CL          0.1632    1.0417   24.8608 Cl      1  UNL1       -0.0822
@<TRIPOS>BOND
     1    16    17    1
     2    17    18    1
     3    18    19    1
     4    19    20    1
     5    20     1    1
     6     1     2   ar
     7     2     3    1
     8     2     4   ar
     9     4     5   ar
    10     5     6    1
    11     5     7   ar
    12     7     8   ar
    13     8     9    2
    14     8    10   ar
    15    10    11   ar
    16    11    25    1
    17    25    26    2
    18    26    27    1
    19    27    28   ar
    20    28    29    1
    21    28    30   ar
    22    30    31   ar
    23    31    32   ar
    24    32    33   ar
    25    33    34    1
    26    11    12   ar
    27    12    13   ar
    28    20    21    1
    29    21    22    1
    30    21    23    1
    31    23    17    1
    32    13     1   ar
    33    13     7   ar
    34    33    27   ar
    35     3    14    1
    36     6    15    1
    37    22    24    1
@<TRIPOS>MOLECULE
*****
 34 37 0 0 0
SMALL
GASTEIGER

@<TRIPOS>ATOM
      1 C         -14.4749   -6.8369   18.1851 C.ar    1  UNL1        0.0484
      2 C         -13.6429   -7.9666   17.6548 C.ar    1  UNL1        0.1356
      3 O         -14.2987   -9.2497   17.2380 O.3     1  UNL1       -0.5056
      4 C         -12.1551   -7.8134   17.5412 C.ar    1  UNL1        0.0732
      5 C         -11.4993   -6.5304   17.9579 C.ar    1  UNL1        0.1426
      6 O         -10.0115   -6.3771   17.8444 O.3     1  UNL1       -0.5052
      7 C         -12.3313   -5.4005   18.4883 C.ar    1  UNL1        0.1070
      8 C         -11.6755   -4.1175   18.9051 C.ar    1  UNL1        0.2046
      9 O         -10.1877   -3.9642   18.7915 O.2     1  UNL1       -0.2863
     10 C         -12.5076   -2.9877   19.4354 C.ar    1  UNL1        0.0797
     11 C         -13.9954   -3.1409   19.5490 C.ar    1  UNL1        0.1485
     12 O         -14.6512   -4.4240   19.1322 O.2     1  UNL1       -0.4534
     13 C         -13.8191   -5.5537   18.6019 C.ar    1  UNL1        0.1502
     14 H         -15.2281   -9.3455   17.3089 H       1  UNL1        0.2922
     15 H          -9.4917   -7.0828   17.5131 H       1  UNL1        0.2922
     16 C         -20.4262   -7.4499   18.6394 C.3     1  UNL1        0.0897
     17 N         -18.9384   -7.2966   18.5258 N.3     1  UNL1       -0.2694
     18 C         -18.3587   -6.2773   17.5904 C.3     1  UNL1        0.0726
     19 C         -16.8709   -6.1240   17.4768 C.3     1  UNL1        0.0244
     20 C         -15.9628   -6.9901   18.2987 C.3     1  UNL1        0.0580
     21 C         -16.5425   -8.0094   19.2341 C.3     1  UNL1        0.1306
     22 O         -15.6344   -8.8754   20.0559 O.3     1  UNL1       -0.3827
     23 C         -18.0303   -8.1626   19.3476 C.3     1  UNL1        0.1020
     24 H         -16.1665   -9.4748   20.6023 H       1  UNL1        0.2104
     25 C         -14.8274   -2.0111   20.0794 C.2     1  UNL1        0.0377
     26 C         -15.7769   -1.2880   19.1707 C.2     1  UNL1        0.0048
     27 C         -16.6089   -0.1582   19.7011 C.ar    1  UNL1        0.0213
     28 C         -16.0817    1.2455   19.6592 C.ar    1  UNL1        0.0585
     29 CL        -14.7225    1.5193   19.0869 Cl      1  UNL1       -0.0822
     30 C         -16.9137    2.3752   20.1895 C.ar    1  UNL1        0.0114
     31 C         -18.2730    2.1014   20.7618 C.ar    1  UNL1        0.0017
     32 C         -18.8002    0.6977   20.8037 C.ar    1  UNL1        0.0114
     33 C         -17.9682   -0.4320   20.2734 C.ar    1  UNL1        0.0585
     34 CL        -18.4954   -1.8358   20.3152 Cl      1  UNL1       -0.0822
@<TRIPOS>BOND
     1    16    17    1
     2    17    18    1
     3    18    19    1
     4    19    20    1
     5    20     1    1
     6     1     2   ar
     7     2     3    1
     8     2     4   ar
     9     4     5   ar
    10     5     6    1
    11     5     7   ar
    12     7     8   ar
    13     8     9    2
    14     8    10   ar
    15    10    11   ar
    16    11    25    1
    17    25    26    2
    18    26    27    1
    19    27    28   ar
    20    28    29    1
    21    28    30   ar
    22    30    31   ar
    23    31    32   ar
    24    32    33   ar
    25    33    34    1
    26    11    12   ar
    27    12    13   ar
    28    20    21    1
    29    21    22    1
    30    21    23    1
    31    23    17    1
    32    13     1   ar
    33    13     7   ar
    34    33    27   ar
    35     3    14    1
    36     6    15    1
    37    22    24    1
@<TRIPOS>MOLECULE
*****
 34 37 0 0 0
SMALL
GASTEIGER

@<TRIPOS>ATOM
      1 C           3.8608   -1.5610   19.6768 C.ar    1  UNL1        0.0484
      2 C           4.4348   -2.2980   18.5032 C.ar    1  UNL1        0.1356
      3 O           4.0477   -1.9049   17.1083 O.3     1  UNL1       -0.5056
      4 C           5.3959   -3.4282   18.7244 C.ar    1  UNL1        0.0732
      5 C           5.7830   -3.8214   20.1192 C.ar    1  UNL1        0.1426
      6 O           6.7441   -4.9516   20.3404 O.3     1  UNL1       -0.5052
      7 C           5.2091   -3.0844   21.2929 C.ar    1  UNL1        0.1070
      8 C           5.5962   -3.4776   22.6877 C.ar    1  UNL1        0.2046
      9 O           6.5573   -4.6077   22.9089 O.2     1  UNL1       -0.2863
     10 C           5.0223   -2.7405   23.8612 C.ar    1  UNL1        0.0797
     11 C           4.0611   -1.6103   23.6400 C.ar    1  UNL1        0.1485
     12 O           3.6740   -1.2172   22.2452 O.2     1  UNL1       -0.4534
     13 C           4.2480   -1.9542   21.0717 C.ar    1  UNL1        0.1502
     14 H           3.4473   -1.1989   16.9701 H       1  UNL1        0.2922
     15 H           7.1027   -5.4120   19.6073 H       1  UNL1        0.2922
     16 C           0.0164    2.9598   18.7919 C.3     1  UNL1        0.0897
     17 N           0.9775    1.8296   19.0131 N.3     1  UNL1       -0.2694
     18 C           0.5134    0.5708   19.6842 C.3     1  UNL1        0.0726
     19 C           1.4745   -0.5594   19.9054 C.3     1  UNL1        0.0244
     20 C           2.8997   -0.4308   19.4556 C.3     1  UNL1        0.0580
     21 C           3.3638    0.8279   18.7845 C.3     1  UNL1        0.1306
     22 O           4.7890    0.9564   18.3347 O.3     1  UNL1       -0.3827
     23 C           2.4027    1.9581   18.5633 C.3     1  UNL1        0.1020
     24 H           4.9212    1.8250   17.9237 H       1  UNL1        0.2104
     25 C           3.4872   -0.8733   24.8137 C.2     1  UNL1        0.0377
     26 C           3.0683    0.5596   24.6676 C.2     1  UNL1        0.0048
     27 C           2.4944    1.2966   25.8413 C.ar    1  UNL1        0.0213
     28 C           1.0134    1.5135   25.9394 C.ar    1  UNL1        0.0585
     29 CL          0.1063    0.9933   24.8639 Cl      1  UNL1       -0.0822
     30 C           0.4395    2.2505   27.1131 C.ar    1  UNL1        0.0114
     31 C           1.3466    2.7706   28.1885 C.ar    1  UNL1        0.0017
     32 C           2.8276    2.5537   28.0904 C.ar    1  UNL1        0.0114
     33 C           3.4014    1.8168   26.9168 C.ar    1  UNL1        0.0585
     34 CL          4.8825    1.5999   26.8186 Cl      1  UNL1       -0.0822
@<TRIPOS>BOND
     1    16    17    1
     2    17    18    1
     3    18    19    1
     4    19    20    1
     5    20     1    1
     6     1     2   ar
     7     2     3    1
     8     2     4   ar
     9     4     5   ar
    10     5     6    1
    11     5     7   ar
    12     7     8   ar
    13     8     9    2
    14     8    10   ar
    15    10    11   ar
    16    11    25    1
    17    25    26    2
    18    26    27    1
    19    27    28   ar
    20    28    29    1
    21    28    30   ar
    22    30    31   ar
    23    31    32   ar
    24    32    33   ar
    25    33    34    1
    26    11    12   ar
    27    12    13   ar
    28    20    21    1
    29    21    22    1
    30    21    23    1
    31    23    17    1
    32    13     1   ar
    33    13     7   ar
    34    33    27   ar
    35     3    14    1
    36     6    15    1
    37    22    24    1
@<TRIPOS>MOLECULE
*****
 34 37 0 0 0
SMALL
GASTEIGER

@<TRIPOS>ATOM
      1 C          -1.9523    3.7703   22.8897 C.ar    1  UNL1        0.0484
      2 C          -2.9321    4.2911   23.8988 C.ar    1  UNL1        0.1356
      3 O          -4.0270    5.2225   23.4699 O.3     1  UNL1       -0.5056
      4 C          -2.8172    3.8807   25.3370 C.ar    1  UNL1        0.0732
      5 C          -1.7224    2.9494   25.7660 C.ar    1  UNL1        0.1426
      6 O          -1.6075    2.5390   27.2042 O.3     1  UNL1       -0.5052
      7 C          -0.7425    2.4285   24.7568 C.ar    1  UNL1        0.1070
      8 C           0.3523    1.4972   25.1858 C.ar    1  UNL1        0.2046
      9 O           0.4673    1.0868   26.6240 O.2     1  UNL1       -0.2863
     10 C           1.3322    0.9763   24.1766 C.ar    1  UNL1        0.0797
     11 C           1.2172    1.3867   22.7384 C.ar    1  UNL1        0.1485
     12 O           0.1224    2.3180   22.3094 O.2     1  UNL1       -0.4534
     13 C          -0.8574    2.8389   23.3186 C.ar    1  UNL1        0.1502
     14 H          -4.0988    5.4789   22.5715 H       1  UNL1        0.2922
     15 H          -2.2196    2.8644   27.8346 H       1  UNL1        0.2922
     16 C          -2.4120    5.4119   17.1370 C.3     1  UNL1        0.0897
     17 N          -2.2971    5.0015   18.5751 N.3     1  UNL1       -0.2694
     18 C          -1.2683    5.6432   19.4583 C.3     1  UNL1        0.0726
     19 C          -1.1533    5.2327   20.8964 C.3     1  UNL1        0.0244
     20 C          -2.0672    4.1807   21.4515 C.3     1  UNL1        0.0580
     21 C          -3.0960    3.5391   20.5684 C.3     1  UNL1        0.1306
     22 O          -4.0099    2.4870   21.1234 O.3     1  UNL1       -0.3827
     23 C          -3.2109    3.9495   19.1302 C.3     1  UNL1        0.1020
     24 H          -4.6094    2.1788   20.4259 H       1  UNL1        0.2104
     25 C           2.1972    0.8658   21.7292 C.2     1  UNL1        0.0377
     26 C           1.9359   -0.4370   21.0332 C.2     1  UNL1        0.0048
     27 C           2.9159   -0.9579   20.0240 C.ar    1  UNL1        0.0213
     28 C           2.8623   -0.4715   18.6061 C.ar    1  UNL1        0.0585
     29 CL          1.8288    0.5359   18.1974 Cl      1  UNL1       -0.0822
     30 C           3.8422   -0.9924   17.5970 C.ar    1  UNL1        0.0114
     31 C           4.8757   -1.9998   18.0058 C.ar    1  UNL1        0.0017
     32 C           4.9293   -2.4862   19.4237 C.ar    1  UNL1        0.0114
     33 C           3.9494   -1.9653   20.4328 C.ar    1  UNL1        0.0585
     34 CL          4.0029   -2.4517   21.8508 Cl      1  UNL1       -0.0822
@<TRIPOS>BOND
     1    16    17    1
     2    17    18    1
     3    18    19    1
     4    19    20    1
     5    20     1    1
     6     1     2   ar
     7     2     3    1
     8     2     4   ar
     9     4     5   ar
    10     5     6    1
    11     5     7   ar
    12     7     8   ar
    13     8     9    2
    14     8    10   ar
    15    10    11   ar
    16    11    25    1
    17    25    26    2
    18    26    27    1
    19    27    28   ar
    20    28    29    1
    21    28    30   ar
    22    30    31   ar
    23    31    32   ar
    24    32    33   ar
    25    33    34    1
    26    11    12   ar
    27    12    13   ar
    28    20    21    1
    29    21    22    1
    30    21    23    1
    31    23    17    1
    32    13     1   ar
    33    13     7   ar
    34    33    27   ar
    35     3    14    1
    36     6    15    1
    37    22    24    1
@<TRIPOS>MOLECULE
*****
 34 37 0 0 0
SMALL
GASTEIGER

@<TRIPOS>ATOM
      1 C          -2.4154    3.9614   22.8882 C.ar    1  UNL1        0.0484
      2 C          -3.4031    4.4617   23.9003 C.ar    1  UNL1        0.1356
      3 O          -4.5418    5.3371   23.4679 O.3     1  UNL1       -0.5056
      4 C          -3.2520    4.0866   25.3447 C.ar    1  UNL1        0.0732
      5 C          -2.1133    3.2112   25.7771 C.ar    1  UNL1        0.1426
      6 O          -1.9622    2.8361   27.2216 O.3     1  UNL1       -0.5052
      7 C          -1.1256    2.7109   24.7651 C.ar    1  UNL1        0.1070
      8 C           0.0131    1.8355   25.1975 C.ar    1  UNL1        0.2046
      9 O           0.1642    1.4604   26.6420 O.2     1  UNL1       -0.2863
     10 C           1.0008    1.3353   24.1855 C.ar    1  UNL1        0.0797
     11 C           0.8497    1.7104   22.7410 C.ar    1  UNL1        0.1485
     12 O          -0.2890    2.5857   22.3086 O.2     1  UNL1       -0.4534
     13 C          -1.2766    3.0860   23.3206 C.ar    1  UNL1        0.1502
     14 H          -4.6362    5.5714   22.5656 H       1  UNL1        0.2922
     15 H          -2.5792    3.1486   27.8538 H       1  UNL1        0.2922
     16 C          -3.0197    5.4619   17.1104 C.3     1  UNL1        0.0897
     17 N          -2.8686    5.0867   18.5548 N.3     1  UNL1       -0.2694
     18 C          -1.9069    5.8370   19.4279 C.3     1  UNL1        0.0726
     19 C          -1.7558    5.4619   20.8724 C.3     1  UNL1        0.0244
     20 C          -2.5665    4.3365   21.4438 C.3     1  UNL1        0.0580
     21 C          -3.5282    3.5863   20.5707 C.3     1  UNL1        0.1306
     22 O          -4.3388    2.4609   21.1420 O.3     1  UNL1       -0.3827
     23 C          -3.6792    3.9614   19.1262 C.3     1  UNL1        0.1020
     24 H          -4.9052    2.0863   20.4494 H       1  UNL1        0.2104
     25 C           1.8374    1.2101   21.7289 C.2     1  UNL1        0.0377
     26 C           1.6344   -0.1271   21.0802 C.2     1  UNL1        0.0048
     27 C           2.6221   -0.6274   20.0682 C.ar    1  UNL1        0.0213
     28 C           3.6959   -1.5901   20.4804 C.ar    1  UNL1        0.0585
     29 CL          3.7821   -2.0527   21.9047 Cl      1  UNL1       -0.0822
     30 C           4.6836   -2.0904   19.4684 C.ar    1  UNL1        0.0114
     31 C           4.5974   -1.6279   18.0441 C.ar    1  UNL1        0.0017
     32 C           3.5236   -0.6651   17.6318 C.ar    1  UNL1        0.0114
     33 C           2.5360   -0.1648   18.6438 C.ar    1  UNL1        0.0585
     34 CL          1.4621    0.7980   18.2316 Cl      1  UNL1       -0.0822
@<TRIPOS>BOND
     1    16    17    1
     2    17    18    1
     3    18    19    1
     4    19    20    1
     5    20     1    1
     6     1     2   ar
     7     2     3    1
     8     2     4   ar
     9     4     5   ar
    10     5     6    1
    11     5     7   ar
    12     7     8   ar
    13     8     9    2
    14     8    10   ar
    15    10    11   ar
    16    11    25    1
    17    25    26    2
    18    26    27    1
    19    27    28   ar
    20    28    29    1
    21    28    30   ar
    22    30    31   ar
    23    31    32   ar
    24    32    33   ar
    25    33    34    1
    26    11    12   ar
    27    12    13   ar
    28    20    21    1
    29    21    22    1
    30    21    23    1
    31    23    17    1
    32    13     1   ar
    33    13     7   ar
    34    33    27   ar
    35     3    14    1
    36     6    15    1
    37    22    24    1
@<TRIPOS>MOLECULE
*****
 34 37 0 0 0
SMALL
GASTEIGER

@<TRIPOS>ATOM
      1 C           4.7758   -0.3066   33.3702 C.ar    1  UNL1        0.0484
      2 C           4.8565    0.1717   34.7896 C.ar    1  UNL1        0.1356
      3 O           5.8910   -0.3970   35.7150 O.3     1  UNL1       -0.5056
      4 C           3.9028    1.2188   35.2836 C.ar    1  UNL1        0.0732
      5 C           2.8683    1.7876   34.3582 C.ar    1  UNL1        0.1426
      6 O           1.9146    2.8346   34.8522 O.3     1  UNL1       -0.5052
      7 C           2.7875    1.3092   32.9388 C.ar    1  UNL1        0.1070
      8 C           1.7530    1.8780   32.0134 C.ar    1  UNL1        0.2046
      9 O           0.7993    2.9250   32.5074 O.2     1  UNL1       -0.2863
     10 C           1.6723    1.3996   30.5940 C.ar    1  UNL1        0.0797
     11 C           2.6260    0.3525   30.1001 C.ar    1  UNL1        0.1485
     12 O           3.6605   -0.2162   31.0254 O.2     1  UNL1       -0.4534
     13 C           3.7412    0.2621   32.4448 C.ar    1  UNL1        0.1502
     14 H           6.4868   -1.0511   35.4065 H       1  UNL1        0.2922
     15 H           1.9650    3.1334   35.7388 H       1  UNL1        0.2922
     16 C           8.5907   -4.4949   31.3943 C.3     1  UNL1        0.0897
     17 N           7.6370   -3.4479   31.8883 N.3     1  UNL1       -0.2694
     18 C           8.0515   -2.0064   31.9106 C.3     1  UNL1        0.0726
     19 C           7.0978   -0.9593   32.4046 C.3     1  UNL1        0.0244
     20 C           5.7295   -1.3537   32.8762 C.3     1  UNL1        0.0580
     21 C           5.3150   -2.7951   32.8539 C.3     1  UNL1        0.1306
     22 O           3.9467   -3.1895   33.3255 O.3     1  UNL1       -0.3827
     23 C           6.2687   -3.8422   32.3599 C.3     1  UNL1        0.1020
     24 H           3.8416   -4.1504   33.2454 H       1  UNL1        0.2104
     25 C           2.5452   -0.1258   28.6806 C.2     1  UNL1        0.0377
     26 C           3.4791    0.4309   27.6473 C.2     1  UNL1        0.0048
     27 C           3.3983   -0.0474   26.2278 C.ar    1  UNL1        0.0213
     28 C           2.4627    0.6197   25.2637 C.ar    1  UNL1        0.0585
     29 CL          1.6079    1.7651   25.7189 Cl      1  UNL1       -0.0822
     30 C           2.3820    0.1413   23.8443 C.ar    1  UNL1        0.0114
     31 C           3.2368   -1.0041   23.3891 C.ar    1  UNL1        0.0017
     32 C           4.1724   -1.6712   24.3532 C.ar    1  UNL1        0.0114
     33 C           4.2532   -1.1929   25.7726 C.ar    1  UNL1        0.0585
     34 CL          5.1888   -1.8600   26.7368 Cl      1  UNL1       -0.0822
@<TRIPOS>BOND
     1    16    17    1
     2    17    18    1
     3    18    19    1
     4    19    20    1
     5    20     1    1
     6     1     2   ar
     7     2     3    1
     8     2     4   ar
     9     4     5   ar
    10     5     6    1
    11     5     7   ar
    12     7     8   ar
    13     8     9    2
    14     8    10   ar
    15    10    11   ar
    16    11    25    1
    17    25    26    2
    18    26    27    1
    19    27    28   ar
    20    28    29    1
    21    28    30   ar
    22    30    31   ar
    23    31    32   ar
    24    32    33   ar
    25    33    34    1
    26    11    12   ar
    27    12    13   ar
    28    20    21    1
    29    21    22    1
    30    21    23    1
    31    23    17    1
    32    13     1   ar
    33    13     7   ar
    34    33    27   ar
    35     3    14    1
    36     6    15    1
    37    22    24    1
@<TRIPOS>MOLECULE
*****
 34 37 0 0 0
SMALL
GASTEIGER

@<TRIPOS>ATOM
      1 C         -12.5720   -5.6877   17.3734 C.ar    1  UNL1        0.0484
      2 C         -11.2551   -6.3275   17.0474 C.ar    1  UNL1        0.1356
      3 O         -11.1493   -7.8210   16.9552 O.3     1  UNL1       -0.5056
      4 C         -10.0440   -5.4740   16.8135 C.ar    1  UNL1        0.0732
      5 C         -10.1499   -3.9806   16.9057 C.ar    1  UNL1        0.1426
      6 O          -8.9388   -3.1270   16.6718 O.3     1  UNL1       -0.5052
      7 C         -11.4668   -3.3407   17.2317 C.ar    1  UNL1        0.1070
      8 C         -11.5726   -1.8473   17.3239 C.ar    1  UNL1        0.2046
      9 O         -10.3616   -0.9937   17.0900 O.2     1  UNL1       -0.2863
     10 C         -12.8895   -1.2074   17.6499 C.ar    1  UNL1        0.0797
     11 C         -14.1006   -2.0610   17.8838 C.ar    1  UNL1        0.1485
     12 O         -13.9948   -3.5544   17.7916 O.2     1  UNL1       -0.4534
     13 C         -12.6779   -4.1942   17.4656 C.ar    1  UNL1        0.1502
     14 H         -11.9058   -8.3542   17.1013 H       1  UNL1        0.2922
     15 H          -8.1161   -3.5267   16.4682 H       1  UNL1        0.2922
     16 C         -17.4164   -9.1020   18.3088 C.3     1  UNL1        0.0897
     17 N         -16.2053   -8.2484   18.0750 N.3     1  UNL1       -0.2694
     18 C         -15.7151   -8.0088   16.6777 C.3     1  UNL1        0.0726
     19 C         -14.5040   -7.1552   16.4438 C.3     1  UNL1        0.0244
     20 C         -13.7831   -6.5413   17.6073 C.3     1  UNL1        0.0580
     21 C         -14.2734   -6.7809   19.0045 C.3     1  UNL1        0.1306
     22 O         -13.5525   -6.1670   20.1679 O.3     1  UNL1       -0.3827
     23 C         -15.4844   -7.6345   19.2383 C.3     1  UNL1        0.1020
     24 H         -13.9960   -6.4194   20.9928 H       1  UNL1        0.2104
     25 C         -15.4176   -1.4211   18.2098 C.2     1  UNL1        0.0377
     26 C         -15.7711   -1.1169   19.6354 C.2     1  UNL1        0.0048
     27 C         -17.0881   -0.4770   19.9614 C.ar    1  UNL1        0.0213
     28 C         -18.2992   -1.3306   20.1954 C.ar    1  UNL1        0.0585
     29 CL        -18.1933   -2.8240   20.1034 Cl      1  UNL1       -0.0822
     30 C         -19.6160   -0.6906   20.5214 C.ar    1  UNL1        0.0114
     31 C         -19.7218    0.8028   20.6135 C.ar    1  UNL1        0.0017
     32 C         -18.5108    1.6563   20.3795 C.ar    1  UNL1        0.0114
     33 C         -17.1939    1.0164   20.0534 C.ar    1  UNL1        0.0585
     34 CL        -15.9828    1.8699   19.8194 Cl      1  UNL1       -0.0822
@<TRIPOS>BOND
     1    16    17    1
     2    17    18    1
     3    18    19    1
     4    19    20    1
     5    20     1    1
     6     1     2   ar
     7     2     3    1
     8     2     4   ar
     9     4     5   ar
    10     5     6    1
    11     5     7   ar
    12     7     8   ar
    13     8     9    2
    14     8    10   ar
    15    10    11   ar
    16    11    25    1
    17    25    26    2
    18    26    27    1
    19    27    28   ar
    20    28    29    1
    21    28    30   ar
    22    30    31   ar
    23    31    32   ar
    24    32    33   ar
    25    33    34    1
    26    11    12   ar
    27    12    13   ar
    28    20    21    1
    29    21    22    1
    30    21    23    1
    31    23    17    1
    32    13     1   ar
    33    13     7   ar
    34    33    27   ar
    35     3    14    1
    36     6    15    1
    37    22    24    1
@<TRIPOS>MOLECULE
*****
 34 37 0 0 0
SMALL
GASTEIGER

@<TRIPOS>ATOM
      1 C           6.8680   -3.9183   25.8907 C.ar    1  UNL1        0.0484
      2 C           7.4528   -4.8067   24.8331 C.ar    1  UNL1        0.1356
      3 O           8.5149   -5.8029   25.1934 O.3     1  UNL1       -0.5056
      4 C           6.9757   -4.6989   23.4151 C.ar    1  UNL1        0.0732
      5 C           5.9138   -3.7028   23.0547 C.ar    1  UNL1        0.1426
      6 O           5.4366   -3.5950   21.6367 O.3     1  UNL1       -0.5052
      7 C           5.3289   -2.8143   24.1124 C.ar    1  UNL1        0.1070
      8 C           4.2669   -1.8182   23.7521 C.ar    1  UNL1        0.2046
      9 O           3.7898   -1.7104   22.3341 O.2     1  UNL1       -0.2863
     10 C           3.6821   -0.9298   24.8098 C.ar    1  UNL1        0.0797
     11 C           4.1593   -1.0376   26.2278 C.ar    1  UNL1        0.1485
     12 O           5.2212   -2.0337   26.5881 O.2     1  UNL1       -0.4534
     13 C           5.8060   -2.9221   25.5304 C.ar    1  UNL1        0.1502
     14 H           8.8129   -5.8703   26.0791 H       1  UNL1        0.2922
     15 H           5.8019   -4.1500   20.9760 H       1  UNL1        0.2922
     16 C           8.7766   -4.3494   31.5627 C.3     1  UNL1        0.0897
     17 N           8.2995   -4.2417   30.1447 N.3     1  UNL1       -0.2694
     18 C           9.0032   -3.3297   29.1839 C.3     1  UNL1        0.0726
     19 C           8.5261   -3.2220   27.7659 C.3     1  UNL1        0.0244
     20 C           7.3452   -4.0261   27.3087 C.3     1  UNL1        0.0580
     21 C           6.6415   -4.9380   28.2696 C.3     1  UNL1        0.1306
     22 O           5.4606   -5.7421   27.8125 O.3     1  UNL1       -0.3827
     23 C           7.1186   -5.0457   29.6876 C.3     1  UNL1        0.1020
     24 H           5.1263   -6.2743   28.5513 H       1  UNL1        0.2104
     25 C           3.5744   -0.1491   27.2855 C.2     1  UNL1        0.0377
     26 C           2.7115   -0.7345   28.3637 C.2     1  UNL1        0.0048
     27 C           2.1266    0.1539   29.4214 C.ar    1  UNL1        0.0213
     28 C           0.8404    0.8811   29.1630 C.ar    1  UNL1        0.0585
     29 CL          0.1390    0.7199   27.8469 Cl      1  UNL1       -0.0822
     30 C           0.2556    1.7695   30.2207 C.ar    1  UNL1        0.0114
     31 C           0.9570    1.9307   31.5367 C.ar    1  UNL1        0.0017
     32 C           2.2432    1.2036   31.7951 C.ar    1  UNL1        0.0114
     33 C           2.8280    0.3152   30.7375 C.ar    1  UNL1        0.0585
     34 CL          4.1143   -0.4121   30.9958 Cl      1  UNL1       -0.0822
@<TRIPOS>BOND
     1    16    17    1
     2    17    18    1
     3    18    19    1
     4    19    20    1
     5    20     1    1
     6     1     2   ar
     7     2     3    1
     8     2     4   ar
     9     4     5   ar
    10     5     6    1
    11     5     7   ar
    12     7     8   ar
    13     8     9    2
    14     8    10   ar
    15    10    11   ar
    16    11    25    1
    17    25    26    2
    18    26    27    1
    19    27    28   ar
    20    28    29    1
    21    28    30   ar
    22    30    31   ar
    23    31    32   ar
    24    32    33   ar
    25    33    34    1
    26    11    12   ar
    27    12    13   ar
    28    20    21    1
    29    21    22    1
    30    21    23    1
    31    23    17    1
    32    13     1   ar
    33    13     7   ar
    34    33    27   ar
    35     3    14    1
    36     6    15    1
    37    22    24    1
@<TRIPOS>MOLECULE
*****
 34 37 0 0 0
SMALL
GASTEIGER

@<TRIPOS>ATOM
      1 C           8.1744   -5.5406   26.1704 C.ar    1  UNL1        0.0484
      2 C           8.9462   -6.8001   25.9097 C.ar    1  UNL1        0.1356
      3 O           9.5359   -7.5691   27.0548 O.3     1  UNL1       -0.5056
      4 C           9.1283   -7.2908   24.5040 C.ar    1  UNL1        0.0732
      5 C           8.5387   -6.5219   23.3589 C.ar    1  UNL1        0.1426
      6 O           8.7208   -7.0126   21.9532 O.3     1  UNL1       -0.5052
      7 C           7.7669   -5.2624   23.6196 C.ar    1  UNL1        0.1070
      8 C           7.1772   -4.4935   22.4746 C.ar    1  UNL1        0.2046
      9 O           7.3593   -4.9842   21.0688 O.2     1  UNL1       -0.2863
     10 C           6.4055   -3.2340   22.7353 C.ar    1  UNL1        0.0797
     11 C           6.2234   -2.7434   24.1410 C.ar    1  UNL1        0.1485
     12 O           6.8130   -3.5122   25.2860 O.2     1  UNL1       -0.4534
     13 C           7.5847   -4.7717   25.0253 C.ar    1  UNL1        0.1502
     14 H           9.4221   -7.2626   27.9329 H       1  UNL1        0.2922
     15 H           9.2029   -7.7994   21.7903 H       1  UNL1        0.2922
     16 C           7.4460   -3.5781   31.7934 C.3     1  UNL1        0.0897
     17 N           7.6281   -4.0687   30.3876 N.3     1  UNL1       -0.2694
     18 C           8.8948   -3.7627   29.6446 C.3     1  UNL1        0.0726
     19 C           9.0769   -4.2534   28.2389 C.3     1  UNL1        0.0244
     20 C           7.9923   -5.0500   27.5761 C.3     1  UNL1        0.0580
     21 C           6.7257   -5.3559   28.3191 C.3     1  UNL1        0.1306
     22 O           5.6411   -6.1525   27.6563 O.3     1  UNL1       -0.3827
     23 C           6.5436   -4.8653   29.7249 C.3     1  UNL1        0.1020
     24 H           4.8974   -6.2592   28.2698 H       1  UNL1        0.2104
     25 C           5.4516   -1.4838   24.4017 C.2     1  UNL1        0.0377
     26 C           3.9653   -1.5415   24.5958 C.2     1  UNL1        0.0048
     27 C           3.1935   -0.2819   24.8565 C.ar    1  UNL1        0.0213
     28 C           2.4830    0.4090   23.7305 C.ar    1  UNL1        0.0585
     29 CL          2.5443   -0.1597   22.3438 Cl      1  UNL1       -0.0822
     30 C           1.7113    1.6684   23.9912 C.ar    1  UNL1        0.0114
     31 C           1.6500    2.2371   25.3779 C.ar    1  UNL1        0.0017
     32 C           2.3605    1.5463   26.5039 C.ar    1  UNL1        0.0114
     33 C           3.1323    0.2868   26.2432 C.ar    1  UNL1        0.0585
     34 CL          3.8428   -0.4042   27.3692 Cl      1  UNL1       -0.0822
@<TRIPOS>BOND
     1    16    17    1
     2    17    18    1
     3    18    19    1
     4    19    20    1
     5    20     1    1
     6     1     2   ar
     7     2     3    1
     8     2     4   ar
     9     4     5   ar
    10     5     6    1
    11     5     7   ar
    12     7     8   ar
    13     8     9    2
    14     8    10   ar
    15    10    11   ar
    16    11    25    1
    17    25    26    2
    18    26    27    1
    19    27    28   ar
    20    28    29    1
    21    28    30   ar
    22    30    31   ar
    23    31    32   ar
    24    32    33   ar
    25    33    34    1
    26    11    12   ar
    27    12    13   ar
    28    20    21    1
    29    21    22    1
    30    21    23    1
    31    23    17    1
    32    13     1   ar
    33    13     7   ar
    34    33    27   ar
    35     3    14    1
    36     6    15    1
    37    22    24    1
