@<TRIPOS>MOLECULE
*****
 40 45 0 0 0
SMALL
GASTEIGER

@<TRIPOS>ATOM
      1 C           3.9640   -1.9304   19.8157 C.2     1  UNL1        0.2459
      2 O           4.0436   -3.1746   18.9814 O.2     1  UNL1       -0.2701
      3 N           5.0180   -1.6492   20.8453 N.am    1  UNL1       -0.3024
      4 H           4.9658   -0.8327   21.3928 H       1  UNL1        0.1497
      5 C           6.1515   -2.6121   21.0406 C.3     1  UNL1        0.0745
      6 C           7.3320   -2.5784   20.1158 C.3     1  UNL1        0.0356
      7 C           8.4655   -3.5412   20.3111 C.3     1  UNL1        0.0594
      8 C           9.3245   -4.6408   20.8616 C.3     1  UNL1        0.0174
      9 C           8.6157   -5.2356   22.0423 C.3     1  UNL1        0.0174
     10 C           7.3187   -4.5037   22.2214 C.3     1  UNL1        0.0594
     11 C           6.1044   -3.6086   22.1607 C.3     1  UNL1        0.0356
     12 N           7.2258   -3.4565   21.1514 N.3     1  UNL1       -0.2715
     13 C           6.0924   -2.4937   20.9562 C.3     1  UNL1        0.0991
     14 C           5.7931   -1.4646   22.0057 C.ar    1  UNL1       -0.0061
     15 C           6.8478   -0.4779   22.4109 C.ar    1  UNL1       -0.0029
     16 C           6.5485    0.5510   23.4605 C.ar    1  UNL1       -0.0002
     17 C           5.1946    0.5934   24.1048 C.ar    1  UNL1        0.0022
     18 C           4.8954    1.6225   25.1544 C.ar    1  UNL1        0.0296
     19 C           3.5415    1.6648   25.7987 C.ar    1  UNL1        0.1401
     20 F           3.2422    2.6938   26.8482 F       1  UNL1       -0.2042
     21 C           2.4868    0.6781   25.3935 C.ar    1  UNL1        0.0296
     22 C           2.7861   -0.3509   24.3439 C.ar    1  UNL1        0.0023
     23 C           4.1400   -0.3933   23.6996 C.ar    1  UNL1       -0.0001
     24 C           4.4392   -1.4223   22.6501 C.ar    1  UNL1       -0.0029
     25 C           2.8160   -0.0584   18.4274 C.ar    1  UNL1        0.0579
     26 C           1.6825    0.9044   18.2320 C.ar    1  UNL1        0.0047
     27 C           0.5636    0.9581   19.2296 C.ar    1  UNL1        0.0001
     28 C           0.5782    0.0488   20.4226 C.ar    1  UNL1        0.0001
     29 C           1.7117   -0.9140   20.6179 C.ar    1  UNL1        0.0047
     30 C           2.8306   -0.9676   19.6203 C.ar    1  UNL1        0.0577
     31 C           6.1549    0.8516   16.4848 C.3     1  UNL1        0.1151
     32 N           5.0360    0.9052   17.4824 N.am    1  UNL1       -0.2760
     33 C           3.9349   -0.1120   17.4298 C.2     1  UNL1        0.2492
     34 O           3.9527   -1.1828   16.3795 O.2     1  UNL1       -0.2699
     35 C           5.0183    1.9761   18.5327 C.3     1  UNL1        0.0757
     36 C           5.5640    1.6937   19.9010 C.3     1  UNL1        0.0198
     37 C           5.5462    2.7645   20.9512 C.3     1  UNL1        0.0017
     38 C           4.9827    4.1178   20.6331 C.3     1  UNL1        0.0001
     39 C           4.4370    4.4002   19.2647 C.3     1  UNL1        0.0017
     40 C           4.4548    3.3293   18.2145 C.3     1  UNL1        0.0198
@<TRIPOS>BOND
     1    31    32    1
     2    32    33   am
     3    33    34    2
     4    33    25    1
     5    25    26   ar
     6    26    27   ar
     7    27    28   ar
     8    28    29   ar
     9    29    30   ar
    10    30     1    1
    11     1     2    2
    12     1     3   am
    13     5     3    1
    14     5     6    1
    15     7     6    1
    16     7     8    1
    17     8     9    1
    18    10     9    1
    19    10    11    1
    20    10    12    1
    21    12    13    1
    22    13    14    1
    23    14    15   ar
    24    15    16   ar
    25    16    17   ar
    26    17    18   ar
    27    18    19   ar
    28    19    20    1
    29    19    21   ar
    30    21    22   ar
    31    22    23   ar
    32    23    24   ar
    33    32    35    1
    34    35    36    1
    35    36    37    1
    36    37    38    1
    37    38    39    1
    38    39    40    1
    39    30    25   ar
    40    11     5    1
    41    24    14   ar
    42    40    35    1
    43    12     7    1
    44    23    17   ar
    45     3     4    1
@<TRIPOS>MOLECULE
*****
 40 45 0 0 0
SMALL
GASTEIGER

@<TRIPOS>ATOM
      1 C           4.0236   -1.1247   18.1019 C.2     1  UNL1        0.2459
      2 O           4.0880   -0.8103   16.6365 O.2     1  UNL1       -0.2701
      3 N           3.9095   -0.0135   19.1030 N.am    1  UNL1       -0.3024
      4 H           3.8673   -0.2198   20.0647 H       1  UNL1        0.1497
      5 C           3.8599    1.4121   18.6387 C.3     1  UNL1        0.0745
      6 C           5.1189    2.1053   18.2095 C.3     1  UNL1        0.0356
      7 C           5.0692    3.5308   17.7453 C.3     1  UNL1        0.0594
      8 C           4.5640    4.8935   17.3741 C.3     1  UNL1        0.0174
      9 C           3.0815    4.9159   17.6018 C.3     1  UNL1        0.0174
     10 C           2.6706    3.5672   18.1136 C.3     1  UNL1        0.0594
     11 C           2.5512    2.1443   18.6038 C.3     1  UNL1        0.0356
     12 N           3.8991    2.7111   18.2023 N.3     1  UNL1       -0.2715
     13 C           3.9487    1.2856   18.6665 C.3     1  UNL1        0.0991
     14 C           3.6208    0.9489   20.0910 C.ar    1  UNL1       -0.0061
     15 C           2.3815    0.1665   20.4105 C.ar    1  UNL1       -0.0029
     16 C           2.0536   -0.1702   21.8350 C.ar    1  UNL1       -0.0002
     17 C           2.9650    0.2754   22.9399 C.ar    1  UNL1        0.0022
     18 C           2.6370   -0.0613   24.3644 C.ar    1  UNL1        0.0296
     19 C           3.5483    0.3843   25.4693 C.ar    1  UNL1        0.1401
     20 F           3.2204    0.0476   26.8937 F       1  UNL1       -0.2042
     21 C           4.7876    1.1668   25.1497 C.ar    1  UNL1        0.0296
     22 C           5.1155    1.5035   23.7253 C.ar    1  UNL1        0.0023
     23 C           4.2042    1.0578   22.6204 C.ar    1  UNL1       -0.0001
     24 C           4.5321    1.3945   21.1959 C.ar    1  UNL1       -0.0029
     25 C           5.3941   -3.1981   18.8586 C.ar    1  UNL1        0.0579
     26 C           5.4438   -4.6235   19.3228 C.ar    1  UNL1        0.0047
     27 C           4.1726   -5.4012   19.4944 C.ar    1  UNL1        0.0001
     28 C           2.8518   -4.7533   19.2017 C.ar    1  UNL1        0.0001
     29 C           2.8022   -3.3277   18.7376 C.ar    1  UNL1        0.0047
     30 C           4.0733   -2.5502   18.5660 C.ar    1  UNL1        0.0577
     31 C           8.7928   -1.3328   19.7074 C.3     1  UNL1        0.1151
     32 N           7.5215   -2.1105   19.8790 N.am    1  UNL1       -0.2760
     33 C           6.6653   -2.4205   18.6871 C.2     1  UNL1        0.2492
     34 O           7.0803   -1.9529   17.3235 O.2     1  UNL1       -0.2699
     35 C           7.1066   -2.5780   21.2425 C.3     1  UNL1        0.0757
     36 C           7.8199   -3.7276   21.8904 C.3     1  UNL1        0.0198
     37 C           7.4050   -4.1952   23.2539 C.3     1  UNL1        0.0017
     38 C           6.2767   -3.5132   23.9696 C.3     1  UNL1        0.0001
     39 C           5.5635   -2.3636   23.3217 C.3     1  UNL1        0.0017
     40 C           5.9785   -1.8960   21.9581 C.3     1  UNL1        0.0198
@<TRIPOS>BOND
     1    31    32    1
     2    32    33   am
     3    33    34    2
     4    33    25    1
     5    25    26   ar
     6    26    27   ar
     7    27    28   ar
     8    28    29   ar
     9    29    30   ar
    10    30     1    1
    11     1     2    2
    12     1     3   am
    13     5     3    1
    14     5     6    1
    15     7     6    1
    16     7     8    1
    17     8     9    1
    18    10     9    1
    19    10    11    1
    20    10    12    1
    21    12    13    1
    22    13    14    1
    23    14    15   ar
    24    15    16   ar
    25    16    17   ar
    26    17    18   ar
    27    18    19   ar
    28    19    20    1
    29    19    21   ar
    30    21    22   ar
    31    22    23   ar
    32    23    24   ar
    33    32    35    1
    34    35    36    1
    35    36    37    1
    36    37    38    1
    37    38    39    1
    38    39    40    1
    39    30    25   ar
    40    11     5    1
    41    24    14   ar
    42    40    35    1
    43    12     7    1
    44    23    17   ar
    45     3     4    1
@<TRIPOS>MOLECULE
*****
 40 45 0 0 0
SMALL
GASTEIGER

@<TRIPOS>ATOM
      1 C           1.2824    0.2366   20.9930 C.2     1  UNL1        0.2459
      2 O          -0.2032    0.1964   20.7895 O.2     1  UNL1       -0.2701
      3 N           1.8545    0.8910   22.2155 N.am    1  UNL1       -0.3024
      4 H           2.8296    0.9174   22.3491 H       1  UNL1        0.1497
      5 C           0.9409    1.5051   23.2345 C.3     1  UNL1        0.0745
      6 C           0.2779    2.8205   22.9514 C.3     1  UNL1        0.0356
      7 C          -0.6356    3.4346   23.9703 C.3     1  UNL1        0.0594
      8 C          -1.4308    3.6590   25.2222 C.3     1  UNL1        0.0174
      9 C          -1.1927    2.4946   26.1375 C.3     1  UNL1        0.0174
     10 C          -0.2502    1.5508   25.4512 C.3     1  UNL1        0.0594
     11 C           0.6904    0.8039   24.5366 C.3     1  UNL1        0.0356
     12 N           0.0941    2.1317   24.1118 N.3     1  UNL1       -0.2715
     13 C           1.0076    1.5176   23.0929 C.3     1  UNL1        0.0991
     14 C           2.4081    1.1381   23.4732 C.ar    1  UNL1       -0.0061
     15 C           3.4304    2.2050   23.7312 C.ar    1  UNL1       -0.0029
     16 C           4.8309    1.8256   24.1115 C.ar    1  UNL1       -0.0002
     17 C           5.2091    0.3792   24.2336 C.ar    1  UNL1        0.0022
     18 C           6.6097   -0.0002   24.6139 C.ar    1  UNL1        0.0296
     19 C           6.9879   -1.4466   24.7360 C.ar    1  UNL1        0.1401
     20 F           8.3884   -1.8261   25.1162 F       1  UNL1       -0.2042
     21 C           5.9656   -2.5136   24.4779 C.ar    1  UNL1        0.0296
     22 C           4.5651   -2.1341   24.0977 C.ar    1  UNL1        0.0023
     23 C           4.1869   -0.6877   23.9755 C.ar    1  UNL1       -0.0001
     24 C           2.7864   -0.3083   23.5953 C.ar    1  UNL1       -0.0029
     25 C           2.4566    0.3300   18.6773 C.ar    1  UNL1        0.0579
     26 C           3.3701   -0.2841   17.6583 C.ar    1  UNL1        0.0047
     27 C           4.0229   -1.6058   17.9360 C.ar    1  UNL1        0.0001
     28 C           3.7622   -2.3133   19.2327 C.ar    1  UNL1        0.0001
     29 C           2.8487   -1.6991   20.2517 C.ar    1  UNL1        0.0047
     30 C           2.1959   -0.3775   19.9740 C.ar    1  UNL1        0.0577
     31 C           1.9491    4.2395   18.2209 C.3     1  UNL1        0.1151
     32 N           2.6019    2.9179   18.4987 N.am    1  UNL1       -0.2760
     33 C           1.8039    1.6517   18.3996 C.2     1  UNL1        0.2492
     34 O           0.3530    1.7071   18.0227 O.2     1  UNL1       -0.2699
     35 C           4.0527    2.8625   18.8755 C.3     1  UNL1        0.0757
     36 C           5.1079    2.9839   17.8164 C.3     1  UNL1        0.0198
     37 C           6.5587    2.9286   18.1932 C.3     1  UNL1        0.0017
     38 C           6.9544    2.7517   19.6293 C.3     1  UNL1        0.0001
     39 C           5.8992    2.6302   20.6885 C.3     1  UNL1        0.0017
     40 C           4.4483    2.6856   20.3115 C.3     1  UNL1        0.0198
@<TRIPOS>BOND
     1    31    32    1
     2    32    33   am
     3    33    34    2
     4    33    25    1
     5    25    26   ar
     6    26    27   ar
     7    27    28   ar
     8    28    29   ar
     9    29    30   ar
    10    30     1    1
    11     1     2    2
    12     1     3   am
    13     5     3    1
    14     5     6    1
    15     7     6    1
    16     7     8    1
    17     8     9    1
    18    10     9    1
    19    10    11    1
    20    10    12    1
    21    12    13    1
    22    13    14    1
    23    14    15   ar
    24    15    16   ar
    25    16    17   ar
    26    17    18   ar
    27    18    19   ar
    28    19    20    1
    29    19    21   ar
    30    21    22   ar
    31    22    23   ar
    32    23    24   ar
    33    32    35    1
    34    35    36    1
    35    36    37    1
    36    37    38    1
    37    38    39    1
    38    39    40    1
    39    30    25   ar
    40    11     5    1
    41    24    14   ar
    42    40    35    1
    43    12     7    1
    44    23    17   ar
    45     3     4    1
@<TRIPOS>MOLECULE
*****
 40 45 0 0 0
SMALL
GASTEIGER

@<TRIPOS>ATOM
      1 C           7.6886   -1.3582   23.9179 C.2     1  UNL1        0.2459
      2 O           8.7394   -1.6794   24.9391 O.2     1  UNL1       -0.2701
      3 N           7.0905   -2.4544   23.0868 N.am    1  UNL1       -0.3024
      4 H           6.4008   -2.2436   22.4166 H       1  UNL1        0.1497
      5 C           7.5432   -3.8718   23.2769 C.3     1  UNL1        0.0745
      6 C           7.1043   -4.6435   24.4860 C.3     1  UNL1        0.0356
      7 C           7.5570   -6.0609   24.6761 C.3     1  UNL1        0.0594
      8 C           8.2249   -7.3864   24.4595 C.3     1  UNL1        0.0174
      9 C           8.9931   -7.3135   23.1731 C.3     1  UNL1        0.0174
     10 C           8.7999   -5.9430   22.5948 C.3     1  UNL1        0.0594
     11 C           8.4348   -4.5174   22.2580 C.3     1  UNL1        0.0356
     12 N           7.9124   -5.1688   23.5237 N.3     1  UNL1       -0.2715
     13 C           7.4597   -3.7515   23.3336 C.3     1  UNL1        0.0991
     14 C           6.5876   -3.3928   22.1670 C.ar    1  UNL1       -0.0061
     15 C           5.1979   -3.9490   22.0705 C.ar    1  UNL1       -0.0029
     16 C           4.3259   -3.5903   20.9039 C.ar    1  UNL1       -0.0002
     17 C           4.8435   -2.6753   19.8339 C.ar    1  UNL1        0.0022
     18 C           3.9714   -2.3166   18.6673 C.ar    1  UNL1        0.0296
     19 C           4.4891   -1.4017   17.5973 C.ar    1  UNL1        0.1401
     20 F           3.6171   -1.0429   16.4308 F       1  UNL1       -0.2042
     21 C           5.8789   -0.8455   17.6939 C.ar    1  UNL1        0.0296
     22 C           6.7509   -1.2042   18.8604 C.ar    1  UNL1        0.0023
     23 C           6.2332   -2.1191   19.9304 C.ar    1  UNL1       -0.0001
     24 C           7.1052   -2.4779   21.0970 C.ar    1  UNL1       -0.0029
     25 C           6.2378    0.6607   24.6722 C.ar    1  UNL1        0.0579
     26 C           5.7851    2.0781   24.4822 C.ar    1  UNL1        0.0047
     27 C           6.3305    2.8939   23.3477 C.ar    1  UNL1        0.0001
     28 C           7.3286    2.2923   22.4033 C.ar    1  UNL1        0.0001
     29 C           7.7813    0.8749   22.5934 C.ar    1  UNL1        0.0047
     30 C           7.2359    0.0591   23.7278 C.ar    1  UNL1        0.0577
     31 C           3.7229   -1.4411   26.9101 C.3     1  UNL1        0.1151
     32 N           4.2683   -0.6253   25.7755 N.am    1  UNL1       -0.2760
     33 C           5.6923   -0.1550   25.8067 C.2     1  UNL1        0.2492
     34 O           6.5710   -0.5005   26.9723 O.2     1  UNL1       -0.2699
     35 C           3.3897   -0.2798   24.6099 C.3     1  UNL1        0.0757
     36 C           2.2731    0.7074   24.7791 C.3     1  UNL1        0.0198
     37 C           1.3944    1.0529   23.6135 C.3     1  UNL1        0.0017
     38 C           1.6324    0.4112   22.2787 C.3     1  UNL1        0.0001
     39 C           2.7491   -0.5760   22.1095 C.3     1  UNL1        0.0017
     40 C           3.6277   -0.9215   23.2752 C.3     1  UNL1        0.0198
@<TRIPOS>BOND
     1    31    32    1
     2    32    33   am
     3    33    34    2
     4    33    25    1
     5    25    26   ar
     6    26    27   ar
     7    27    28   ar
     8    28    29   ar
     9    29    30   ar
    10    30     1    1
    11     1     2    2
    12     1     3   am
    13     5     3    1
    14     5     6    1
    15     7     6    1
    16     7     8    1
    17     8     9    1
    18    10     9    1
    19    10    11    1
    20    10    12    1
    21    12    13    1
    22    13    14    1
    23    14    15   ar
    24    15    16   ar
    25    16    17   ar
    26    17    18   ar
    27    18    19   ar
    28    19    20    1
    29    19    21   ar
    30    21    22   ar
    31    22    23   ar
    32    23    24   ar
    33    32    35    1
    34    35    36    1
    35    36    37    1
    36    37    38    1
    37    38    39    1
    38    39    40    1
    39    30    25   ar
    40    11     5    1
    41    24    14   ar
    42    40    35    1
    43    12     7    1
    44    23    17   ar
    45     3     4    1
@<TRIPOS>MOLECULE
*****
 40 45 0 0 0
SMALL
GASTEIGER

@<TRIPOS>ATOM
      1 C           4.8306   -3.2971   22.6328 C.2     1  UNL1        0.2459
      2 O           4.3737   -4.6093   22.0676 O.2     1  UNL1       -0.2701
      3 N           6.1428   -3.2072   23.3539 N.am    1  UNL1       -0.3024
      4 H           6.4427   -2.3460   23.7249 H       1  UNL1        0.1497
      5 C           6.9982   -4.4296   23.5097 C.3     1  UNL1        0.0745
      6 C           7.9421   -4.8291   22.4145 C.3     1  UNL1        0.0356
      7 C           8.7974   -6.0514   22.5703 C.3     1  UNL1        0.0594
      8 C           9.4268   -7.2894   23.1371 C.3     1  UNL1        0.0174
      9 C           8.8307   -7.5337   24.4918 C.3     1  UNL1        0.0174
     10 C           7.8331   -6.4468   24.7622 C.3     1  UNL1        0.0594
     11 C           6.9098   -5.2523   24.7608 C.3     1  UNL1        0.0356
     12 N           7.8125   -5.5306   23.5747 N.3     1  UNL1       -0.2715
     13 C           6.9571   -4.3083   23.4189 C.3     1  UNL1        0.0991
     14 C           7.0724   -3.1818   24.4027 C.ar    1  UNL1       -0.0061
     15 C           8.0983   -2.1074   24.1957 C.ar    1  UNL1       -0.0029
     16 C           8.2136   -0.9810   25.1795 C.ar    1  UNL1       -0.0002
     17 C           7.3028   -0.9290   26.3702 C.ar    1  UNL1        0.0022
     18 C           7.4181    0.1975   27.3540 C.ar    1  UNL1        0.0296
     19 C           6.5073    0.2495   28.5447 C.ar    1  UNL1        0.1401
     20 F           6.6226    1.3759   29.5285 F       1  UNL1       -0.2042
     21 C           5.4813   -0.8251   28.7517 C.ar    1  UNL1        0.0296
     22 C           5.3661   -1.9515   27.7679 C.ar    1  UNL1        0.0023
     23 C           6.2769   -2.0034   26.5772 C.ar    1  UNL1       -0.0001
     24 C           6.1616   -3.1299   25.5934 C.ar    1  UNL1       -0.0029
     25 C           3.5589   -1.6201   21.1095 C.ar    1  UNL1        0.0579
     26 C           2.7036   -0.3978   20.9536 C.ar    1  UNL1        0.0047
     27 C           2.2644    0.3698   22.1652 C.ar    1  UNL1        0.0001
     28 C           2.6807   -0.0849   23.5327 C.ar    1  UNL1        0.0001
     29 C           3.5362   -1.3072   23.6885 C.ar    1  UNL1        0.0047
     30 C           3.9752   -2.0748   22.4769 C.ar    1  UNL1        0.0577
     31 C           5.7132   -2.7891   17.9881 C.3     1  UNL1        0.1151
     32 N           5.2741   -2.0214   19.1998 N.am    1  UNL1       -0.2760
     33 C           3.9980   -2.3877   19.8979 C.2     1  UNL1        0.2492
     34 O           3.1609   -3.5216   19.3844 O.2     1  UNL1       -0.2699
     35 C           6.1112   -0.8876   19.7132 C.3     1  UNL1        0.0757
     36 C           7.2210   -1.1553   20.6862 C.3     1  UNL1        0.0198
     37 C           8.0580   -0.0214   21.1997 C.3     1  UNL1        0.0017
     38 C           7.7853    1.3802   20.7401 C.3     1  UNL1        0.0001
     39 C           6.6755    1.6479   19.7672 C.3     1  UNL1        0.0017
     40 C           5.8384    0.5140   19.2537 C.3     1  UNL1        0.0198
@<TRIPOS>BOND
     1    31    32    1
     2    32    33   am
     3    33    34    2
     4    33    25    1
     5    25    26   ar
     6    26    27   ar
     7    27    28   ar
     8    28    29   ar
     9    29    30   ar
    10    30     1    1
    11     1     2    2
    12     1     3   am
    13     5     3    1
    14     5     6    1
    15     7     6    1
    16     7     8    1
    17     8     9    1
    18    10     9    1
    19    10    11    1
    20    10    12    1
    21    12    13    1
    22    13    14    1
    23    14    15   ar
    24    15    16   ar
    25    16    17   ar
    26    17    18   ar
    27    18    19   ar
    28    19    20    1
    29    19    21   ar
    30    21    22   ar
    31    22    23   ar
    32    23    24   ar
    33    32    35    1
    34    35    36    1
    35    36    37    1
    36    37    38    1
    37    38    39    1
    38    39    40    1
    39    30    25   ar
    40    11     5    1
    41    24    14   ar
    42    40    35    1
    43    12     7    1
    44    23    17   ar
    45     3     4    1
@<TRIPOS>MOLECULE
*****
 40 45 0 0 0
SMALL
GASTEIGER

@<TRIPOS>ATOM
      1 C           3.6977   -0.4057   31.4551 C.2     1  UNL1        0.2459
      2 O           2.7996   -1.5704   31.1603 O.2     1  UNL1       -0.2701
      3 N           5.1781   -0.6129   31.5798 N.am    1  UNL1       -0.3024
      4 H           5.7676    0.1515   31.7733 H       1  UNL1        0.1497
      5 C           5.7603   -1.9848   31.4097 C.3     1  UNL1        0.0745
      6 C           6.3406   -2.3948   30.0887 C.3     1  UNL1        0.0356
      7 C           6.9228   -3.7666   29.9185 C.3     1  UNL1        0.0594
      8 C           7.3734   -5.1698   30.1978 C.3     1  UNL1        0.0174
      9 C           7.0395   -5.4885   31.6251 C.3     1  UNL1        0.0174
     10 C           6.3826   -4.2822   32.2279 C.3     1  UNL1        0.0594
     11 C           5.7623   -2.9467   32.5607 C.3     1  UNL1        0.0356
     12 N           6.3105   -3.2181   31.1732 N.3     1  UNL1       -0.2715
     13 C           5.7283   -1.8462   31.3433 C.3     1  UNL1        0.0991
     14 C           6.1355   -0.9982   32.5117 C.ar    1  UNL1       -0.0061
     15 C           7.3597   -0.1360   32.4222 C.ar    1  UNL1       -0.0029
     16 C           7.7669    0.7119   33.5905 C.ar    1  UNL1       -0.0002
     17 C           6.9499    0.6978   34.8484 C.ar    1  UNL1        0.0022
     18 C           7.3571    1.5458   36.0168 C.ar    1  UNL1        0.0296
     19 C           6.5402    1.5316   37.2748 C.ar    1  UNL1        0.1401
     20 F           6.9474    2.3796   38.4431 F       1  UNL1       -0.2042
     21 C           5.3159    0.6694   37.3643 C.ar    1  UNL1        0.0296
     22 C           4.9088   -0.1786   36.1959 C.ar    1  UNL1        0.0023
     23 C           5.7257   -0.1644   34.9380 C.ar    1  UNL1       -0.0001
     24 C           5.3185   -1.0124   33.7696 C.ar    1  UNL1       -0.0029
     25 C           3.2355    1.9741   30.5208 C.ar    1  UNL1        0.0579
     26 C           2.6533    3.3460   30.6909 C.ar    1  UNL1        0.0047
     27 C           1.9509    3.7099   31.9654 C.ar    1  UNL1        0.0001
     28 C           1.8308    2.7020   33.0697 C.ar    1  UNL1        0.0001
     29 C           2.4131    1.3301   32.8996 C.ar    1  UNL1        0.0047
     30 C           3.1155    0.9662   31.6252 C.ar    1  UNL1        0.0577
     31 C           3.8485    0.7835   26.7849 C.3     1  UNL1        0.1151
     32 N           3.1460    1.1474   28.0594 N.am    1  UNL1       -0.2760
     33 C           3.9379    1.6102   29.2464 C.2     1  UNL1        0.2492
     34 O           5.4321    1.7091   29.1588 O.2     1  UNL1       -0.2699
     35 C           1.6519    1.0485   28.1469 C.3     1  UNL1        0.0757
     36 C           1.0152   -0.1621   28.7626 C.3     1  UNL1        0.0198
     37 C          -0.4790   -0.2611   28.8501 C.3     1  UNL1        0.0017
     38 C          -1.3365    0.8506   28.3219 C.3     1  UNL1        0.0001
     39 C          -0.6997    2.0612   27.7063 C.3     1  UNL1        0.0017
     40 C           0.7945    2.1601   27.6188 C.3     1  UNL1        0.0198
@<TRIPOS>BOND
     1    31    32    1
     2    32    33   am
     3    33    34    2
     4    33    25    1
     5    25    26   ar
     6    26    27   ar
     7    27    28   ar
     8    28    29   ar
     9    29    30   ar
    10    30     1    1
    11     1     2    2
    12     1     3   am
    13     5     3    1
    14     5     6    1
    15     7     6    1
    16     7     8    1
    17     8     9    1
    18    10     9    1
    19    10    11    1
    20    10    12    1
    21    12    13    1
    22    13    14    1
    23    14    15   ar
    24    15    16   ar
    25    16    17   ar
    26    17    18   ar
    27    18    19   ar
    28    19    20    1
    29    19    21   ar
    30    21    22   ar
    31    22    23   ar
    32    23    24   ar
    33    32    35    1
    34    35    36    1
    35    36    37    1
    36    37    38    1
    37    38    39    1
    38    39    40    1
    39    30    25   ar
    40    11     5    1
    41    24    14   ar
    42    40    35    1
    43    12     7    1
    44    23    17   ar
    45     3     4    1
@<TRIPOS>MOLECULE
*****
 40 45 0 0 0
SMALL
GASTEIGER

@<TRIPOS>ATOM
      1 C           5.3592    3.1118   36.3301 C.2     1  UNL1        0.2459
      2 O           5.8257    3.1791   37.7542 O.2     1  UNL1       -0.2701
      3 N           3.9542    2.6876   36.0204 N.am    1  UNL1       -0.3024
      4 H           3.6480    2.6435   35.0857 H       1  UNL1        0.1497
      5 C           3.0156    2.3306   37.1348 C.3     1  UNL1        0.0745
      6 C           2.9571    0.9206   37.6433 C.3     1  UNL1        0.0356
      7 C           2.0187    0.5636   38.7576 C.3     1  UNL1        0.0594
      8 C           0.9796    0.6634   39.8348 C.3     1  UNL1        0.0174
      9 C           0.5053    2.0854   39.8909 C.3     1  UNL1        0.0174
     10 C           1.2513    2.8643   38.8485 C.3     1  UNL1        0.0594
     11 C           2.1357    3.3835   37.7406 C.3     1  UNL1        0.0356
     12 N           2.1866    1.9238   38.1481 N.3     1  UNL1       -0.2715
     13 C           3.1251    2.2809   37.0337 C.3     1  UNL1        0.0991
     14 C           2.5810    2.6905   35.6972 C.ar    1  UNL1       -0.0061
     15 C           1.9454    4.0385   35.5274 C.ar    1  UNL1       -0.0029
     16 C           1.4013    4.4481   34.1909 C.ar    1  UNL1       -0.0002
     17 C           1.4930    3.5097   33.0242 C.ar    1  UNL1        0.0022
     18 C           0.9489    3.9194   31.6877 C.ar    1  UNL1        0.0296
     19 C           1.0406    2.9810   30.5210 C.ar    1  UNL1        0.1401
     20 F           0.4966    3.3906   29.1845 F       1  UNL1       -0.2042
     21 C           1.6763    1.6330   30.6909 C.ar    1  UNL1        0.0296
     22 C           2.2203    1.2234   32.0274 C.ar    1  UNL1        0.0023
     23 C           2.1287    2.1618   33.1941 C.ar    1  UNL1       -0.0001
     24 C           2.6727    1.7522   34.5305 C.ar    1  UNL1       -0.0029
     25 C           7.6995    2.9350   35.2158 C.ar    1  UNL1        0.0579
     26 C           8.6380    3.2920   34.1015 C.ar    1  UNL1        0.0047
     27 C           8.1748    4.1829   32.9871 C.ar    1  UNL1        0.0001
     28 C           6.7730    4.7168   32.9871 C.ar    1  UNL1        0.0001
     29 C           5.8344    4.3597   34.1015 C.ar    1  UNL1        0.0047
     30 C           6.2977    3.4688   35.2158 C.ar    1  UNL1        0.0577
     31 C           8.3130   -0.3133   37.4118 C.3     1  UNL1        0.1151
     32 N           7.8497    0.5776   36.2974 N.am    1  UNL1       -0.2760
     33 C           8.1628    2.0441   36.3301 C.2     1  UNL1        0.2492
     34 O           8.9392    2.6199   37.4772 O.2     1  UNL1       -0.2699
     35 C           7.0732    0.0018   35.1504 C.3     1  UNL1        0.0757
     36 C           7.7347   -0.1893   33.8177 C.3     1  UNL1        0.0198
     37 C           6.9583   -0.7650   32.6707 C.3     1  UNL1        0.0017
     38 C           5.5204   -1.1497   32.8563 C.3     1  UNL1        0.0001
     39 C           4.8589   -0.9586   34.1889 C.3     1  UNL1        0.0017
     40 C           5.6354   -0.3828   35.3360 C.3     1  UNL1        0.0198
@<TRIPOS>BOND
     1    31    32    1
     2    32    33   am
     3    33    34    2
     4    33    25    1
     5    25    26   ar
     6    26    27   ar
     7    27    28   ar
     8    28    29   ar
     9    29    30   ar
    10    30     1    1
    11     1     2    2
    12     1     3   am
    13     5     3    1
    14     5     6    1
    15     7     6    1
    16     7     8    1
    17     8     9    1
    18    10     9    1
    19    10    11    1
    20    10    12    1
    21    12    13    1
    22    13    14    1
    23    14    15   ar
    24    15    16   ar
    25    16    17   ar
    26    17    18   ar
    27    18    19   ar
    28    19    20    1
    29    19    21   ar
    30    21    22   ar
    31    22    23   ar
    32    23    24   ar
    33    32    35    1
    34    35    36    1
    35    36    37    1
    36    37    38    1
    37    38    39    1
    38    39    40    1
    39    30    25   ar
    40    11     5    1
    41    24    14   ar
    42    40    35    1
    43    12     7    1
    44    23    17   ar
    45     3     4    1
@<TRIPOS>MOLECULE
*****
 40 45 0 0 0
SMALL
GASTEIGER

@<TRIPOS>ATOM
      1 C           1.6366    4.1149   21.9025 C.2     1  UNL1        0.2459
      2 O           0.8760    5.3807   22.1661 O.2     1  UNL1       -0.2701
      3 N           1.0700    3.0780   20.9786 N.am    1  UNL1       -0.3024
      4 H           1.5692    2.2473   20.8056 H       1  UNL1        0.1497
      5 C          -0.2573    3.3068   20.3182 C.3     1  UNL1        0.0745
      6 C          -1.5260    3.0679   21.0818 C.3     1  UNL1        0.0356
      7 C          -2.8533    3.2967   20.4215 C.3     1  UNL1        0.0594
      8 C          -3.8996    3.6403   19.4032 C.3     1  UNL1        0.0174
      9 C          -3.2008    4.0483   18.1401 C.3     1  UNL1        0.0174
     10 C          -1.7226    3.9567   18.3778 C.3     1  UNL1        0.0594
     11 C          -0.3157    3.7744   18.8942 C.3     1  UNL1        0.0356
     12 N          -1.5078    3.4922   19.7878 N.3     1  UNL1       -0.2715
     13 C          -0.1806    3.2635   20.4481 C.3     1  UNL1        0.0991
     14 C           0.6576    2.0822   20.0579 C.ar    1  UNL1       -0.0061
     15 C           0.1995    0.6939   20.3933 C.ar    1  UNL1       -0.0029
     16 C           1.0377   -0.4872   20.0031 C.ar    1  UNL1       -0.0002
     17 C           2.3340   -0.2800   19.2774 C.ar    1  UNL1        0.0022
     18 C           3.1722   -1.4612   18.8871 C.ar    1  UNL1        0.0296
     19 C           4.4685   -1.2540   18.1614 C.ar    1  UNL1        0.1401
     20 F           5.3067   -2.4351   17.7712 F       1  UNL1       -0.2042
     21 C           4.9266    0.1345   17.8260 C.ar    1  UNL1        0.0296
     22 C           4.0884    1.3156   18.2162 C.ar    1  UNL1        0.0023
     23 C           2.7921    1.1084   18.9419 C.ar    1  UNL1       -0.0001
     24 C           1.9539    2.2895   19.3322 C.ar    1  UNL1       -0.0029
     25 C           3.0224    3.3640   23.9679 C.ar    1  UNL1        0.0579
     26 C           4.3496    3.1352   24.6283 C.ar    1  UNL1        0.0047
     27 C           5.6183    3.4287   23.8837 C.ar    1  UNL1        0.0001
     28 C           5.5597    3.9509   22.4788 C.ar    1  UNL1        0.0001
     29 C           4.2325    4.1797   21.8184 C.ar    1  UNL1        0.0047
     30 C           2.9638    3.8862   22.5629 C.ar    1  UNL1        0.0577
     31 C           0.1270    1.3613   25.7999 C.3     1  UNL1        0.1151
     32 N           1.3958    1.6548   25.0554 N.am    1  UNL1       -0.2760
     33 C           1.7538    3.0705   24.7124 C.2     1  UNL1        0.2492
     34 O           0.8430    4.1927   25.1140 O.2     1  UNL1       -0.2699
     35 C           2.3064    0.5325   24.6538 C.3     1  UNL1        0.0757
     36 C           2.4105    0.1303   23.2125 C.3     1  UNL1        0.0198
     37 C           3.3212   -0.9919   22.8109 C.3     1  UNL1        0.0017
     38 C           4.1277   -1.7120   23.8506 C.3     1  UNL1        0.0001
     39 C           4.0236   -1.3098   25.2920 C.3     1  UNL1        0.0017
     40 C           3.1129   -0.1875   25.6935 C.3     1  UNL1        0.0198
@<TRIPOS>BOND
     1    31    32    1
     2    32    33   am
     3    33    34    2
     4    33    25    1
     5    25    26   ar
     6    26    27   ar
     7    27    28   ar
     8    28    29   ar
     9    29    30   ar
    10    30     1    1
    11     1     2    2
    12     1     3   am
    13     5     3    1
    14     5     6    1
    15     7     6    1
    16     7     8    1
    17     8     9    1
    18    10     9    1
    19    10    11    1
    20    10    12    1
    21    12    13    1
    22    13    14    1
    23    14    15   ar
    24    15    16   ar
    25    16    17   ar
    26    17    18   ar
    27    18    19   ar
    28    19    20    1
    29    19    21   ar
    30    21    22   ar
    31    22    23   ar
    32    23    24   ar
    33    32    35    1
    34    35    36    1
    35    36    37    1
    36    37    38    1
    37    38    39    1
    38    39    40    1
    39    30    25   ar
    40    11     5    1
    41    24    14   ar
    42    40    35    1
    43    12     7    1
    44    23    17   ar
    45     3     4    1
@<TRIPOS>MOLECULE
*****
 40 45 0 0 0
SMALL
GASTEIGER

@<TRIPOS>ATOM
      1 C           6.0663    0.2491   20.8241 C.2     1  UNL1        0.2459
      2 O           7.1901   -0.6935   21.1381 O.2     1  UNL1       -0.2701
      3 N           4.7864   -0.2763   20.2447 N.am    1  UNL1       -0.3024
      4 H           4.0488    0.3423   20.0386 H       1  UNL1        0.1497
      5 C           4.6303   -1.7445   19.9793 C.3     1  UNL1        0.0745
      6 C           5.1923   -2.3436   18.7243 C.3     1  UNL1        0.0356
      7 C           5.0363   -3.8116   18.4588 C.3     1  UNL1        0.0594
      8 C           4.6595   -5.2560   18.6068 C.3     1  UNL1        0.0174
      9 C           3.9204   -5.4117   19.9028 C.3     1  UNL1        0.0174
     10 C           3.8404   -4.0636   20.5557 C.3     1  UNL1        0.0594
     11 C           3.9122   -2.6133   20.9689 C.3     1  UNL1        0.0356
     12 N           4.5301   -3.0747   19.6633 N.3     1  UNL1       -0.2715
     13 C           4.6861   -1.6067   19.9287 C.3     1  UNL1        0.0991
     14 C           3.4766   -0.7208   19.9786 C.ar    1  UNL1       -0.0061
     15 C           2.7032   -0.4362   18.7252 C.ar    1  UNL1       -0.0029
     16 C           1.4938    0.4496   18.7751 C.ar    1  UNL1       -0.0002
     17 C           1.0578    1.0510   20.0783 C.ar    1  UNL1        0.0022
     18 C          -0.1516    1.9369   20.1282 C.ar    1  UNL1        0.0296
     19 C          -0.5876    2.5382   21.4314 C.ar    1  UNL1        0.1401
     20 F          -1.7971    3.4240   21.4812 F       1  UNL1       -0.2042
     21 C           0.1858    2.2536   22.6847 C.ar    1  UNL1        0.0296
     22 C           1.3952    1.3677   22.6348 C.ar    1  UNL1        0.0023
     23 C           1.8312    0.7664   21.3316 C.ar    1  UNL1       -0.0001
     24 C           3.0406   -0.1195   21.2818 C.ar    1  UNL1       -0.0029
     25 C           6.8899    2.5962   20.0737 C.ar    1  UNL1        0.0579
     26 C           7.0460    4.0642   20.3391 C.ar    1  UNL1        0.0047
     27 C           6.5346    4.6533   21.6204 C.ar    1  UNL1        0.0001
     28 C           5.8672    3.7743   22.6362 C.ar    1  UNL1        0.0001
     29 C           5.7111    2.3062   22.3707 C.ar    1  UNL1        0.0047
     30 C           6.2224    1.7172   21.0895 C.ar    1  UNL1        0.0577
     31 C           7.2018    1.6986   16.2205 C.3     1  UNL1        0.1151
     32 N           6.6903    2.2877   17.5018 N.am    1  UNL1       -0.2760
     33 C           7.4012    2.0071   18.7925 C.2     1  UNL1        0.2492
     34 O           8.6234    1.1376   18.8020 O.2     1  UNL1       -0.2699
     35 C           5.4682    3.1572   17.4922 C.3     1  UNL1        0.0757
     36 C           4.2395    2.7322   18.2404 C.3     1  UNL1        0.0198
     37 C           3.0173    3.6018   18.2309 C.3     1  UNL1        0.0017
     38 C           3.0238    4.8963   17.4731 C.3     1  UNL1        0.0001
     39 C           4.2524    5.3213   16.7250 C.3     1  UNL1        0.0017
     40 C           5.4746    4.4517   16.7345 C.3     1  UNL1        0.0198
@<TRIPOS>BOND
     1    31    32    1
     2    32    33   am
     3    33    34    2
     4    33    25    1
     5    25    26   ar
     6    26    27   ar
     7    27    28   ar
     8    28    29   ar
     9    29    30   ar
    10    30     1    1
    11     1     2    2
    12     1     3   am
    13     5     3    1
    14     5     6    1
    15     7     6    1
    16     7     8    1
    17     8     9    1
    18    10     9    1
    19    10    11    1
    20    10    12    1
    21    12    13    1
    22    13    14    1
    23    14    15   ar
    24    15    16   ar
    25    16    17   ar
    26    17    18   ar
    27    18    19   ar
    28    19    20    1
    29    19    21   ar
    30    21    22   ar
    31    22    23   ar
    32    23    24   ar
    33    32    35    1
    34    35    36    1
    35    36    37    1
    36    37    38    1
    37    38    39    1
    38    39    40    1
    39    30    25   ar
    40    11     5    1
    41    24    14   ar
    42    40    35    1
    43    12     7    1
    44    23    17   ar
    45     3     4    1
