@<TRIPOS>MOLECULE
*****
 28 30 0 0 0
SMALL
GASTEIGER

@<TRIPOS>ATOM
      1 C          -8.6150  -19.4501   22.7778 C.ar    1  UNL1        0.0800
      2 C          -7.6485  -19.9057   21.7252 C.ar    1  UNL1        0.0234
      3 C          -6.4227  -19.0931   21.4304 C.ar    1  UNL1        0.0720
      4 C          -6.1634  -17.8248   22.1882 C.ar    1  UNL1        0.0857
      5 N          -7.1300  -17.3692   23.2408 N.ar    1  UNL1       -0.2917
      6 C          -7.1396  -16.1715   24.1438 C.ar    1  UNL1        0.0567
      7 C          -6.1000  -15.0911   24.1864 C.3     1  UNL1        0.0517
      8 C          -8.3714  -16.2440   24.9968 C.ar    1  UNL1        0.0730
      9 C          -8.7798  -15.2486   26.0421 C.3     1  UNL1        0.0534
     10 N          -9.1231  -17.4864   24.6209 N.ar    1  UNL1       -0.2299
     11 C          -8.3558  -18.1819   23.5356 C.ar    1  UNL1        0.1603
     12 C          -5.4560  -19.5487   20.3777 C.2     1  UNL1        0.2443
     13 N          -4.7648  -18.5411   19.5076 N.am    1  UNL1       -0.3253
     14 O          -5.1806  -21.0118   20.1951 O.2     1  UNL1       -0.2703
     15 H          -4.9456  -17.5808   19.6274 H       1  UNL1        0.1453
     16 H          -4.1304  -18.8401   18.8167 H       1  UNL1        0.1453
     17 N          -9.8409  -20.2628   23.0727 N.pl3   1  UNL1       -0.3267
     18 H          -9.8470  -20.8857   23.8351 H       1  UNL1        0.1472
     19 C         -11.0576  -20.1263   22.2060 C.3     1  UNL1        0.1137
     20 C         -12.1819  -17.7953   22.4338 C.ar    1  UNL1       -0.0248
     21 C         -12.5385  -16.4620   21.8461 C.ar    1  UNL1       -0.0045
     22 C         -12.1273  -16.1266   20.4432 C.ar    1  UNL1       -0.0007
     23 C         -11.3595  -17.1244   19.6278 C.ar    1  UNL1       -0.0045
     24 C         -11.0029  -18.4576   20.2154 C.ar    1  UNL1       -0.0245
     25 C         -10.2351  -19.4554   19.4000 C.3     1  UNL1        0.0307
     26 C         -11.4141  -18.7931   21.6184 C.ar    1  UNL1       -0.0105
     27 C         -14.0422  -18.0944   24.2226 C.3     1  UNL1        0.0050
     28 C         -12.5932  -18.1307   23.8368 C.3     1  UNL1        0.0261
@<TRIPOS>BOND
     1    27    28    1
     2    28    20    1
     3    20    21   ar
     4    21    22   ar
     5    22    23   ar
     6    23    24   ar
     7    24    25    1
     8    24    26   ar
     9    26    19    1
    10    19    17    1
    11    17     1    1
    12     1     2   ar
    13     2     3   ar
    14     3    12    1
    15    12    13   am
    16    12    14    2
    17     3     4   ar
    18     4     5   ar
    19     5     6   ar
    20     6     7    1
    21     6     8   ar
    22     8     9    1
    23     8    10   ar
    24    10    11   ar
    25    26    20   ar
    26    11     1   ar
    27    11     5   ar
    28    17    18    1
    29    13    15    1
    30    13    16    1
@<TRIPOS>MOLECULE
*****
 28 30 0 0 0
SMALL
GASTEIGER

@<TRIPOS>ATOM
      1 C          -7.7520  -18.1144   21.6004 C.ar    1  UNL1        0.0800
      2 C          -8.2702  -17.1082   22.5848 C.ar    1  UNL1        0.0234
      3 C          -7.3353  -16.4746   23.5720 C.ar    1  UNL1        0.0720
      4 C          -5.8824  -16.8471   23.5748 C.ar    1  UNL1        0.0857
      5 N          -5.3642  -17.8534   22.5904 N.ar    1  UNL1       -0.2917
      6 C          -3.9930  -18.4147   22.3565 C.ar    1  UNL1        0.0567
      7 C          -2.7523  -18.0580   23.1202 C.3     1  UNL1        0.0517
      8 C          -4.0804  -19.3952   21.2247 C.ar    1  UNL1        0.0730
      9 C          -2.9423  -20.1913   20.6580 C.3     1  UNL1        0.0534
     10 N          -5.5056  -19.4399   20.7591 N.ar    1  UNL1       -0.2299
     11 C          -6.2990  -18.4870   21.6032 C.ar    1  UNL1        0.1603
     12 C          -7.8535  -15.4683   24.5564 C.2     1  UNL1        0.2443
     13 N          -7.8947  -14.0141   24.1910 N.am    1  UNL1       -0.3253
     14 O          -8.3303  -15.9163   25.9061 O.2     1  UNL1       -0.2703
     15 H          -7.5818  -13.7200   23.3051 H       1  UNL1        0.1453
     16 H          -8.2348  -13.3536   24.8370 H       1  UNL1        0.1453
     17 N          -8.6869  -18.7481   20.6132 N.pl3   1  UNL1       -0.3267
     18 H          -8.5535  -18.6066   19.6481 H       1  UNL1        0.1472
     19 C          -9.8250  -19.5973   21.0964 C.3     1  UNL1        0.1137
     20 C         -11.8166  -17.9852   21.5260 C.ar    1  UNL1       -0.0248
     21 C         -12.8425  -17.4066   22.4550 C.ar    1  UNL1       -0.0045
     22 C         -12.9025  -17.8614   23.8831 C.ar    1  UNL1       -0.0007
     23 C         -11.9367  -18.8948   24.3823 C.ar    1  UNL1       -0.0045
     24 C         -10.9109  -19.4734   23.4535 C.ar    1  UNL1       -0.0245
     25 C          -9.9451  -20.5068   23.9527 C.3     1  UNL1        0.0307
     26 C         -10.8508  -19.0186   22.0253 C.ar    1  UNL1       -0.0105
     27 C         -11.4461  -16.0979   19.7794 C.3     1  UNL1        0.0050
     28 C         -11.7566  -17.5305   20.0979 C.3     1  UNL1        0.0261
@<TRIPOS>BOND
     1    27    28    1
     2    28    20    1
     3    20    21   ar
     4    21    22   ar
     5    22    23   ar
     6    23    24   ar
     7    24    25    1
     8    24    26   ar
     9    26    19    1
    10    19    17    1
    11    17     1    1
    12     1     2   ar
    13     2     3   ar
    14     3    12    1
    15    12    13   am
    16    12    14    2
    17     3     4   ar
    18     4     5   ar
    19     5     6   ar
    20     6     7    1
    21     6     8   ar
    22     8     9    1
    23     8    10   ar
    24    10    11   ar
    25    26    20   ar
    26    11     1   ar
    27    11     5   ar
    28    17    18    1
    29    13    15    1
    30    13    16    1
@<TRIPOS>MOLECULE
*****
 28 30 0 0 0
SMALL
GASTEIGER

@<TRIPOS>ATOM
      1 C          -8.6101  -19.5147   22.9163 C.ar    1  UNL1        0.0800
      2 C          -7.6165  -20.0288   21.9172 C.ar    1  UNL1        0.0234
      3 C          -6.3805  -19.2356   21.6122 C.ar    1  UNL1        0.0720
      4 C          -6.1381  -17.9282   22.3065 C.ar    1  UNL1        0.0857
      5 N          -7.1317  -17.4141   23.3056 N.ar    1  UNL1       -0.2917
      6 C          -7.1623  -16.1688   24.1412 C.ar    1  UNL1        0.0567
      7 C          -6.1207  -15.0894   24.1533 C.3     1  UNL1        0.0517
      8 C          -8.4172  -16.1923   24.9626 C.ar    1  UNL1        0.0730
      9 C          -8.8509  -15.1406   25.9403 C.3     1  UNL1        0.0534
     10 N          -9.1622  -17.4522   24.6347 N.ar    1  UNL1       -0.2299
     11 C          -8.3677  -18.2073   23.6105 C.ar    1  UNL1        0.1603
     12 C          -5.3869  -19.7498   20.6130 C.2     1  UNL1        0.2443
     13 N          -4.3545  -18.8257   20.0383 N.am    1  UNL1       -0.3253
     14 O          -5.4256  -21.1879   20.1886 O.2     1  UNL1       -0.2703
     15 H          -4.3291  -17.8818   20.3168 H       1  UNL1        0.1453
     16 H          -3.7023  -19.1631   19.3825 H       1  UNL1        0.1453
     17 N          -9.8462  -20.3079   23.2213 N.pl3   1  UNL1       -0.3267
     18 H          -9.8698  -20.8998   24.0077 H       1  UNL1        0.1472
     19 C         -11.0464  -20.1993   22.3281 C.3     1  UNL1        0.1137
     20 C         -10.9480  -18.6646   20.2341 C.ar    1  UNL1       -0.0248
     21 C         -11.2673  -17.3621   19.5619 C.ar    1  UNL1       -0.0045
     22 C         -12.0042  -16.2921   20.3115 C.ar    1  UNL1       -0.0007
     23 C         -12.4219  -16.5245   21.7333 C.ar    1  UNL1       -0.0045
     24 C         -12.1027  -17.8269   22.4055 C.ar    1  UNL1       -0.0245
     25 C         -12.5204  -18.0592   23.8273 C.3     1  UNL1        0.0307
     26 C         -11.3657  -18.8969   21.6559 C.ar    1  UNL1       -0.0105
     27 C          -8.8718  -19.4382   18.8772 C.3     1  UNL1        0.0050
     28 C         -10.2110  -19.7346   19.4845 C.3     1  UNL1        0.0261
@<TRIPOS>BOND
     1    27    28    1
     2    28    20    1
     3    20    21   ar
     4    21    22   ar
     5    22    23   ar
     6    23    24   ar
     7    24    25    1
     8    24    26   ar
     9    26    19    1
    10    19    17    1
    11    17     1    1
    12     1     2   ar
    13     2     3   ar
    14     3    12    1
    15    12    13   am
    16    12    14    2
    17     3     4   ar
    18     4     5   ar
    19     5     6   ar
    20     6     7    1
    21     6     8   ar
    22     8     9    1
    23     8    10   ar
    24    10    11   ar
    25    26    20   ar
    26    11     1   ar
    27    11     5   ar
    28    17    18    1
    29    13    15    1
    30    13    16    1
@<TRIPOS>MOLECULE
*****
 28 30 0 0 0
SMALL
GASTEIGER

@<TRIPOS>ATOM
      1 C          -7.3008  -18.1602   22.1219 C.ar    1  UNL1        0.0800
      2 C          -7.7745  -17.1417   23.1159 C.ar    1  UNL1        0.0234
      3 C          -6.7831  -16.4148   23.9753 C.ar    1  UNL1        0.0720
      4 C          -5.3179  -16.7065   23.8406 C.ar    1  UNL1        0.0857
      5 N          -4.8441  -17.7250   22.8466 N.ar    1  UNL1       -0.2917
      6 C          -3.4731  -18.2198   22.4924 C.ar    1  UNL1        0.0567
      7 C          -2.1843  -17.7623   23.1084 C.3     1  UNL1        0.0517
      8 C          -3.6173  -19.2525   21.4141 C.ar    1  UNL1        0.0730
      9 C          -2.4978  -20.0090   20.7624 C.3     1  UNL1        0.0534
     10 N          -5.0774  -19.3960   21.1018 N.ar    1  UNL1       -0.2299
     11 C          -5.8356  -18.4519   21.9872 C.ar    1  UNL1        0.1603
     12 C          -7.2568  -15.3962   24.9694 C.2     1  UNL1        0.2443
     13 N          -6.2768  -14.7418   25.8975 N.am    1  UNL1       -0.3253
     14 O          -8.7104  -15.0322   25.0354 O.2     1  UNL1       -0.2703
     15 H          -5.3227  -14.9808   25.8541 H       1  UNL1        0.1453
     16 H          -6.5877  -14.0733   26.5499 H       1  UNL1        0.1453
     17 N          -8.2923  -18.8871   21.2624 N.pl3   1  UNL1       -0.3267
     18 H          -8.2105  -18.8552   20.2818 H       1  UNL1        0.1472
     19 C          -9.4084  -19.6627   21.8970 C.3     1  UNL1        0.1137
     20 C         -11.1570  -18.8576   23.6417 C.ar    1  UNL1       -0.0248
     21 C         -12.4557  -18.1781   23.9610 C.ar    1  UNL1       -0.0045
     22 C         -13.3042  -17.6243   22.8550 C.ar    1  UNL1       -0.0007
     23 C         -12.8541  -17.7500   21.4296 C.ar    1  UNL1       -0.0045
     24 C         -11.5556  -18.4294   21.1103 C.ar    1  UNL1       -0.0245
     25 C         -11.1055  -18.5551   19.6849 C.3     1  UNL1        0.0307
     26 C         -10.7070  -18.9833   22.2163 C.ar    1  UNL1       -0.0105
     27 C          -9.6834  -18.4856   25.7488 C.3     1  UNL1        0.0050
     28 C         -10.3085  -19.4114   24.7477 C.3     1  UNL1        0.0261
@<TRIPOS>BOND
     1    27    28    1
     2    28    20    1
     3    20    21   ar
     4    21    22   ar
     5    22    23   ar
     6    23    24   ar
     7    24    25    1
     8    24    26   ar
     9    26    19    1
    10    19    17    1
    11    17     1    1
    12     1     2   ar
    13     2     3   ar
    14     3    12    1
    15    12    13   am
    16    12    14    2
    17     3     4   ar
    18     4     5   ar
    19     5     6   ar
    20     6     7    1
    21     6     8   ar
    22     8     9    1
    23     8    10   ar
    24    10    11   ar
    25    26    20   ar
    26    11     1   ar
    27    11     5   ar
    28    17    18    1
    29    13    15    1
    30    13    16    1
@<TRIPOS>MOLECULE
*****
 28 30 0 0 0
SMALL
GASTEIGER

@<TRIPOS>ATOM
      1 C          -7.4104  -18.0754   22.1567 C.ar    1  UNL1        0.0800
      2 C          -8.5144  -18.5652   21.2673 C.ar    1  UNL1        0.0234
      3 C          -8.1968  -19.4353   20.0875 C.ar    1  UNL1        0.0720
      4 C          -6.7752  -19.8155   19.7970 C.ar    1  UNL1        0.0857
      5 N          -5.6711  -19.3257   20.6864 N.ar    1  UNL1       -0.2917
      6 C          -4.1861  -19.5343   20.6507 C.ar    1  UNL1        0.0567
      7 C          -3.4335  -20.3422   19.6355 C.3     1  UNL1        0.0517
      8 C          -3.5859  -18.7932   21.8086 C.ar    1  UNL1        0.0730
      9 C          -2.1277  -18.7299   22.1544 C.3     1  UNL1        0.0534
     10 N          -4.7000  -18.1265   22.5598 N.ar    1  UNL1       -0.2299
     11 C          -5.9887  -18.4556   21.8663 C.ar    1  UNL1        0.1603
     12 C          -9.3009  -19.9251   19.1980 C.2     1  UNL1        0.2443
     13 N         -10.6987  -19.4148   19.3872 N.am    1  UNL1       -0.3253
     14 O          -9.0072  -20.9253   18.1194 O.2     1  UNL1       -0.2703
     15 H         -10.8914  -18.7584   20.0951 H       1  UNL1        0.1453
     16 H         -11.4233  -19.7363   18.8034 H       1  UNL1        0.1453
     17 N          -7.7279  -17.2053   23.3367 N.pl3   1  UNL1       -0.3267
     18 H          -7.1282  -17.1965   24.1174 H       1  UNL1        0.1472
     19 C          -8.9592  -16.3487   23.3270 C.3     1  UNL1        0.1137
     20 C         -11.2896  -16.6736   22.2253 C.ar    1  UNL1       -0.0248
     21 C         -12.6471  -17.3117   22.2216 C.ar    1  UNL1       -0.0045
     22 C         -13.0318  -18.2628   23.3158 C.ar    1  UNL1       -0.0007
     23 C         -12.0589  -18.5759   24.4138 C.ar    1  UNL1       -0.0045
     24 C         -10.7014  -17.9379   24.4175 C.ar    1  UNL1       -0.0245
     25 C          -9.7286  -18.2510   25.5155 C.3     1  UNL1        0.0307
     26 C         -10.3167  -16.9867   23.3233 C.ar    1  UNL1       -0.0105
     27 C         -11.4628  -15.9024   19.7504 C.3     1  UNL1        0.0050
     28 C         -10.9049  -15.7224   21.1311 C.3     1  UNL1        0.0261
@<TRIPOS>BOND
     1    27    28    1
     2    28    20    1
     3    20    21   ar
     4    21    22   ar
     5    22    23   ar
     6    23    24   ar
     7    24    25    1
     8    24    26   ar
     9    26    19    1
    10    19    17    1
    11    17     1    1
    12     1     2   ar
    13     2     3   ar
    14     3    12    1
    15    12    13   am
    16    12    14    2
    17     3     4   ar
    18     4     5   ar
    19     5     6   ar
    20     6     7    1
    21     6     8   ar
    22     8     9    1
    23     8    10   ar
    24    10    11   ar
    25    26    20   ar
    26    11     1   ar
    27    11     5   ar
    28    17    18    1
    29    13    15    1
    30    13    16    1
@<TRIPOS>MOLECULE
*****
 28 30 0 0 0
SMALL
GASTEIGER

@<TRIPOS>ATOM
      1 C          -7.5508  -18.1077   22.2455 C.ar    1  UNL1        0.0800
      2 C          -8.6048  -18.6277   21.3135 C.ar    1  UNL1        0.0234
      3 C          -8.2108  -19.4252   20.1058 C.ar    1  UNL1        0.0720
      4 C          -6.7627  -19.7028   19.8300 C.ar    1  UNL1        0.0857
      5 N          -5.7087  -19.1828   20.7619 N.ar    1  UNL1       -0.2917
      6 C          -4.2130  -19.2961   20.7491 C.ar    1  UNL1        0.0567
      7 C          -3.3919  -20.0114   19.7175 C.3     1  UNL1        0.0517
      8 C          -3.6827  -18.5686   21.9489 C.ar    1  UNL1        0.0730
      9 C          -2.2380  -18.4287   22.3277 C.3     1  UNL1        0.0534
     10 N          -4.8505  -18.0057   22.7033 N.ar    1  UNL1       -0.2299
     11 C          -6.1027  -18.3853   21.9697 C.ar    1  UNL1        0.1603
     12 C          -9.2649  -19.9452   19.1737 C.2     1  UNL1        0.2443
     13 N         -10.6739  -19.4419   19.2794 N.am    1  UNL1       -0.3253
     14 O          -8.9098  -20.9685   18.1360 O.2     1  UNL1       -0.2703
     15 H         -10.9069  -18.7702   19.9605 H       1  UNL1        0.1453
     16 H         -11.3657  -19.7831   18.6677 H       1  UNL1        0.1453
     17 N          -7.9448  -17.3102   23.4533 N.pl3   1  UNL1       -0.3267
     18 H          -7.4512  -17.4197   24.2980 H       1  UNL1        0.1472
     19 C          -9.0909  -16.3457   23.3740 C.3     1  UNL1        0.1137
     20 C         -11.2019  -17.8396   23.6226 C.ar    1  UNL1       -0.0248
     21 C         -12.5353  -18.2995   23.1121 C.ar    1  UNL1       -0.0045
     22 C         -13.0910  -17.7255   21.8426 C.ar    1  UNL1       -0.0007
     23 C         -12.3133  -16.6916   21.0835 C.ar    1  UNL1       -0.0045
     24 C         -10.9799  -16.2317   21.5939 C.ar    1  UNL1       -0.0245
     25 C         -10.2023  -15.1977   20.8348 C.3     1  UNL1        0.0307
     26 C         -10.4242  -16.8056   22.8635 C.ar    1  UNL1       -0.0105
     27 C         -10.1240  -19.8195   24.9140 C.3     1  UNL1        0.0050
     28 C         -10.6462  -18.4136   24.8921 C.3     1  UNL1        0.0261
@<TRIPOS>BOND
     1    27    28    1
     2    28    20    1
     3    20    21   ar
     4    21    22   ar
     5    22    23   ar
     6    23    24   ar
     7    24    25    1
     8    24    26   ar
     9    26    19    1
    10    19    17    1
    11    17     1    1
    12     1     2   ar
    13     2     3   ar
    14     3    12    1
    15    12    13   am
    16    12    14    2
    17     3     4   ar
    18     4     5   ar
    19     5     6   ar
    20     6     7    1
    21     6     8   ar
    22     8     9    1
    23     8    10   ar
    24    10    11   ar
    25    26    20   ar
    26    11     1   ar
    27    11     5   ar
    28    17    18    1
    29    13    15    1
    30    13    16    1
@<TRIPOS>MOLECULE
*****
 28 30 0 0 0
SMALL
GASTEIGER

@<TRIPOS>ATOM
      1 C         -14.9181   -6.5264   19.2735 C.ar    1  UNL1        0.0800
      2 C         -15.4937   -5.1523   19.4477 C.ar    1  UNL1        0.0234
      3 C         -16.9781   -4.9698   19.5614 C.ar    1  UNL1        0.0720
      4 C         -17.8871   -6.1615   19.5009 C.ar    1  UNL1        0.0857
      5 N         -17.3116   -7.5356   19.3266 N.ar    1  UNL1       -0.2917
      6 C         -17.9534   -8.8882   19.2328 C.ar    1  UNL1        0.0567
      7 C         -19.4247   -9.1723   19.2991 C.3     1  UNL1        0.0517
      8 C         -16.8655   -9.9066   19.0611 C.ar    1  UNL1        0.0730
      9 C         -17.0581  -11.3880   18.9256 C.3     1  UNL1        0.0534
     10 N         -15.5514   -9.1835   19.0488 N.ar    1  UNL1       -0.2299
     11 C         -15.8271   -7.7181   19.2129 C.ar    1  UNL1        0.1603
     12 C         -17.5537   -3.5956   19.7357 C.2     1  UNL1        0.2443
     13 N         -18.5275   -3.3254   20.8442 N.am    1  UNL1       -0.3253
     14 O         -17.1556   -2.4917   18.8015 O.2     1  UNL1       -0.2703
     15 H         -18.7888   -4.0499   21.4574 H       1  UNL1        0.1453
     16 H         -18.9052   -2.4234   20.9586 H       1  UNL1        0.1453
     17 N         -13.4336   -6.7090   19.1598 N.pl3   1  UNL1       -0.3267
     18 H         -13.0684   -7.5118   18.7224 H       1  UNL1        0.1472
     19 C         -12.5055   -5.6683   19.7125 C.3     1  UNL1        0.1137
     20 C         -10.5274   -5.6899   18.0282 C.ar    1  UNL1       -0.0248
     21 C          -9.5926   -4.9563   17.1128 C.ar    1  UNL1       -0.0045
     22 C          -9.7012   -3.4674   16.9662 C.ar    1  UNL1       -0.0007
     23 C         -10.7445   -2.7122   17.7350 C.ar    1  UNL1       -0.0045
     24 C         -11.6792   -3.4458   18.6505 C.ar    1  UNL1       -0.0245
     25 C         -12.7225   -2.6905   19.4193 C.3     1  UNL1        0.0307
     26 C         -11.5707   -4.9347   18.7971 C.ar    1  UNL1       -0.0105
     27 C          -9.2670   -7.7763   18.9273 C.3     1  UNL1        0.0050
     28 C         -10.4189   -7.1788   18.1748 C.3     1  UNL1        0.0261
@<TRIPOS>BOND
     1    27    28    1
     2    28    20    1
     3    20    21   ar
     4    21    22   ar
     5    22    23   ar
     6    23    24   ar
     7    24    25    1
     8    24    26   ar
     9    26    19    1
    10    19    17    1
    11    17     1    1
    12     1     2   ar
    13     2     3   ar
    14     3    12    1
    15    12    13   am
    16    12    14    2
    17     3     4   ar
    18     4     5   ar
    19     5     6   ar
    20     6     7    1
    21     6     8   ar
    22     8     9    1
    23     8    10   ar
    24    10    11   ar
    25    26    20   ar
    26    11     1   ar
    27    11     5   ar
    28    17    18    1
    29    13    15    1
    30    13    16    1
@<TRIPOS>MOLECULE
*****
 28 30 0 0 0
SMALL
GASTEIGER

@<TRIPOS>ATOM
      1 C         -14.8456   -6.5841   19.3307 C.ar    1  UNL1        0.0800
      2 C         -15.4219   -5.2242   19.5922 C.ar    1  UNL1        0.0234
      3 C         -16.9033   -5.0564   19.7570 C.ar    1  UNL1        0.0720
      4 C         -17.8085   -6.2486   19.6602 C.ar    1  UNL1        0.0857
      5 N         -17.2322   -7.6085   19.3986 N.ar    1  UNL1       -0.2917
      6 C         -17.8706   -8.9580   19.2528 C.ar    1  UNL1        0.0567
      7 C         -19.3382   -9.2538   19.3456 C.3     1  UNL1        0.0517
      8 C         -16.7837   -9.9599   18.9979 C.ar    1  UNL1        0.0730
      9 C         -16.9736  -11.4334   18.7910 C.3     1  UNL1        0.0534
     10 N         -15.4735   -9.2295   18.9862 N.ar    1  UNL1       -0.2299
     11 C         -15.7508   -7.7763   19.2339 C.ar    1  UNL1        0.1603
     12 C         -17.4796   -3.6964   20.0185 C.2     1  UNL1        0.2443
     13 N         -16.6120   -2.4786   19.8993 N.am    1  UNL1       -0.3253
     14 O         -18.9235   -3.5543   20.3993 O.2     1  UNL1       -0.2703
     15 H         -15.6643   -2.5719   19.6494 H       1  UNL1        0.1453
     16 H         -16.9902   -1.5860   20.0710 H       1  UNL1        0.1453
     17 N         -13.3641   -6.7519   19.1659 N.pl3   1  UNL1       -0.3267
     18 H         -13.0064   -7.5500   18.7138 H       1  UNL1        0.1472
     19 C         -12.4277   -5.7039   19.6901 C.3     1  UNL1        0.1137
     20 C         -11.5866   -3.5970   18.4237 C.ar    1  UNL1       -0.0248
     21 C         -10.6009   -2.9430   17.5014 C.ar    1  UNL1       -0.0045
     22 C          -9.4707   -3.7418   16.9231 C.ar    1  UNL1       -0.0007
     23 C          -9.3261   -5.1947   17.2671 C.ar    1  UNL1       -0.0045
     24 C         -10.3118   -5.8487   18.1894 C.ar    1  UNL1       -0.0245
     25 C         -10.1672   -7.3015   18.5335 C.3     1  UNL1        0.0307
     26 C         -11.4421   -5.0499   18.7678 C.ar    1  UNL1       -0.0105
     27 C         -13.4167   -1.7716   18.1615 C.3     1  UNL1        0.0050
     28 C         -12.7168   -2.7982   19.0020 C.3     1  UNL1        0.0261
@<TRIPOS>BOND
     1    27    28    1
     2    28    20    1
     3    20    21   ar
     4    21    22   ar
     5    22    23   ar
     6    23    24   ar
     7    24    25    1
     8    24    26   ar
     9    26    19    1
    10    19    17    1
    11    17     1    1
    12     1     2   ar
    13     2     3   ar
    14     3    12    1
    15    12    13   am
    16    12    14    2
    17     3     4   ar
    18     4     5   ar
    19     5     6   ar
    20     6     7    1
    21     6     8   ar
    22     8     9    1
    23     8    10   ar
    24    10    11   ar
    25    26    20   ar
    26    11     1   ar
    27    11     5   ar
    28    17    18    1
    29    13    15    1
    30    13    16    1
@<TRIPOS>MOLECULE
*****
 28 30 0 0 0
SMALL
GASTEIGER

@<TRIPOS>ATOM
      1 C          -8.0388  -15.9699   22.9894 C.ar    1  UNL1        0.0800
      2 C          -7.6252  -15.3035   24.2680 C.ar    1  UNL1        0.0234
      3 C          -6.3656  -15.7294   24.9622 C.ar    1  UNL1        0.0720
      4 C          -5.5196  -16.8215   24.3779 C.ar    1  UNL1        0.0857
      5 N          -5.9332  -17.4879   23.0993 N.ar    1  UNL1       -0.2917
      6 C          -5.3067  -18.5851   22.2909 C.ar    1  UNL1        0.0567
      7 C          -4.0315  -19.3038   22.6188 C.3     1  UNL1        0.0517
      8 C          -6.1790  -18.8374   21.0970 C.ar    1  UNL1        0.0730
      9 C          -5.9294  -19.8527   20.0214 C.3     1  UNL1        0.0534
     10 N          -7.3448  -17.8961   21.1676 N.ar    1  UNL1       -0.2299
     11 C          -7.1929  -17.0621   22.4051 C.ar    1  UNL1        0.1603
     12 C          -5.9519  -15.0630   26.2409 C.2     1  UNL1        0.2443
     13 N          -4.8509  -14.0442   26.2336 N.am    1  UNL1       -0.3253
     14 O          -6.6391  -15.4154   27.5267 O.2     1  UNL1       -0.2703
     15 H          -4.3999  -13.8129   25.3896 H       1  UNL1        0.1453
     16 H          -4.5794  -13.6068   27.0727 H       1  UNL1        0.1453
     17 N          -9.2985  -15.5441   22.2951 N.pl3   1  UNL1       -0.3267
     18 H          -9.2768  -14.8042   21.6460 H       1  UNL1        0.1472
     19 C         -10.5912  -16.2456   22.5899 C.3     1  UNL1        0.1137
     20 C         -11.0295  -18.1209   20.8460 C.ar    1  UNL1       -0.0248
     21 C         -11.1862  -19.5754   20.5141 C.ar    1  UNL1       -0.0045
     22 C         -11.0613  -20.6088   21.5940 C.ar    1  UNL1       -0.0007
     23 C         -10.7797  -20.1879   23.0060 C.ar    1  UNL1       -0.0045
     24 C         -10.6230  -18.7335   23.3379 C.ar    1  UNL1       -0.0245
     25 C         -10.3414  -18.3126   24.7498 C.3     1  UNL1        0.0307
     26 C         -10.7479  -17.7000   22.2579 C.ar    1  UNL1       -0.0105
     27 C         -12.2968  -16.1156   19.7864 C.3     1  UNL1        0.0050
     28 C         -11.1544  -17.0875   19.7660 C.3     1  UNL1        0.0261
@<TRIPOS>BOND
     1    27    28    1
     2    28    20    1
     3    20    21   ar
     4    21    22   ar
     5    22    23   ar
     6    23    24   ar
     7    24    25    1
     8    24    26   ar
     9    26    19    1
    10    19    17    1
    11    17     1    1
    12     1     2   ar
    13     2     3   ar
    14     3    12    1
    15    12    13   am
    16    12    14    2
    17     3     4   ar
    18     4     5   ar
    19     5     6   ar
    20     6     7    1
    21     6     8   ar
    22     8     9    1
    23     8    10   ar
    24    10    11   ar
    25    26    20   ar
    26    11     1   ar
    27    11     5   ar
    28    17    18    1
    29    13    15    1
    30    13    16    1
