@<TRIPOS>MOLECULE
*****
 25 28 0 0 0
SMALL
GASTEIGER

@<TRIPOS>ATOM
      1 C          -8.0903  -17.8704   21.7770 C.3     1  UNL1        0.1140
      2 C          -9.5876  -17.7849   21.7468 C.ar    1  UNL1        0.0273
      3 C         -10.6137  -18.4522   20.8798 C.ar    1  UNL1        0.1379
      4 F         -10.1822  -19.4057   19.8054 F       1  UNL1       -0.2044
      5 C         -12.0715  -18.1659   21.0873 C.ar    1  UNL1        0.0294
      6 C         -12.5030  -17.2124   22.1617 C.ar    1  UNL1        0.0023
      7 C         -11.4769  -16.5451   23.0288 C.ar    1  UNL1        0.0014
      8 C         -10.0192  -16.8314   22.8213 C.ar    1  UNL1        0.0173
      9 C          -8.7887  -16.3275   23.5156 C.ar    1  UNL1        0.0804
     10 C          -8.2949  -15.4268   24.6087 C.ar    1  UNL1        0.1178
     11 N          -6.7977  -15.5122   24.6388 N.ar    1  UNL1       -0.2223
     12 C          -6.3661  -16.4657   23.5643 C.ar    1  UNL1        0.1788
     13 N          -7.5966  -16.9696   22.8701 N.ar    1  UNL1       -0.3068
     14 C          -7.2367  -18.7092   20.8728 C.3     1  UNL1        0.0565
     15 O          -6.5520  -20.7316   22.3531 O.3     1  UNL1       -0.3844
     16 C          -6.1727  -19.5931   21.4530 C.3     1  UNL1        0.1127
     17 H          -7.5163  -20.7555   22.4554 H       1  UNL1        0.2103
     18 C          -4.7295  -19.3385   21.1333 C.3     1  UNL1        0.0272
     19 C          -4.3007  -19.1379   19.7100 C.3     1  UNL1        0.0049
     20 C          -2.8574  -18.8833   19.3902 C.3     1  UNL1        0.0293
     21 C          -1.8430  -18.8293   20.4938 C.3     1  UNL1        0.1105
     22 O          -0.3997  -18.5747   20.1741 O.3     1  UNL1       -0.3845
     23 C          -2.2717  -19.0299   21.9172 C.3     1  UNL1        0.0293
     24 C          -3.7150  -19.2845   22.2369 C.3     1  UNL1        0.0049
     25 H           0.1175  -18.5715   20.9946 H       1  UNL1        0.2103
@<TRIPOS>BOND
     1    16    15    1
     2    16    14    1
     3     1    14    1
     4     1     2    1
     5     2     3   ar
     6     3     4    1
     7     3     5   ar
     8     5     6   ar
     9     6     7   ar
    10     7     8   ar
    11     8     9    1
    12     9    10   ar
    13    10    11   ar
    14    11    12   ar
    15    12    13   ar
    16    16    18    1
    17    18    19    1
    18    19    20    1
    19    20    21    1
    20    21    22    1
    21    21    23    1
    22    23    24    1
    23    13     1    1
    24    24    18    1
    25     8     2   ar
    26    13     9   ar
    27    15    17    1
    28    22    25    1
@<TRIPOS>MOLECULE
*****
 25 28 0 0 0
SMALL
GASTEIGER

@<TRIPOS>ATOM
      1 C          -8.0167  -17.8307   22.1668 C.3     1  UNL1        0.1140
      2 C          -7.6677  -16.9612   23.3384 C.ar    1  UNL1        0.0273
      3 C          -6.3671  -16.3739   23.8003 C.ar    1  UNL1        0.1379
      4 F          -5.1092  -16.6354   23.0262 F       1  UNL1       -0.2044
      5 C          -6.3245  -15.5250   25.0363 C.ar    1  UNL1        0.0294
      6 C          -7.5824  -15.2635   25.8102 C.ar    1  UNL1        0.0023
      7 C          -8.8831  -15.8509   25.3484 C.ar    1  UNL1        0.0014
      8 C          -8.9258  -16.6997   24.1124 C.ar    1  UNL1        0.0173
      9 C         -10.0521  -17.4076   23.4193 C.ar    1  UNL1        0.0804
     10 C         -11.5257  -17.6834   23.4694 C.ar    1  UNL1        0.1178
     11 N         -11.8745  -18.5528   22.2979 N.ar    1  UNL1       -0.2223
     12 C         -10.6166  -18.8143   21.5238 C.ar    1  UNL1        0.1788
     13 N          -9.4902  -18.1065   22.2169 N.ar    1  UNL1       -0.3068
     14 C          -7.0599  -18.3357   21.1278 C.3     1  UNL1        0.0565
     15 O          -6.5154  -20.6281   22.2225 O.3     1  UNL1       -0.3844
     16 C          -6.0682  -19.4051   21.4779 C.3     1  UNL1        0.1127
     17 H          -7.4675  -20.5693   22.3985 H       1  UNL1        0.2103
     18 C          -4.6291  -19.2516   21.0836 C.3     1  UNL1        0.0272
     19 C          -4.2710  -18.9287   19.6632 C.3     1  UNL1        0.0049
     20 C          -2.8319  -18.7752   19.2689 C.3     1  UNL1        0.0293
     21 C          -1.7509  -18.9446   20.2949 C.3     1  UNL1        0.1105
     22 O          -0.3119  -18.7911   19.9005 O.3     1  UNL1       -0.3845
     23 C          -2.1090  -19.2675   21.7153 C.3     1  UNL1        0.0293
     24 C          -3.5481  -19.4210   22.1097 C.3     1  UNL1        0.0049
     25 H           0.2528  -18.9313   20.6767 H       1  UNL1        0.2103
@<TRIPOS>BOND
     1    16    15    1
     2    16    14    1
     3     1    14    1
     4     1     2    1
     5     2     3   ar
     6     3     4    1
     7     3     5   ar
     8     5     6   ar
     9     6     7   ar
    10     7     8   ar
    11     8     9    1
    12     9    10   ar
    13    10    11   ar
    14    11    12   ar
    15    12    13   ar
    16    16    18    1
    17    18    19    1
    18    19    20    1
    19    20    21    1
    20    21    22    1
    21    21    23    1
    22    23    24    1
    23    13     1    1
    24    24    18    1
    25     8     2   ar
    26    13     9   ar
    27    15    17    1
    28    22    25    1
@<TRIPOS>MOLECULE
*****
 25 28 0 0 0
SMALL
GASTEIGER

@<TRIPOS>ATOM
      1 C          -6.9714  -18.4754   22.3517 C.3     1  UNL1        0.1140
      2 C          -5.4935  -18.6737   22.1884 C.ar    1  UNL1        0.0273
      3 C          -4.6937  -19.7455   21.5090 C.ar    1  UNL1        0.1379
      4 F          -5.3922  -20.8860   20.8301 F       1  UNL1       -0.2044
      5 C          -3.1952  -19.6766   21.5088 C.ar    1  UNL1        0.0294
      6 C          -2.4968  -18.5360   22.1878 C.ar    1  UNL1        0.0023
      7 C          -3.2966  -17.4642   22.8671 C.ar    1  UNL1        0.0014
      8 C          -4.7950  -17.5330   22.8674 C.ar    1  UNL1        0.0173
      9 C          -5.8411  -16.6298   23.4504 C.ar    1  UNL1        0.0804
     10 C          -6.0559  -15.3667   24.2304 C.ar    1  UNL1        0.1178
     11 N          -7.5337  -15.1685   24.3937 N.ar    1  UNL1       -0.2223
     12 C          -8.2323  -16.3090   23.7147 C.ar    1  UNL1        0.1788
     13 N          -7.1862  -17.2122   23.1317 N.ar    1  UNL1       -0.3068
     14 C          -8.0458  -19.3812   21.8272 C.3     1  UNL1        0.0565
     15 O          -9.2479  -18.4519   19.7197 O.3     1  UNL1       -0.3844
     16 C          -9.2669  -18.7994   21.1788 C.3     1  UNL1        0.1127
     17 H          -8.3774  -18.6643   19.3481 H       1  UNL1        0.2103
     18 C         -10.5070  -18.5650   21.9895 C.3     1  UNL1        0.0272
     19 C         -11.6685  -17.8307   21.3882 C.3     1  UNL1        0.0049
     20 C         -12.9086  -17.5963   22.1988 C.3     1  UNL1        0.0293
     21 C         -12.9872  -18.0963   23.6108 C.3     1  UNL1        0.1105
     22 O         -14.2274  -17.8619   24.4215 O.3     1  UNL1       -0.3845
     23 C         -11.8257  -18.8307   24.2122 C.3     1  UNL1        0.0293
     24 C         -10.5856  -19.0650   23.4016 C.3     1  UNL1        0.0049
     25 H         -14.1135  -18.2459   25.3049 H       1  UNL1        0.2103
@<TRIPOS>BOND
     1    16    15    1
     2    16    14    1
     3     1    14    1
     4     1     2    1
     5     2     3   ar
     6     3     4    1
     7     3     5   ar
     8     5     6   ar
     9     6     7   ar
    10     7     8   ar
    11     8     9    1
    12     9    10   ar
    13    10    11   ar
    14    11    12   ar
    15    12    13   ar
    16    16    18    1
    17    18    19    1
    18    19    20    1
    19    20    21    1
    20    21    22    1
    21    21    23    1
    22    23    24    1
    23    13     1    1
    24    24    18    1
    25     8     2   ar
    26    13     9   ar
    27    15    17    1
    28    22    25    1
@<TRIPOS>MOLECULE
*****
 25 28 0 0 0
SMALL
GASTEIGER

@<TRIPOS>ATOM
      1 C          -6.2359  -18.5558   22.2888 C.3     1  UNL1        0.1140
      2 C          -4.7669  -18.7703   22.0735 C.ar    1  UNL1        0.0273
      3 C          -4.0068  -19.8026   21.2947 C.ar    1  UNL1        0.1379
      4 F          -4.7458  -20.8739   20.5490 F       1  UNL1       -0.2044
      5 C          -2.5076  -19.7636   21.2617 C.ar    1  UNL1        0.0294
      6 C          -1.7687  -18.6923   22.0075 C.ar    1  UNL1        0.0023
      7 C          -2.5288  -17.6599   22.7862 C.ar    1  UNL1        0.0014
      8 C          -4.0279  -17.6989   22.8192 C.ar    1  UNL1        0.0173
      9 C          -5.0401  -16.8224   23.4954 C.ar    1  UNL1        0.0804
     10 C          -5.2089  -15.6186   24.3742 C.ar    1  UNL1        0.1178
     11 N          -6.6778  -15.4042   24.5895 N.ar    1  UNL1       -0.2223
     12 C          -7.4168  -16.4755   23.8438 C.ar    1  UNL1        0.1788
     13 N          -6.4047  -17.3520   23.1676 N.ar    1  UNL1       -0.3068
     14 C          -7.3418  -19.3975   21.7243 C.3     1  UNL1        0.0565
     15 O          -8.9629  -20.2098   23.5851 O.3     1  UNL1       -0.3844
     16 C          -8.6986  -19.3801   22.3636 C.3     1  UNL1        0.1127
     17 H          -8.1577  -20.6930   23.8282 H       1  UNL1        0.2103
     18 C          -9.7911  -18.5330   21.7816 C.3     1  UNL1        0.0272
     19 C         -10.0951  -18.6050   20.3145 C.3     1  UNL1        0.0049
     20 C         -11.1876  -17.7579   19.7325 C.3     1  UNL1        0.0293
     21 C         -11.9762  -16.8388   20.6175 C.3     1  UNL1        0.1105
     22 O         -13.0687  -15.9917   20.0355 O.3     1  UNL1       -0.3845
     23 C         -11.6722  -16.7667   22.0847 C.3     1  UNL1        0.0293
     24 C         -10.5797  -17.6138   22.6667 C.3     1  UNL1        0.0049
     25 H         -13.4748  -15.4602   20.7380 H       1  UNL1        0.2103
@<TRIPOS>BOND
     1    16    15    1
     2    16    14    1
     3     1    14    1
     4     1     2    1
     5     2     3   ar
     6     3     4    1
     7     3     5   ar
     8     5     6   ar
     9     6     7   ar
    10     7     8   ar
    11     8     9    1
    12     9    10   ar
    13    10    11   ar
    14    11    12   ar
    15    12    13   ar
    16    16    18    1
    17    18    19    1
    18    19    20    1
    19    20    21    1
    20    21    22    1
    21    21    23    1
    22    23    24    1
    23    13     1    1
    24    24    18    1
    25     8     2   ar
    26    13     9   ar
    27    15    17    1
    28    22    25    1
@<TRIPOS>MOLECULE
*****
 25 28 0 0 0
SMALL
GASTEIGER

@<TRIPOS>ATOM
      1 C         -13.4503   -4.9110   18.1898 C.3     1  UNL1        0.1140
      2 C         -12.1083   -5.5218   18.4662 C.ar    1  UNL1        0.0273
      3 C         -11.6272   -6.9423   18.4382 C.ar    1  UNL1        0.1379
      4 F         -12.5750   -8.0483   18.0804 F       1  UNL1       -0.2044
      5 C         -10.1980   -7.2566   18.7681 C.ar    1  UNL1        0.0294
      6 C          -9.2502   -6.1505   19.1259 C.ar    1  UNL1        0.0023
      7 C          -9.7313   -4.7300   19.1539 C.ar    1  UNL1        0.0014
      8 C         -11.1604   -4.4157   18.8240 C.ar    1  UNL1        0.0173
      9 C         -11.9165   -3.1213   18.7688 C.ar    1  UNL1        0.0804
     10 C         -11.7978   -1.6377   18.9558 C.ar    1  UNL1        0.1178
     11 N         -13.1397   -1.0270   18.6794 N.ar    1  UNL1       -0.2223
     12 C         -14.0876   -2.1331   18.3216 C.ar    1  UNL1        0.1788
     13 N         -13.3316   -3.4275   18.3768 N.ar    1  UNL1       -0.3068
     14 C         -14.6926   -5.6535   17.7956 C.3     1  UNL1        0.0565
     15 O         -16.1712   -5.1305   19.8669 O.3     1  UNL1       -0.3844
     16 C         -15.6616   -6.1058   18.8475 C.3     1  UNL1        0.1127
     17 H         -15.7783   -4.2586   19.7050 H       1  UNL1        0.2103
     18 C         -16.1209   -7.5333   18.8800 C.3     1  UNL1        0.0272
     19 C         -17.2545   -7.9362   19.7758 C.3     1  UNL1        0.0049
     20 C         -17.7139   -9.3638   19.8083 C.3     1  UNL1        0.0293
     21 C         -17.0396  -10.3885   18.9450 C.3     1  UNL1        0.1105
     22 O         -17.4990  -11.8160   18.9774 O.3     1  UNL1       -0.3845
     23 C         -15.9060   -9.9856   18.0491 C.3     1  UNL1        0.0293
     24 C         -15.4466   -8.5580   18.0166 C.3     1  UNL1        0.0049
     25 H         -16.9616  -12.3426   18.3652 H       1  UNL1        0.2103
@<TRIPOS>BOND
     1    16    15    1
     2    16    14    1
     3     1    14    1
     4     1     2    1
     5     2     3   ar
     6     3     4    1
     7     3     5   ar
     8     5     6   ar
     9     6     7   ar
    10     7     8   ar
    11     8     9    1
    12     9    10   ar
    13    10    11   ar
    14    11    12   ar
    15    12    13   ar
    16    16    18    1
    17    18    19    1
    18    19    20    1
    19    20    21    1
    20    21    22    1
    21    21    23    1
    22    23    24    1
    23    13     1    1
    24    24    18    1
    25     8     2   ar
    26    13     9   ar
    27    15    17    1
    28    22    25    1
@<TRIPOS>MOLECULE
*****
 25 28 0 0 0
SMALL
GASTEIGER

@<TRIPOS>ATOM
      1 C         -13.2900   -4.9430   18.1489 C.3     1  UNL1        0.1140
      2 C         -13.1652   -3.4497   18.2169 C.ar    1  UNL1        0.0273
      3 C         -14.1519   -2.3477   17.9681 C.ar    1  UNL1        0.1379
      4 F         -15.5600   -2.6774   17.5703 F       1  UNL1       -0.2044
      5 C         -13.7303   -0.9158   18.1170 C.ar    1  UNL1        0.0294
      6 C         -12.3221   -0.5862   18.5148 C.ar    1  UNL1        0.0023
      7 C         -11.3354   -1.6882   18.7637 C.ar    1  UNL1        0.0014
      8 C         -11.7569   -3.1200   18.6147 C.ar    1  UNL1        0.0173
      9 C         -11.0115   -4.4095   18.7925 C.ar    1  UNL1        0.0804
     10 C          -9.6804   -5.0025   19.1483 C.ar    1  UNL1        0.1178
     11 N          -9.8053   -6.4958   19.0802 N.ar    1  UNL1       -0.2223
     12 C         -11.2135   -6.8256   18.6824 C.ar    1  UNL1        0.1788
     13 N         -11.9589   -5.5361   18.5046 N.ar    1  UNL1       -0.3068
     14 C         -14.5284   -5.7087   17.7883 C.3     1  UNL1        0.0565
     15 O         -15.9238   -5.1937   19.9186 O.3     1  UNL1       -0.3844
     16 C         -15.4710   -6.1600   18.8643 C.3     1  UNL1        0.1127
     17 H         -15.5171   -4.3276   19.7594 H       1  UNL1        0.2103
     18 C         -15.9610   -7.5776   18.8861 C.3     1  UNL1        0.0272
     19 C         -15.2212   -8.6386   18.1265 C.3     1  UNL1        0.0049
     20 C         -15.7111  -10.0561   18.1484 C.3     1  UNL1        0.0293
     21 C         -16.9408  -10.4127   18.9298 C.3     1  UNL1        0.1105
     22 O         -17.4308  -11.8303   18.9516 O.3     1  UNL1       -0.3845
     23 C         -17.6807   -9.3517   19.6894 C.3     1  UNL1        0.0293
     24 C         -17.1907   -7.9342   19.6676 C.3     1  UNL1        0.0049
     25 H         -18.2296  -11.8879   19.4987 H       1  UNL1        0.2103
@<TRIPOS>BOND
     1    16    15    1
     2    16    14    1
     3     1    14    1
     4     1     2    1
     5     2     3   ar
     6     3     4    1
     7     3     5   ar
     8     5     6   ar
     9     6     7   ar
    10     7     8   ar
    11     8     9    1
    12     9    10   ar
    13    10    11   ar
    14    11    12   ar
    15    12    13   ar
    16    16    18    1
    17    18    19    1
    18    19    20    1
    19    20    21    1
    20    21    22    1
    21    21    23    1
    22    23    24    1
    23    13     1    1
    24    24    18    1
    25     8     2   ar
    26    13     9   ar
    27    15    17    1
    28    22    25    1
@<TRIPOS>MOLECULE
*****
 25 28 0 0 0
SMALL
GASTEIGER

@<TRIPOS>ATOM
      1 C         -10.2579  -19.4114   21.5700 C.3     1  UNL1        0.1140
      2 C         -11.1195  -18.1846   21.5168 C.ar    1  UNL1        0.0273
      3 C         -11.6329  -17.3678   20.3683 C.ar    1  UNL1        0.1379
      4 F         -11.2860  -17.7518   18.9605 F       1  UNL1       -0.2044
      5 C         -12.4933  -16.1667   20.6277 C.ar    1  UNL1        0.0294
      6 C         -12.8402  -15.7826   22.0356 C.ar    1  UNL1        0.0023
      7 C         -12.3268  -16.5995   23.1841 C.ar    1  UNL1        0.0014
      8 C         -11.4664  -17.8006   22.9247 C.ar    1  UNL1        0.0173
      9 C         -10.8193  -18.7899   23.8480 C.ar    1  UNL1        0.0804
     10 C         -10.6338  -19.1639   25.2887 C.ar    1  UNL1        0.1178
     11 N          -9.7722  -20.3907   25.3418 N.ar    1  UNL1       -0.2223
     12 C          -9.4253  -20.7748   23.9340 C.ar    1  UNL1        0.1788
     13 N         -10.0724  -19.7855   23.0107 N.ar    1  UNL1       -0.3068
     14 C          -9.6829  -20.1368   20.3897 C.3     1  UNL1        0.0565
     15 O          -8.4877  -19.2350   18.2663 O.3     1  UNL1       -0.3844
     16 C          -8.4481  -19.6144   19.7171 C.3     1  UNL1        0.1127
     17 H          -9.3795  -19.3875   17.9165 H       1  UNL1        0.2103
     18 C          -7.1737  -19.4713   20.4952 C.3     1  UNL1        0.0272
     19 C          -5.9889  -20.3271   20.1579 C.3     1  UNL1        0.0049
     20 C          -4.7145  -20.1840   20.9360 C.3     1  UNL1        0.0293
     21 C          -4.6249  -19.1851   22.0513 C.3     1  UNL1        0.1105
     22 O          -3.3505  -19.0420   22.8294 O.3     1  UNL1       -0.3845
     23 C          -5.8097  -18.3292   22.3886 C.3     1  UNL1        0.0293
     24 C          -7.0841  -18.4723   21.6106 C.3     1  UNL1        0.0049
     25 H          -3.4613  -18.3583   23.5085 H       1  UNL1        0.2103
@<TRIPOS>BOND
     1    16    15    1
     2    16    14    1
     3     1    14    1
     4     1     2    1
     5     2     3   ar
     6     3     4    1
     7     3     5   ar
     8     5     6   ar
     9     6     7   ar
    10     7     8   ar
    11     8     9    1
    12     9    10   ar
    13    10    11   ar
    14    11    12   ar
    15    12    13   ar
    16    16    18    1
    17    18    19    1
    18    19    20    1
    19    20    21    1
    20    21    22    1
    21    21    23    1
    22    23    24    1
    23    13     1    1
    24    24    18    1
    25     8     2   ar
    26    13     9   ar
    27    15    17    1
    28    22    25    1
@<TRIPOS>MOLECULE
*****
 25 28 0 0 0
SMALL
GASTEIGER

@<TRIPOS>ATOM
      1 C          -7.4070  -17.4225   22.7522 C.3     1  UNL1        0.1140
      2 C          -8.6554  -17.9875   23.3625 C.ar    1  UNL1        0.0273
      3 C          -9.4649  -17.5744   24.5559 C.ar    1  UNL1        0.1379
      4 F          -9.0462  -16.3875   25.3718 F       1  UNL1       -0.2044
      5 C         -10.6932  -18.3484   24.9332 C.ar    1  UNL1        0.0294
      6 C         -11.1119  -19.5353   24.1172 C.ar    1  UNL1        0.0023
      7 C         -10.3023  -19.9484   22.9239 C.ar    1  UNL1        0.0014
      8 C          -9.0741  -19.1745   22.5465 C.ar    1  UNL1        0.0173
      9 C          -8.0845  -19.3431   21.4319 C.ar    1  UNL1        0.0804
     10 C          -7.7317  -20.1809   20.2388 C.ar    1  UNL1        0.1178
     11 N          -6.4833  -19.6160   19.6285 N.ar    1  UNL1       -0.2223
     12 C          -6.0646  -18.4290   20.4445 C.ar    1  UNL1        0.1788
     13 N          -7.0542  -18.2604   21.5591 N.ar    1  UNL1       -0.3068
     14 C          -6.6452  -16.2293   23.2480 C.3     1  UNL1        0.0565
     15 O          -5.1906  -16.0946   25.3966 O.3     1  UNL1       -0.3844
     16 C          -5.3260  -16.4151   23.9374 C.3     1  UNL1        0.1127
     17 H          -6.0425  -15.7819   25.7393 H       1  UNL1        0.2103
     18 C          -4.1423  -16.9214   23.1677 C.3     1  UNL1        0.0272
     19 C          -3.8567  -18.3929   23.1132 C.3     1  UNL1        0.0049
     20 C          -2.6729  -18.8991   22.3436 C.3     1  UNL1        0.0293
     21 C          -1.7748  -17.9339   21.6284 C.3     1  UNL1        0.1105
     22 O          -0.5910  -18.4401   20.8587 O.3     1  UNL1       -0.3845
     23 C          -2.0603  -16.4623   21.6828 C.3     1  UNL1        0.0293
     24 C          -3.2441  -15.9560   22.4525 C.3     1  UNL1        0.0049
     25 H          -0.1202  -17.6915   20.4602 H       1  UNL1        0.2103
@<TRIPOS>BOND
     1    16    15    1
     2    16    14    1
     3     1    14    1
     4     1     2    1
     5     2     3   ar
     6     3     4    1
     7     3     5   ar
     8     5     6   ar
     9     6     7   ar
    10     7     8   ar
    11     8     9    1
    12     9    10   ar
    13    10    11   ar
    14    11    12   ar
    15    12    13   ar
    16    16    18    1
    17    18    19    1
    18    19    20    1
    19    20    21    1
    20    21    22    1
    21    21    23    1
    22    23    24    1
    23    13     1    1
    24    24    18    1
    25     8     2   ar
    26    13     9   ar
    27    15    17    1
    28    22    25    1
@<TRIPOS>MOLECULE
*****
 25 28 0 0 0
SMALL
GASTEIGER

@<TRIPOS>ATOM
      1 C         -12.7980   -4.6287   19.5669 C.3     1  UNL1        0.1140
      2 C         -13.9551   -5.5610   19.3618 C.ar    1  UNL1        0.0273
      3 C         -15.4284   -5.3980   19.5919 C.ar    1  UNL1        0.1379
      4 F         -15.9654   -4.1031   20.1254 F       1  UNL1       -0.2044
      5 C         -16.3646   -6.5301   19.2885 C.ar    1  UNL1        0.0294
      6 C         -15.8275   -7.8250   18.7550 C.ar    1  UNL1        0.0023
      7 C         -14.3542   -7.9879   18.5248 C.ar    1  UNL1        0.0014
      8 C         -13.4180   -6.8559   18.8282 C.ar    1  UNL1        0.0173
      9 C         -11.9290   -6.7240   18.7036 C.ar    1  UNL1        0.0804
     10 C         -10.6769   -7.4428   18.2968 C.ar    1  UNL1        0.1178
     11 N          -9.5199   -6.5105   18.5019 N.ar    1  UNL1       -0.2223
     12 C         -10.0569   -5.2155   19.0354 C.ar    1  UNL1        0.1788
     13 N         -11.5459   -5.3475   19.1601 N.ar    1  UNL1       -0.3068
     14 C         -12.8789   -3.2242   20.0873 C.3     1  UNL1        0.0565
     15 O         -10.8408   -1.9310   19.1261 O.3     1  UNL1       -0.3844
     16 C         -12.3247   -2.0907   19.2762 C.3     1  UNL1        0.1127
     17 H         -10.3887   -2.6385   19.6120 H       1  UNL1        0.2103
     18 C         -13.2545   -1.1167   18.6151 C.3     1  UNL1        0.0272
     19 C         -12.7577    0.2407   18.2145 C.3     1  UNL1        0.0049
     20 C         -13.6874    1.2146   17.5534 C.3     1  UNL1        0.0293
     21 C         -15.1140    0.8312   17.2930 C.3     1  UNL1        0.1105
     22 O         -16.0437    1.8051   16.6319 O.3     1  UNL1       -0.3845
     23 C         -15.6108   -0.5263   17.6936 C.3     1  UNL1        0.0293
     24 C         -14.6811   -1.5003   18.3547 C.3     1  UNL1        0.0049
     25 H         -16.9211    1.4022   16.5387 H       1  UNL1        0.2103
@<TRIPOS>BOND
     1    16    15    1
     2    16    14    1
     3     1    14    1
     4     1     2    1
     5     2     3   ar
     6     3     4    1
     7     3     5   ar
     8     5     6   ar
     9     6     7   ar
    10     7     8   ar
    11     8     9    1
    12     9    10   ar
    13    10    11   ar
    14    11    12   ar
    15    12    13   ar
    16    16    18    1
    17    18    19    1
    18    19    20    1
    19    20    21    1
    20    21    22    1
    21    21    23    1
    22    23    24    1
    23    13     1    1
    24    24    18    1
    25     8     2   ar
    26    13     9   ar
    27    15    17    1
    28    22    25    1
