@<TRIPOS>MOLECULE
*****
 26 28 0 0 0
SMALL
GASTEIGER

@<TRIPOS>ATOM
      1 S           6.6379   -3.3118   21.0343 S.O2    1  UNL1        0.0143
      2 O           7.1056   -1.9827   21.5487 O.2     1  UNL1       -0.1683
      3 O           6.1702   -4.6410   20.5198 O.2     1  UNL1       -0.1683
      4 C           2.6068   -1.5367   20.1129 C.ar    1  UNL1        0.2248
      5 C           3.1775   -1.4244   21.4955 C.ar    1  UNL1        0.0590
      6 C           4.5212   -2.0160   21.8027 C.ar    1  UNL1        0.0247
      7 C           5.2942   -2.7201   20.7271 C.ar    1  UNL1        0.1253
      8 C           4.7235   -2.8325   19.3445 C.ar    1  UNL1        0.1203
      9 N           3.3798   -2.2408   19.0373 N.ar    1  UNL1       -0.2088
     10 O           1.2631   -0.9450   19.8056 O.3     1  UNL1       -0.4640
     11 C           0.1762    1.3520   20.3465 C.3     1  UNL1        0.0473
     12 C           1.1342    0.5257   19.5405 C.3     1  UNL1        0.1678
     13 C           1.9632    1.1703   18.4694 C.3     1  UNL1        0.0473
     14 C           7.9816   -3.9035   21.3414 C.3     1  UNL1        0.1823
     15 C           8.1254   -4.9017   22.4518 C.ar    1  UNL1        0.0014
     16 C           8.9271   -6.1513   22.2377 C.ar    1  UNL1       -0.0029
     17 C           9.0709   -7.1496   23.3481 C.ar    1  UNL1       -0.0048
     18 C           8.4131   -6.8981   24.6726 C.ar    1  UNL1       -0.0247
     19 C           7.6116   -5.6485   24.8866 C.ar    1  UNL1       -0.0250
     20 C           7.4677   -4.6503   23.7763 C.ar    1  UNL1       -0.0071
     21 C           6.8797   -5.2064   26.1191 C.3     1  UNL1        0.0431
     22 C           6.7689   -5.9048   27.4420 C.3     1  UNL1        0.0733
     23 N           7.3623   -7.2177   27.8590 N.3     1  UNL1       -0.2969
     24 C           8.2133   -8.1566   27.0563 C.3     1  UNL1        0.0733
     25 C           8.6810   -8.0143   25.6381 C.3     1  UNL1        0.0431
     26 H           6.5615   -7.7805   28.1457 H       1  UNL1        0.1233
@<TRIPOS>BOND
     1    11    12    1
     2    12    13    1
     3    12    10    1
     4    10     4    1
     5     4     5   ar
     6     5     6   ar
     7     6     7   ar
     8     7     1    1
     9     1     2    2
    10     1     3    2
    11     1    14    1
    12    14    15    1
    13    15    16   ar
    14    16    17   ar
    15    17    18   ar
    16    18    19   ar
    17    19    20   ar
    18    19    21    1
    19    21    22    1
    20    22    23    1
    21    23    24    1
    22    24    25    1
    23     7     8   ar
    24     8     9   ar
    25     9     4   ar
    26    20    15   ar
    27    25    18    1
    28    23    26    1
@<TRIPOS>MOLECULE
*****
 26 28 0 0 0
SMALL
GASTEIGER

@<TRIPOS>ATOM
      1 S         -12.8018   -5.8411   19.0638 S.O2    1  UNL1        0.0143
      2 O         -12.2345   -6.0909   17.6978 O.2     1  UNL1       -0.1683
      3 O         -13.3690   -5.5912   20.4297 O.2     1  UNL1       -0.1683
      4 C         -16.1346   -8.7418   18.2103 C.ar    1  UNL1        0.2248
      5 C         -16.4072   -7.4986   19.0040 C.ar    1  UNL1        0.0590
      6 C         -15.2963   -6.5316   19.2886 C.ar    1  UNL1        0.0247
      7 C         -13.9127   -6.8080   18.7793 C.ar    1  UNL1        0.1253
      8 C         -13.6400   -8.0512   17.9855 C.ar    1  UNL1        0.1203
      9 N         -14.7510   -9.0181   17.7010 N.ar    1  UNL1       -0.2088
     10 O         -17.2454   -9.7087   17.9257 O.3     1  UNL1       -0.4640
     11 C         -18.9052   -8.5443   16.3011 C.3     1  UNL1        0.0473
     12 C         -18.6230   -9.1996   17.6206 C.3     1  UNL1        0.1678
     13 C         -19.7184   -9.3457   18.6348 C.3     1  UNL1        0.0473
     14 C         -11.6908   -4.8742   19.3483 C.3     1  UNL1        0.1823
     15 C         -11.7328   -3.4917   18.7677 C.ar    1  UNL1        0.0014
     16 C         -10.6386   -3.0296   17.8515 C.ar    1  UNL1       -0.0029
     17 C         -10.6805   -1.6472   17.2709 C.ar    1  UNL1       -0.0048
     18 C         -11.8165   -0.7269   17.6064 C.ar    1  UNL1       -0.0247
     19 C         -12.9105   -1.1890   18.5225 C.ar    1  UNL1       -0.0250
     20 C         -12.8687   -2.5714   19.1032 C.ar    1  UNL1       -0.0071
     21 C         -14.1245   -0.4377   18.9832 C.3     1  UNL1        0.0431
     22 C         -14.5440    0.9613   18.6413 C.3     1  UNL1        0.0733
     23 N         -13.8533    1.9544   17.7545 N.3     1  UNL1       -0.2969
     24 C         -12.5725    1.7940   16.9904 C.3     1  UNL1        0.0733
     25 C         -11.6660    0.6007   16.9245 C.3     1  UNL1        0.0431
     26 H         -13.6936    2.7643   18.3537 H       1  UNL1        0.1233
@<TRIPOS>BOND
     1    11    12    1
     2    12    13    1
     3    12    10    1
     4    10     4    1
     5     4     5   ar
     6     5     6   ar
     7     6     7   ar
     8     7     1    1
     9     1     2    2
    10     1     3    2
    11     1    14    1
    12    14    15    1
    13    15    16   ar
    14    16    17   ar
    15    17    18   ar
    16    18    19   ar
    17    19    20   ar
    18    19    21    1
    19    21    22    1
    20    22    23    1
    21    23    24    1
    22    24    25    1
    23     7     8   ar
    24     8     9   ar
    25     9     4   ar
    26    20    15   ar
    27    25    18    1
    28    23    26    1
@<TRIPOS>MOLECULE
*****
 26 28 0 0 0
SMALL
GASTEIGER

@<TRIPOS>ATOM
      1 S           0.9234    2.0530   21.6551 S.O2    1  UNL1        0.0143
      2 O          -0.2325    1.2239   21.1792 O.2     1  UNL1       -0.1683
      3 O           2.0793    2.8822   22.1309 O.2     1  UNL1       -0.1683
      4 C          -0.8333    2.1249   25.7974 C.ar    1  UNL1        0.2248
      5 C           0.1772    1.0793   25.4293 C.ar    1  UNL1        0.0590
      6 C           0.7628    1.0553   24.0486 C.ar    1  UNL1        0.0247
      7 C           0.3378    2.0770   23.0359 C.ar    1  UNL1        0.1253
      8 C          -0.6727    3.1226   23.4039 C.ar    1  UNL1        0.1203
      9 N          -1.2583    3.1466   24.7847 N.ar    1  UNL1       -0.2088
     10 O          -1.4189    2.1489   27.1782 O.3     1  UNL1       -0.4640
     11 C           0.4271    1.9144   28.9913 C.3     1  UNL1        0.0473
     12 C          -0.7731    1.3628   28.2804 C.3     1  UNL1        0.1678
     13 C          -1.3274    0.0251   28.6719 C.3     1  UNL1        0.0473
     14 C           1.5090    2.0291   20.2743 C.3     1  UNL1        0.1823
     15 C           2.2896    0.8348   19.8114 C.ar    1  UNL1        0.0014
     16 C           2.6194    0.6721   18.3572 C.ar    1  UNL1       -0.0029
     17 C           3.4001   -0.5222   17.8942 C.ar    1  UNL1       -0.0048
     18 C           3.8510   -1.5537   18.8855 C.ar    1  UNL1       -0.0247
     19 C           3.5212   -1.3909   20.3397 C.ar    1  UNL1       -0.0250
     20 C           2.7406   -0.1967   20.8027 C.ar    1  UNL1       -0.0071
     21 C           3.8716   -2.2942   21.4849 C.3     1  UNL1        0.0431
     22 C           4.6382   -3.5833   21.4587 C.3     1  UNL1        0.0733
     23 N           5.2438   -4.2874   20.2808 N.3     1  UNL1       -0.2969
     24 C           5.2324   -3.8764   18.8382 C.3     1  UNL1        0.0733
     25 C           4.6126   -2.6598   18.2173 C.3     1  UNL1        0.0431
     26 H           4.8129   -5.2118   20.2866 H       1  UNL1        0.1233
@<TRIPOS>BOND
     1    11    12    1
     2    12    13    1
     3    12    10    1
     4    10     4    1
     5     4     5   ar
     6     5     6   ar
     7     6     7   ar
     8     7     1    1
     9     1     2    2
    10     1     3    2
    11     1    14    1
    12    14    15    1
    13    15    16   ar
    14    16    17   ar
    15    17    18   ar
    16    18    19   ar
    17    19    20   ar
    18    19    21    1
    19    21    22    1
    20    22    23    1
    21    23    24    1
    22    24    25    1
    23     7     8   ar
    24     8     9   ar
    25     9     4   ar
    26    20    15   ar
    27    25    18    1
    28    23    26    1
@<TRIPOS>MOLECULE
*****
 26 28 0 0 0
SMALL
GASTEIGER

@<TRIPOS>ATOM
      1 S           5.9848   -3.4916   19.9257 S.O2    1  UNL1        0.0143
      2 O           6.9341   -2.3306   19.8928 O.2     1  UNL1       -0.1683
      3 O           5.0355   -4.6525   19.9587 O.2     1  UNL1       -0.1683
      4 C           7.7747   -4.8444   23.8266 C.ar    1  UNL1        0.2248
      5 C           6.4201   -4.2005   23.8061 C.ar    1  UNL1        0.0590
      6 C           5.8234   -3.7496   22.5059 C.ar    1  UNL1        0.0247
      7 C           6.5815   -3.9425   21.2260 C.ar    1  UNL1        0.1253
      8 C           7.9361   -4.5864   21.2463 C.ar    1  UNL1        0.1203
      9 N           8.5327   -5.0373   22.5466 N.ar    1  UNL1       -0.2088
     10 O           8.3714   -5.2953   25.1268 O.3     1  UNL1       -0.4640
     11 C           6.8061   -5.8928   27.1125 C.3     1  UNL1        0.0473
     12 C           7.6644   -6.3230   25.9600 C.3     1  UNL1        0.1678
     13 C           7.8155   -7.7808   25.6407 C.3     1  UNL1        0.0473
     14 C           5.3882   -3.0406   18.6254 C.3     1  UNL1        0.1823
     15 C           4.5050   -1.8289   18.5858 C.ar    1  UNL1        0.0014
     16 C           4.8126   -0.7073   17.6385 C.ar    1  UNL1       -0.0029
     17 C           3.9293    0.5045   17.5988 C.ar    1  UNL1       -0.0048
     18 C           2.7384    0.5945   18.5065 C.ar    1  UNL1       -0.0247
     19 C           2.4309   -0.5270   19.4537 C.ar    1  UNL1       -0.0250
     20 C           3.3141   -1.7388   19.4934 C.ar    1  UNL1       -0.0071
     21 C           1.3028   -0.6388   20.4362 C.3     1  UNL1        0.0431
     22 C           0.2038    0.3437   20.7139 C.3     1  UNL1        0.0733
     23 N          -0.0386    1.6803   20.0779 N.3     1  UNL1       -0.2969
     24 C           0.7581    2.3647   19.0070 C.3     1  UNL1        0.0733
     25 C           1.9940    1.8815   18.3076 C.3     1  UNL1        0.0431
     26 H          -0.0371    2.3382   20.8573 H       1  UNL1        0.1233
@<TRIPOS>BOND
     1    11    12    1
     2    12    13    1
     3    12    10    1
     4    10     4    1
     5     4     5   ar
     6     5     6   ar
     7     6     7   ar
     8     7     1    1
     9     1     2    2
    10     1     3    2
    11     1    14    1
    12    14    15    1
    13    15    16   ar
    14    16    17   ar
    15    17    18   ar
    16    18    19   ar
    17    19    20   ar
    18    19    21    1
    19    21    22    1
    20    22    23    1
    21    23    24    1
    22    24    25    1
    23     7     8   ar
    24     8     9   ar
    25     9     4   ar
    26    20    15   ar
    27    25    18    1
    28    23    26    1
@<TRIPOS>MOLECULE
*****
 26 28 0 0 0
SMALL
GASTEIGER

@<TRIPOS>ATOM
      1 S          -0.8834    3.2197   21.3703 S.O2    1  UNL1        0.0143
      2 O          -1.8165    2.4733   20.4636 O.2     1  UNL1       -0.1683
      3 O           0.0498    3.9661   22.2770 O.2     1  UNL1       -0.1683
      4 C          -4.1524    3.5749   24.4424 C.ar    1  UNL1        0.2248
      5 C          -4.4990    3.4748   22.9864 C.ar    1  UNL1        0.0590
      6 C          -3.4094    3.3564   21.9624 C.ar    1  UNL1        0.0247
      7 C          -1.9730    3.3381   22.3943 C.ar    1  UNL1        0.1253
      8 C          -1.6263    3.4382   23.8503 C.ar    1  UNL1        0.1203
      9 N          -2.7160    3.5566   24.8743 N.ar    1  UNL1       -0.2088
     10 O          -5.2419    3.6934   25.4665 O.3     1  UNL1       -0.4640
     11 C          -4.7632    5.6237   27.1382 C.3     1  UNL1        0.0473
     12 C          -5.5933    5.0359   26.0357 C.3     1  UNL1        0.1678
     13 C          -6.7749    5.7908   25.5026 C.3     1  UNL1        0.0473
     14 C           0.2063    3.1013   20.3463 C.3     1  UNL1        0.1823
     15 C           0.9477    1.8072   20.1863 C.ar    1  UNL1        0.0014
     16 C           0.8783    0.7651   21.2630 C.ar    1  UNL1       -0.0029
     17 C           1.6197   -0.5291   21.1032 C.ar    1  UNL1       -0.0048
     18 C           2.4305   -0.7811   19.8666 C.ar    1  UNL1       -0.0247
     19 C           2.4999    0.2610   18.7900 C.ar    1  UNL1       -0.0250
     20 C           1.7586    1.5551   18.9498 C.ar    1  UNL1       -0.0071
     21 C           3.2439    0.2128   17.4883 C.3     1  UNL1        0.0431
     22 C           4.1022   -0.8894   16.9419 C.3     1  UNL1        0.0733
     23 N           4.4284   -2.2155   17.5621 N.3     1  UNL1       -0.2969
     24 C           3.9771   -2.7672   18.8820 C.3     1  UNL1        0.0733
     25 C           3.0879   -2.1288   19.9076 C.3     1  UNL1        0.0431
     26 H           5.4470   -2.2296   17.6142 H       1  UNL1        0.1233
@<TRIPOS>BOND
     1    11    12    1
     2    12    13    1
     3    12    10    1
     4    10     4    1
     5     4     5   ar
     6     5     6   ar
     7     6     7   ar
     8     7     1    1
     9     1     2    2
    10     1     3    2
    11     1    14    1
    12    14    15    1
    13    15    16   ar
    14    16    17   ar
    15    17    18   ar
    16    18    19   ar
    17    19    20   ar
    18    19    21    1
    19    21    22    1
    20    22    23    1
    21    23    24    1
    22    24    25    1
    23     7     8   ar
    24     8     9   ar
    25     9     4   ar
    26    20    15   ar
    27    25    18    1
    28    23    26    1
@<TRIPOS>MOLECULE
*****
 26 28 0 0 0
SMALL
GASTEIGER

@<TRIPOS>ATOM
      1 S           0.6226    1.6330   20.2865 S.O2    1  UNL1        0.0143
      2 O           1.6543    2.7145   20.1604 O.2     1  UNL1       -0.1683
      3 O          -0.4092    0.5515   20.4127 O.2     1  UNL1       -0.1683
      4 C           3.5781   -1.3708   18.7078 C.ar    1  UNL1        0.2248
      5 C           3.2984   -0.1161   17.9349 C.ar    1  UNL1        0.0590
      6 C           2.3133    0.8852   18.4610 C.ar    1  UNL1        0.0247
      7 C           1.6077    0.6318   19.7603 C.ar    1  UNL1        0.1253
      8 C           1.8874   -0.6230   20.5333 C.ar    1  UNL1        0.1203
      9 N           2.8726   -1.6242   20.0071 N.ar    1  UNL1       -0.2088
     10 O           4.5633   -2.3721   18.1817 O.3     1  UNL1       -0.4640
     11 C           4.2696   -4.8394   18.9406 C.3     1  UNL1        0.0473
     12 C           4.9891   -3.5269   19.0390 C.3     1  UNL1        0.1678
     13 C           6.1345   -3.3694   19.9947 C.3     1  UNL1        0.0473
     14 C          -0.3626    2.6343   20.8128 C.3     1  UNL1        0.1823
     15 C          -1.4252    3.1869   19.9097 C.ar    1  UNL1        0.0014
     16 C          -1.0476    3.7924   18.5903 C.ar    1  UNL1       -0.0029
     17 C          -2.1102    4.3451   17.6872 C.ar    1  UNL1       -0.0048
     18 C          -3.5503    4.2921   18.1035 C.ar    1  UNL1       -0.0247
     19 C          -3.9278    3.6866   19.4228 C.ar    1  UNL1       -0.0250
     20 C          -2.8653    3.1339   20.3259 C.ar    1  UNL1       -0.0071
     21 C          -5.2929    3.5345   20.0257 C.3     1  UNL1        0.0431
     22 C          -6.6177    3.9506   19.4580 C.3     1  UNL1        0.0733
     23 N          -6.9043    4.6213   18.1474 N.3     1  UNL1       -0.2969
     24 C          -5.9373    5.0417   17.0806 C.3     1  UNL1        0.0733
     25 C          -4.4446    4.8952   17.0611 C.3     1  UNL1        0.0431
     26 H          -7.3937    5.4795   18.4012 H       1  UNL1        0.1233
@<TRIPOS>BOND
     1    11    12    1
     2    12    13    1
     3    12    10    1
     4    10     4    1
     5     4     5   ar
     6     5     6   ar
     7     6     7   ar
     8     7     1    1
     9     1     2    2
    10     1     3    2
    11     1    14    1
    12    14    15    1
    13    15    16   ar
    14    16    17   ar
    15    17    18   ar
    16    18    19   ar
    17    19    20   ar
    18    19    21    1
    19    21    22    1
    20    22    23    1
    21    23    24    1
    22    24    25    1
    23     7     8   ar
    24     8     9   ar
    25     9     4   ar
    26    20    15   ar
    27    25    18    1
    28    23    26    1
@<TRIPOS>MOLECULE
*****
 26 28 0 0 0
SMALL
GASTEIGER

@<TRIPOS>ATOM
      1 S           0.3366    1.9960   19.9817 S.O2    1  UNL1        0.0143
      2 O           1.2900    3.0393   19.4790 O.2     1  UNL1       -0.1683
      3 O          -0.6167    0.9528   20.4845 O.2     1  UNL1       -0.1683
      4 C           3.3161   -1.2183   18.9616 C.ar    1  UNL1        0.2248
      5 C           3.2437    0.0284   18.1306 C.ar    1  UNL1        0.0590
      6 C           2.2506    1.0999   18.4706 C.ar    1  UNL1        0.0247
      7 C           1.3298    0.9246   19.6417 C.ar    1  UNL1        0.1253
      8 C           1.4021   -0.3221   20.4727 C.ar    1  UNL1        0.1203
      9 N           2.3953   -1.3936   20.1326 N.ar    1  UNL1       -0.2088
     10 O           4.3093   -2.2898   18.6216 O.3     1  UNL1       -0.4640
     11 C           5.3606   -3.5812   20.6159 C.3     1  UNL1        0.0473
     12 C           4.3978   -3.5258   19.4669 C.3     1  UNL1        0.1678
     13 C           3.5237   -4.7063   19.1634 C.3     1  UNL1        0.0473
     14 C          -0.6565    3.0675   20.3218 C.3     1  UNL1        0.1823
     15 C          -1.1524    3.2108   21.7302 C.ar    1  UNL1        0.0014
     16 C          -0.1917    3.1080   22.8776 C.ar    1  UNL1       -0.0029
     17 C          -0.6875    3.2512   24.2861 C.ar    1  UNL1       -0.0048
     18 C          -2.1441    3.4972   24.5470 C.ar    1  UNL1       -0.0247
     19 C          -3.1046    3.6000   23.3997 C.ar    1  UNL1       -0.0250
     20 C          -2.6089    3.4568   21.9913 C.ar    1  UNL1       -0.0071
     21 C          -4.5849    3.8398   23.4378 C.3     1  UNL1        0.0431
     22 C          -5.4700    4.0360   24.6329 C.3     1  UNL1        0.0733
     23 N          -5.0935    4.0409   26.0848 N.3     1  UNL1       -0.2969
     24 C          -3.7389    3.8508   26.7004 C.3     1  UNL1        0.0733
     25 C          -2.4263    3.6089   26.0160 C.3     1  UNL1        0.0431
     26 H          -5.6682    3.3077   26.5002 H       1  UNL1        0.1233
@<TRIPOS>BOND
     1    11    12    1
     2    12    13    1
     3    12    10    1
     4    10     4    1
     5     4     5   ar
     6     5     6   ar
     7     6     7   ar
     8     7     1    1
     9     1     2    2
    10     1     3    2
    11     1    14    1
    12    14    15    1
    13    15    16   ar
    14    16    17   ar
    15    17    18   ar
    16    18    19   ar
    17    19    20   ar
    18    19    21    1
    19    21    22    1
    20    22    23    1
    21    23    24    1
    22    24    25    1
    23     7     8   ar
    24     8     9   ar
    25     9     4   ar
    26    20    15   ar
    27    25    18    1
    28    23    26    1
@<TRIPOS>MOLECULE
*****
 26 28 0 0 0
SMALL
GASTEIGER

@<TRIPOS>ATOM
      1 S         -13.7851   -3.5833   19.2978 S.O2    1  UNL1        0.0143
      2 O         -13.8928   -3.8084   17.8187 O.2     1  UNL1       -0.1683
      3 O         -13.6773   -3.3581   20.7769 O.2     1  UNL1       -0.1683
      4 C         -13.9993    0.8628   18.6366 C.ar    1  UNL1        0.2248
      5 C         -15.2092    0.1165   19.1152 C.ar    1  UNL1        0.0590
      6 C         -15.1379   -1.3655   19.3357 C.ar    1  UNL1        0.0247
      7 C         -13.8565   -2.1012   19.0774 C.ar    1  UNL1        0.1253
      8 C         -12.6465   -1.3550   18.5987 C.ar    1  UNL1        0.1203
      9 N         -12.7179    0.1270   18.3783 N.ar    1  UNL1       -0.2088
     10 O         -14.0706    2.3448   18.4162 O.3     1  UNL1       -0.4640
     11 C         -15.6315    3.6123   20.0614 C.3     1  UNL1        0.0473
     12 C         -15.3483    3.0826   18.6870 C.3     1  UNL1        0.1678
     13 C         -16.3426    3.2906   17.5834 C.3     1  UNL1        0.0473
     14 C         -13.7137   -5.0653   19.5182 C.3     1  UNL1        0.1823
     15 C         -14.9542   -5.9009   19.4053 C.ar    1  UNL1        0.0014
     16 C         -16.2995   -5.2824   19.6458 C.ar    1  UNL1       -0.0029
     17 C         -17.5401   -6.1180   19.5328 C.ar    1  UNL1       -0.0048
     18 C         -17.4354   -7.5721   19.1794 C.ar    1  UNL1       -0.0247
     19 C         -16.0902   -8.1904   18.9389 C.ar    1  UNL1       -0.0250
     20 C         -14.8496   -7.3549   19.0518 C.ar    1  UNL1       -0.0071
     21 C         -15.7642   -9.6095   18.5785 C.3     1  UNL1        0.0431
     22 C         -16.7030  -10.7607   18.3695 C.3     1  UNL1        0.0733
     23 N         -18.1995  -10.7770   18.4694 N.3     1  UNL1       -0.2969
     24 C         -19.1270   -9.6463   18.8029 C.3     1  UNL1        0.0733
     25 C         -18.7869   -8.2199   19.1189 C.3     1  UNL1        0.0431
     26 H         -18.4009  -11.4884   19.1720 H       1  UNL1        0.1233
@<TRIPOS>BOND
     1    11    12    1
     2    12    13    1
     3    12    10    1
     4    10     4    1
     5     4     5   ar
     6     5     6   ar
     7     6     7   ar
     8     7     1    1
     9     1     2    2
    10     1     3    2
    11     1    14    1
    12    14    15    1
    13    15    16   ar
    14    16    17   ar
    15    17    18   ar
    16    18    19   ar
    17    19    20   ar
    18    19    21    1
    19    21    22    1
    20    22    23    1
    21    23    24    1
    22    24    25    1
    23     7     8   ar
    24     8     9   ar
    25     9     4   ar
    26    20    15   ar
    27    25    18    1
    28    23    26    1
@<TRIPOS>MOLECULE
*****
 26 28 0 0 0
SMALL
GASTEIGER

@<TRIPOS>ATOM
      1 S         -13.8172   -1.0259   17.6463 S.O2    1  UNL1        0.0143
      2 O         -12.9301    0.1829   17.6042 O.2     1  UNL1       -0.1683
      3 O         -14.7043   -2.2347   17.6884 O.2     1  UNL1       -0.1683
      4 C         -16.7040    1.1850   20.2974 C.ar    1  UNL1        0.2248
      5 C         -15.8229    1.9445   19.3504 C.ar    1  UNL1        0.0590
      6 C         -14.8606    1.2076   18.4667 C.ar    1  UNL1        0.0247
      7 C         -14.7795   -0.2889   18.5300 C.ar    1  UNL1        0.1253
      8 C         -15.6606   -1.0484   19.4770 C.ar    1  UNL1        0.1203
      9 N         -16.6229   -0.3115   20.3607 N.ar    1  UNL1       -0.2088
     10 O         -17.6663    1.9219   21.1812 O.3     1  UNL1       -0.4640
     11 C         -17.5501    2.3533   23.7406 C.3     1  UNL1        0.0473
     12 C         -17.1556    2.7236   22.3415 C.3     1  UNL1        0.1678
     13 C         -16.2505    3.8957   22.1030 C.3     1  UNL1        0.0473
     14 C         -12.8549   -1.7628   16.7626 C.3     1  UNL1        0.1823
     15 C         -12.0560   -2.9066   17.3134 C.ar    1  UNL1        0.0014
     16 C         -11.1119   -2.6799   18.4569 C.ar    1  UNL1       -0.0029
     17 C         -10.3129   -3.8236   19.0079 C.ar    1  UNL1       -0.0048
     18 C         -10.4579   -5.1940   18.4153 C.ar    1  UNL1       -0.0247
     19 C         -11.4019   -5.4206   17.2719 C.ar    1  UNL1       -0.0250
     20 C         -12.2009   -4.2770   16.7209 C.ar    1  UNL1       -0.0071
     21 C         -11.6953   -6.6968   16.5402 C.3     1  UNL1        0.0431
     22 C         -11.1171   -8.0615   16.7712 C.3     1  UNL1        0.0733
     23 N         -10.1028   -8.4870   17.7910 N.3     1  UNL1       -0.2969
     24 C          -9.4160   -7.6530   18.8316 C.3     1  UNL1        0.0733
     25 C          -9.5741   -6.1875   19.1095 C.3     1  UNL1        0.0431
     26 H          -9.3422   -8.8886   17.2427 H       1  UNL1        0.1233
@<TRIPOS>BOND
     1    11    12    1
     2    12    13    1
     3    12    10    1
     4    10     4    1
     5     4     5   ar
     6     5     6   ar
     7     6     7   ar
     8     7     1    1
     9     1     2    2
    10     1     3    2
    11     1    14    1
    12    14    15    1
    13    15    16   ar
    14    16    17   ar
    15    17    18   ar
    16    18    19   ar
    17    19    20   ar
    18    19    21    1
    19    21    22    1
    20    22    23    1
    21    23    24    1
    22    24    25    1
    23     7     8   ar
    24     8     9   ar
    25     9     4   ar
    26    20    15   ar
    27    25    18    1
    28    23    26    1
