@<TRIPOS>MOLECULE
*****
 47 51 0 0 0
SMALL
GASTEIGER

@<TRIPOS>ATOM
      1 C          -1.1864    3.4254   26.3889 C.ar    1  UNL1        0.0528
      2 C          -0.2366    4.4501   26.9345 C.ar    1  UNL1        0.0148
      3 C           0.7810    4.0567   27.9639 C.ar    1  UNL1        0.0027
      4 C           0.8487    2.6385   28.4477 C.ar    1  UNL1        0.0180
      5 C          -0.1011    1.6137   27.9022 C.ar    1  UNL1        0.0519
      6 C          -1.1187    2.0072   26.8728 C.ar    1  UNL1        0.0294
      7 N           0.2013    0.3023   28.5645 N.am    1  UNL1       -0.2803
      8 C           1.3381    0.5166   29.5194 C.2     1  UNL1        0.2496
      9 O           1.9647   -0.5295   30.3931 O.2     1  UNL1       -0.2698
     10 C           1.7383    1.9604   29.4473 C.2     1  UNL1        0.0560
     11 C           2.8352    2.6118   30.2361 C.2     1  UNL1        0.0196
     12 H          -0.2645   -0.5495   28.4012 H       1  UNL1        0.1552
     13 C          -2.8036    3.4798   21.4511 C.2     1  UNL1        0.2548
     14 O          -1.5769    2.7201   21.0410 O.2     1  UNL1       -0.2696
     15 N          -3.0126    3.8460   22.8905 N.am    1  UNL1       -0.2358
     16 C          -1.9950    3.4526   23.9200 C.2     1  UNL1        0.3104
     17 O          -0.7683    2.6929   23.5099 O.2     1  UNL1       -0.2521
     18 N          -2.2040    3.8188   25.3595 N.am    1  UNL1       -0.2680
     19 H          -3.8177    4.3446   23.1597 H       1  UNL1        0.1594
     20 H          -3.0092    4.3174   25.6286 H       1  UNL1        0.1564
     21 C          -5.8565    4.6601   18.3630 C.ar    1  UNL1        0.1410
     22 C          -6.2364    3.7281   19.4752 C.ar    1  UNL1        0.0372
     23 C          -5.2188    3.3347   20.5046 C.ar    1  UNL1        0.0099
     24 C          -3.8212    3.8732   20.4217 C.ar    1  UNL1        0.0814
     25 C          -3.4413    4.8051   19.3094 C.ar    1  UNL1        0.1475
     26 F          -2.0438    5.3437   19.2265 F       1  UNL1       -0.2039
     27 C          -4.4590    5.1986   18.2800 C.ar    1  UNL1        0.0666
     28 C          -6.4458    5.7887   16.0982 C.3     1  UNL1        0.2525
     29 O          -6.8741    5.0535   17.3336 O.3     1  UNL1       -0.4714
     30 C           3.6457    1.8018   31.2041 C.2     1  UNL1        0.0626
     31 N           4.9443    1.1125   30.9064 N.2     1  UNL1       -0.2538
     32 C           5.4010    0.4235   32.1580 C.2     1  UNL1        0.0597
     33 C           6.6540   -0.3866   32.3115 C.3     1  UNL1        0.0519
     34 C           4.3847    0.6869   33.2294 C.2     1  UNL1        0.0499
     35 C           3.2999    1.5387   32.6398 C.3     1  UNL1        0.0681
     36 C           2.0828    2.0396   33.3596 C.3     1  UNL1        0.0112
     37 C           4.4429    0.1865   34.6422 C.2     1  UNL1        0.2434
     38 O           4.3877   -1.2868   34.9188 O.2     1  UNL1       -0.2704
     39 N           4.5563    1.1592   35.7784 N.am    1  UNL1       -0.2997
     40 H           4.5925    2.1261   35.5969 H       1  UNL1        0.1498
     41 C           4.6145    0.6587   37.1912 C.3     1  UNL1        0.1070
     42 C           4.1840    1.5476   38.3202 C.3     1  UNL1        0.0936
     43 N           2.7402    1.6023   38.7230 N.3     1  UNL1       -0.2712
     44 C           1.8980    0.4353   39.1461 C.3     1  UNL1        0.0722
     45 C           0.5223    0.9454   39.4581 C.3     1  UNL1        0.0188
     46 C           0.5142    2.4276   39.2278 C.3     1  UNL1        0.0188
     47 C           1.8850    2.8336   38.7735 C.3     1  UNL1        0.0722
@<TRIPOS>BOND
     1    28    29    1
     2    29    21    1
     3    21    22   ar
     4    22    23   ar
     5    23    24   ar
     6    24    13    1
     7    13    14    2
     8    13    15   am
     9    15    16   am
    10    16    17    2
    11    16    18   am
    12    18     1    1
    13     1     2   ar
    14     2     3   ar
    15     3     4   ar
    16     4     5   ar
    17     5     6   ar
    18     5     7    1
    19     7     8   am
    20     8     9    2
    21     8    10    1
    22    10    11    2
    23    11    30    1
    24    30    31    2
    25    31    32    1
    26    32    33    1
    27    32    34    2
    28    34    37    1
    29    37    38    2
    30    37    39   am
    31    39    41    1
    32    41    42    1
    33    42    43    1
    34    43    44    1
    35    44    45    1
    36    45    46    1
    37    46    47    1
    38    34    35    1
    39    35    36    1
    40    24    25   ar
    41    25    26    1
    42    25    27   ar
    43    27    21   ar
    44     6     1   ar
    45    35    30    1
    46    10     4    1
    47    47    43    1
    48    15    19    1
    49    18    20    1
    50     7    12    1
    51    39    40    1
@<TRIPOS>MOLECULE
*****
 47 51 0 0 0
SMALL
GASTEIGER

@<TRIPOS>ATOM
      1 C          -0.1063    2.6200   26.2284 C.ar    1  UNL1        0.0528
      2 C           0.9090    3.6260   26.6834 C.ar    1  UNL1        0.0148
      3 C           1.8151    3.3085   27.8358 C.ar    1  UNL1        0.0027
      4 C           1.7058    1.9850   28.5333 C.ar    1  UNL1        0.0180
      5 C           0.6906    0.9790   28.0782 C.ar    1  UNL1        0.0519
      6 C          -0.2155    1.2965   26.9258 C.ar    1  UNL1        0.0294
      7 N           0.8144   -0.2329   28.9534 N.am    1  UNL1       -0.2803
      8 C           1.9062    0.0241   29.9493 C.2     1  UNL1        0.2496
      9 O           2.3663   -0.9234   31.0174 O.2     1  UNL1       -0.2698
     10 C           2.4572    1.3949   29.6897 C.2     1  UNL1        0.0560
     11 C           3.5650    2.0589   30.4525 C.2     1  UNL1        0.0196
     12 H           0.2739   -1.0530   28.8860 H       1  UNL1        0.1552
     13 C          -4.5722    4.5639   24.4180 C.2     1  UNL1        0.2548
     14 O          -4.9929    4.9010   25.8177 O.2     1  UNL1       -0.2696
     15 N          -3.2454    3.9095   24.1707 N.am    1  UNL1       -0.2358
     16 C          -2.3392    3.5920   25.3232 C.2     1  UNL1        0.3104
     17 O          -2.7600    3.9290   26.7229 O.2     1  UNL1       -0.2521
     18 N          -1.0124    2.9375   25.0759 N.am    1  UNL1       -0.2680
     19 H          -2.9693    3.6882   23.2519 H       1  UNL1        0.1594
     20 H          -0.7363    2.7163   24.1571 H       1  UNL1        0.1564
     21 C          -7.2904    5.5163   20.9605 C.ar    1  UNL1        0.1410
     22 C          -7.1446    6.4917   22.0907 C.ar    1  UNL1        0.0372
     23 C          -6.2385    6.1743   23.2432 C.ar    1  UNL1        0.0099
     24 C          -5.4782    4.8814   23.2655 C.ar    1  UNL1        0.0814
     25 C          -5.6241    3.9060   22.1353 C.ar    1  UNL1        0.1475
     26 F          -4.8638    2.6131   22.1576 F       1  UNL1       -0.2039
     27 C          -6.5302    4.2235   20.9828 C.ar    1  UNL1        0.0666
     28 C          -7.7145    5.6430   18.4004 C.3     1  UNL1        0.2525
     29 O          -8.1965    5.8338   19.8080 O.3     1  UNL1       -0.4714
     30 C           4.2261    1.3413   31.5918 C.2     1  UNL1        0.0626
     31 N           5.3599    0.3655   31.4801 N.2     1  UNL1       -0.2538
     32 C           5.7041   -0.1053   32.8620 C.2     1  UNL1        0.0597
     33 C           6.7803   -1.0883   33.2161 C.3     1  UNL1        0.0519
     34 C           4.7831    0.5795   33.8279 C.2     1  UNL1        0.0499
     35 C           3.8697    1.4735   33.0428 C.3     1  UNL1        0.0681
     36 C           2.7894    2.3466   33.6092 C.3     1  UNL1        0.0112
     37 C           4.7765    0.4015   35.3172 C.2     1  UNL1        0.2434
     38 O           4.3634   -0.9113   35.9138 O.2     1  UNL1       -0.2704
     39 N           5.1831    1.5363   36.2100 N.am    1  UNL1       -0.2997
     40 H           5.4543    2.3979   35.8185 H       1  UNL1        0.1498
     41 C           5.1765    1.3582   37.6994 C.3     1  UNL1        0.1070
     42 C           4.3127    2.2359   38.5558 C.3     1  UNL1        0.0936
     43 N           2.9118    1.8151   38.8877 N.3     1  UNL1       -0.2712
     44 C           1.7461    2.7317   39.1142 C.3     1  UNL1        0.0722
     45 C           0.5444    1.8870   39.4178 C.3     1  UNL1        0.0188
     46 C           0.9672    0.4483   39.3791 C.3     1  UNL1        0.0188
     47 C           2.4304    0.4039   39.0515 C.3     1  UNL1        0.0722
@<TRIPOS>BOND
     1    28    29    1
     2    29    21    1
     3    21    22   ar
     4    22    23   ar
     5    23    24   ar
     6    24    13    1
     7    13    14    2
     8    13    15   am
     9    15    16   am
    10    16    17    2
    11    16    18   am
    12    18     1    1
    13     1     2   ar
    14     2     3   ar
    15     3     4   ar
    16     4     5   ar
    17     5     6   ar
    18     5     7    1
    19     7     8   am
    20     8     9    2
    21     8    10    1
    22    10    11    2
    23    11    30    1
    24    30    31    2
    25    31    32    1
    26    32    33    1
    27    32    34    2
    28    34    37    1
    29    37    38    2
    30    37    39   am
    31    39    41    1
    32    41    42    1
    33    42    43    1
    34    43    44    1
    35    44    45    1
    36    45    46    1
    37    46    47    1
    38    34    35    1
    39    35    36    1
    40    24    25   ar
    41    25    26    1
    42    25    27   ar
    43    27    21   ar
    44     6     1   ar
    45    35    30    1
    46    10     4    1
    47    47    43    1
    48    15    19    1
    49    18    20    1
    50     7    12    1
    51    39    40    1
@<TRIPOS>MOLECULE
*****
 47 51 0 0 0
SMALL
GASTEIGER

@<TRIPOS>ATOM
      1 C           6.5994   -1.3449   30.5079 C.ar    1  UNL1        0.0528
      2 C           6.3453   -2.7983   30.2379 C.ar    1  UNL1        0.0148
      3 C           6.4690   -3.3348   28.8426 C.ar    1  UNL1        0.0027
      4 C           6.8468   -2.4177   27.7173 C.ar    1  UNL1        0.0180
      5 C           7.1008   -0.9643   27.9873 C.ar    1  UNL1        0.0519
      6 C           6.9772   -0.4279   29.3826 C.ar    1  UNL1        0.0294
      7 N           7.4547   -0.3062   26.6866 N.am    1  UNL1       -0.2803
      8 C           7.4193   -1.3530   25.6128 C.2     1  UNL1        0.2496
      9 O           7.7088   -1.1332   24.1574 O.2     1  UNL1       -0.2698
     10 C           7.0436   -2.6580   26.2497 C.2     1  UNL1        0.0560
     11 C           6.8914   -3.9724   25.5433 C.2     1  UNL1        0.0196
     12 H           7.6720    0.6456   26.5600 H       1  UNL1        0.1552
     13 C           3.7977    1.0278   34.1850 C.2     1  UNL1        0.2548
     14 O           2.6442    1.1412   33.2329 O.2     1  UNL1       -0.2696
     15 N           5.0749    0.3779   33.7418 N.am    1  UNL1       -0.2358
     16 C           5.1985   -0.1586   32.3464 C.2     1  UNL1        0.3104
     17 O           4.0450   -0.0451   31.3944 O.2     1  UNL1       -0.2521
     18 N           6.4757   -0.8084   31.9032 N.am    1  UNL1       -0.2680
     19 H           5.8320    0.3035   34.3667 H       1  UNL1        0.1594
     20 H           7.2328   -0.8829   32.5282 H       1  UNL1        0.1564
     21 C           3.4268    2.6372   38.3710 C.ar    1  UNL1        0.1410
     22 C           2.9299    3.4462   37.2096 C.ar    1  UNL1        0.0372
     23 C           3.0536    2.9097   35.8143 C.ar    1  UNL1        0.0099
     24 C           3.6741    1.5642   35.5803 C.ar    1  UNL1        0.0814
     25 C           4.1709    0.7553   36.7416 C.ar    1  UNL1        0.1475
     26 F           4.7914   -0.5902   36.5077 F       1  UNL1       -0.2039
     27 C           4.0473    1.2918   38.1370 C.ar    1  UNL1        0.0666
     28 C           4.0272    4.4289   40.1541 C.3     1  UNL1        0.2525
     29 O           3.3032    3.1736   39.7663 O.3     1  UNL1       -0.4714
     30 C           7.1217   -4.0597   24.0636 C.2     1  UNL1        0.0626
     31 N           8.3934   -4.4881   23.3930 N.2     1  UNL1       -0.2538
     32 C           8.1785   -4.4271   21.9098 C.2     1  UNL1        0.0597
     33 C           9.1903   -4.7716   20.8575 C.3     1  UNL1        0.0519
     34 C           6.7741   -3.9610   21.6636 C.2     1  UNL1        0.0499
     35 C           6.1211   -3.7340   22.9947 C.3     1  UNL1        0.0681
     36 C           4.7142   -3.2637   23.2179 C.3     1  UNL1        0.0112
     37 C           6.1350   -3.7577   20.3219 C.2     1  UNL1        0.2434
     38 O           5.2543   -4.8241   19.7414 O.2     1  UNL1       -0.2704
     39 N           6.3765   -2.4879   19.5607 N.am    1  UNL1       -0.2997
     40 H           6.9546   -1.7880   19.9417 H       1  UNL1        0.1498
     41 C           5.7374   -2.2847   18.2191 C.3     1  UNL1        0.1070
     42 C           4.9708   -1.0267   17.9363 C.3     1  UNL1        0.0936
     43 N           3.6498   -0.7870   18.6051 N.3     1  UNL1       -0.2712
     44 C           2.6376    0.2480   18.2121 C.3     1  UNL1        0.0722
     45 C           1.4711    0.1345   19.1483 C.3     1  UNL1        0.0188
     46 C           1.7623   -0.9708   20.1199 C.3     1  UNL1        0.0188
     47 C           3.1088   -1.5403   19.7840 C.3     1  UNL1        0.0722
@<TRIPOS>BOND
     1    28    29    1
     2    29    21    1
     3    21    22   ar
     4    22    23   ar
     5    23    24   ar
     6    24    13    1
     7    13    14    2
     8    13    15   am
     9    15    16   am
    10    16    17    2
    11    16    18   am
    12    18     1    1
    13     1     2   ar
    14     2     3   ar
    15     3     4   ar
    16     4     5   ar
    17     5     6   ar
    18     5     7    1
    19     7     8   am
    20     8     9    2
    21     8    10    1
    22    10    11    2
    23    11    30    1
    24    30    31    2
    25    31    32    1
    26    32    33    1
    27    32    34    2
    28    34    37    1
    29    37    38    2
    30    37    39   am
    31    39    41    1
    32    41    42    1
    33    42    43    1
    34    43    44    1
    35    44    45    1
    36    45    46    1
    37    46    47    1
    38    34    35    1
    39    35    36    1
    40    24    25   ar
    41    25    26    1
    42    25    27   ar
    43    27    21   ar
    44     6     1   ar
    45    35    30    1
    46    10     4    1
    47    47    43    1
    48    15    19    1
    49    18    20    1
    50     7    12    1
    51    39    40    1
@<TRIPOS>MOLECULE
*****
 47 51 0 0 0
SMALL
GASTEIGER

@<TRIPOS>ATOM
      1 C          -0.3560    3.0935   25.9131 C.ar    1  UNL1        0.0528
      2 C          -1.0734    2.1460   26.8283 C.ar    1  UNL1        0.0148
      3 C          -0.3605    1.5624   28.0119 C.ar    1  UNL1        0.0027
      4 C           1.0698    1.9262   28.2804 C.ar    1  UNL1        0.0180
      5 C           1.7871    2.8737   27.3652 C.ar    1  UNL1        0.0519
      6 C           1.0742    3.4574   26.1816 C.ar    1  UNL1        0.0294
      7 N           3.1855    3.0457   27.8798 N.am    1  UNL1       -0.2803
      8 C           3.3325    2.2046   29.1130 C.2     1  UNL1        0.2496
      9 O           4.5699    2.0776   29.9514 O.2     1  UNL1       -0.2698
     10 C           2.0249    1.5126   29.3606 C.2     1  UNL1        0.0560
     11 C           1.7250    0.5723   30.4901 C.2     1  UNL1        0.0196
     12 H           3.8842    3.6114   27.4785 H       1  UNL1        0.1552
     13 C          -1.4733    3.0041   20.8392 C.2     1  UNL1        0.2548
     14 O          -0.6062    1.7919   20.6697 O.2     1  UNL1       -0.2696
     15 N          -1.6276    3.6325   22.1924 N.am    1  UNL1       -0.2358
     16 C          -0.9147    3.0488   23.3762 C.2     1  UNL1        0.3104
     17 O          -0.0476    1.8366   23.2066 O.2     1  UNL1       -0.2521
     18 N          -1.0689    3.6773   24.7294 N.am    1  UNL1       -0.2680
     19 H          -2.1967    4.4281   22.3037 H       1  UNL1        0.1594
     20 H          -1.6380    4.4728   24.8407 H       1  UNL1        0.1564
     21 C          -3.6119    4.7553   17.2883 C.ar    1  UNL1        0.1410
     22 C          -2.1127    4.7573   17.3368 C.ar    1  UNL1        0.0372
     23 C          -1.3998    4.1736   18.5204 C.ar    1  UNL1        0.0099
     24 C          -2.1862    3.5878   19.6556 C.ar    1  UNL1        0.0814
     25 C          -3.6854    3.5859   19.6071 C.ar    1  UNL1        0.1475
     26 F          -4.4718    3.0001   20.7422 F       1  UNL1       -0.2039
     27 C          -4.3983    4.1696   18.4234 C.ar    1  UNL1        0.0666
     28 C          -5.6910    5.9357   16.2712 C.3     1  UNL1        0.2525
     29 O          -4.3248    5.3391   16.1046 O.3     1  UNL1       -0.4714
     30 C           2.7861    0.2511   31.5005 C.2     1  UNL1        0.0626
     31 N           3.7716   -0.8767   31.4159 N.2     1  UNL1       -0.2538
     32 C           4.6426   -0.8235   32.6359 C.2     1  UNL1        0.0597
     33 C           5.7639   -1.7655   32.9604 C.3     1  UNL1        0.0519
     34 C           4.1955    0.3371   33.4745 C.2     1  UNL1        0.0499
     35 C           3.0482    1.0012   32.7728 C.3     1  UNL1        0.0681
     36 C           2.2950    2.2042   33.2580 C.3     1  UNL1        0.0112
     37 C           4.7911    0.7594   34.7848 C.2     1  UNL1        0.2434
     38 O           5.8930    1.7768   34.8144 O.2     1  UNL1       -0.2704
     39 N           4.2850    0.1645   36.0653 N.am    1  UNL1       -0.2997
     40 H           3.5618   -0.5032   36.0459 H       1  UNL1        0.1498
     41 C           4.8807    0.5869   37.3755 C.3     1  UNL1        0.1070
     42 C           4.3125    1.7629   38.1133 C.3     1  UNL1        0.0936
     43 N           2.8951    1.7278   38.6026 N.3     1  UNL1       -0.2712
     44 C           2.1603    0.5141   39.0897 C.3     1  UNL1        0.0722
     45 C           0.7745    0.9364   39.4788 C.3     1  UNL1        0.0188
     46 C           0.6528    2.4111   39.2322 C.3     1  UNL1        0.0188
     47 C           1.9634    2.9001   38.6906 C.3     1  UNL1        0.0722
@<TRIPOS>BOND
     1    28    29    1
     2    29    21    1
     3    21    22   ar
     4    22    23   ar
     5    23    24   ar
     6    24    13    1
     7    13    14    2
     8    13    15   am
     9    15    16   am
    10    16    17    2
    11    16    18   am
    12    18     1    1
    13     1     2   ar
    14     2     3   ar
    15     3     4   ar
    16     4     5   ar
    17     5     6   ar
    18     5     7    1
    19     7     8   am
    20     8     9    2
    21     8    10    1
    22    10    11    2
    23    11    30    1
    24    30    31    2
    25    31    32    1
    26    32    33    1
    27    32    34    2
    28    34    37    1
    29    37    38    2
    30    37    39   am
    31    39    41    1
    32    41    42    1
    33    42    43    1
    34    43    44    1
    35    44    45    1
    36    45    46    1
    37    46    47    1
    38    34    35    1
    39    35    36    1
    40    24    25   ar
    41    25    26    1
    42    25    27   ar
    43    27    21   ar
    44     6     1   ar
    45    35    30    1
    46    10     4    1
    47    47    43    1
    48    15    19    1
    49    18    20    1
    50     7    12    1
    51    39    40    1
@<TRIPOS>MOLECULE
*****
 47 51 0 0 0
SMALL
GASTEIGER

@<TRIPOS>ATOM
      1 C           2.2363   -0.0319   29.2582 C.ar    1  UNL1        0.0528
      2 C           1.4868    1.2348   29.5472 C.ar    1  UNL1        0.0148
      3 C           1.5971    1.8803   30.8966 C.ar    1  UNL1        0.0027
      4 C           2.4569    1.2591   31.9572 C.ar    1  UNL1        0.0180
      5 C           3.2065   -0.0076   31.6683 C.ar    1  UNL1        0.0519
      6 C           3.0962   -0.6532   30.3188 C.ar    1  UNL1        0.0294
      7 N           3.9708   -0.3857   32.9023 N.am    1  UNL1       -0.2803
      8 C           3.6936    0.6474   33.9539 C.2     1  UNL1        0.2496
      9 O           4.2537    0.6614   35.3454 O.2     1  UNL1       -0.2698
     10 C           2.7580    1.6640   33.3698 C.2     1  UNL1        0.0560
     11 C           2.2182    2.8731   34.0746 C.2     1  UNL1        0.0196
     12 H           4.5523   -1.1736   33.0042 H       1  UNL1        0.1552
     13 C           4.2268   -1.0014   24.5573 C.2     1  UNL1        0.2548
     14 O           5.4426   -0.1950   24.9058 O.2     1  UNL1       -0.2696
     15 N           3.1213   -1.1623   25.5583 N.am    1  UNL1       -0.2358
     16 C           3.2315   -0.5167   26.9078 C.2     1  UNL1        0.3104
     17 O           4.4474    0.2898   27.2563 O.2     1  UNL1       -0.2521
     18 N           2.1260   -0.6775   27.9087 N.am    1  UNL1       -0.2680
     19 H           2.3233   -1.6916   25.3295 H       1  UNL1        0.1594
     20 H           1.3281   -1.2068   27.6800 H       1  UNL1        0.1564
     21 C           3.8958   -2.9381   20.5089 C.ar    1  UNL1        0.1410
     22 C           3.2825   -1.5903   20.7479 C.ar    1  UNL1        0.0372
     23 C           3.3928   -0.9447   22.0974 C.ar    1  UNL1        0.0099
     24 C           4.1165   -1.6470   23.2079 C.ar    1  UNL1        0.0814
     25 C           4.7298   -2.9949   22.9689 C.ar    1  UNL1        0.1475
     26 F           5.4534   -3.6971   24.0793 F       1  UNL1       -0.2039
     27 C           4.6194   -3.6404   21.6194 C.ar    1  UNL1        0.0666
     28 C           4.5996   -4.8031   18.8426 C.3     1  UNL1        0.2525
     29 O           3.7855   -3.5837   19.1595 O.3     1  UNL1       -0.4714
     30 C           2.6102    3.1502   35.4957 C.2     1  UNL1        0.0626
     31 N           1.9375    2.6013   36.7189 N.2     1  UNL1       -0.2538
     32 C           2.6552    3.1367   37.9223 C.2     1  UNL1        0.0597
     33 C           2.3163    2.8438   39.3538 C.3     1  UNL1        0.0519
     34 C           3.7716    4.0165   37.4428 C.2     1  UNL1        0.0499
     35 C           3.7437    4.0249   35.9431 C.3     1  UNL1        0.0681
     36 C           4.6842    4.7760   35.0479 C.3     1  UNL1        0.0112
     37 C           4.7448    4.7579   38.3106 C.2     1  UNL1        0.2434
     38 O           5.9374    4.0461   38.8774 O.2     1  UNL1       -0.2704
     39 N           4.5256    6.2109   38.6116 N.am    1  UNL1       -0.2997
     40 H           3.7429    6.6781   38.2396 H       1  UNL1        0.1498
     41 C           5.4989    6.9522   39.4794 C.3     1  UNL1        0.1070
     42 C           5.0437    7.5451   40.7799 C.3     1  UNL1        0.0936
     43 N           4.9978    6.6966   42.0159 N.3     1  UNL1       -0.2712
     44 C           5.6149    5.3387   42.1765 C.3     1  UNL1        0.0722
     45 C           5.3253    4.8597   43.5682 C.3     1  UNL1        0.0188
     46 C           4.5294    5.9215   44.2677 C.3     1  UNL1        0.0188
     47 C           4.3270    7.0567   43.3083 C.3     1  UNL1        0.0722
@<TRIPOS>BOND
     1    28    29    1
     2    29    21    1
     3    21    22   ar
     4    22    23   ar
     5    23    24   ar
     6    24    13    1
     7    13    14    2
     8    13    15   am
     9    15    16   am
    10    16    17    2
    11    16    18   am
    12    18     1    1
    13     1     2   ar
    14     2     3   ar
    15     3     4   ar
    16     4     5   ar
    17     5     6   ar
    18     5     7    1
    19     7     8   am
    20     8     9    2
    21     8    10    1
    22    10    11    2
    23    11    30    1
    24    30    31    2
    25    31    32    1
    26    32    33    1
    27    32    34    2
    28    34    37    1
    29    37    38    2
    30    37    39   am
    31    39    41    1
    32    41    42    1
    33    42    43    1
    34    43    44    1
    35    44    45    1
    36    45    46    1
    37    46    47    1
    38    34    35    1
    39    35    36    1
    40    24    25   ar
    41    25    26    1
    42    25    27   ar
    43    27    21   ar
    44     6     1   ar
    45    35    30    1
    46    10     4    1
    47    47    43    1
    48    15    19    1
    49    18    20    1
    50     7    12    1
    51    39    40    1
@<TRIPOS>MOLECULE
*****
 47 51 0 0 0
SMALL
GASTEIGER

@<TRIPOS>ATOM
      1 C          -0.1273    2.7180   25.8061 C.ar    1  UNL1        0.0528
      2 C           1.2814    3.2328   25.7946 C.ar    1  UNL1        0.0148
      3 C           2.2830    2.6991   26.7754 C.ar    1  UNL1        0.0027
      4 C           1.8758    1.6505   27.7677 C.ar    1  UNL1        0.0180
      5 C           0.4670    1.1356   27.7791 C.ar    1  UNL1        0.0519
      6 C          -0.5346    1.6694   26.7984 C.ar    1  UNL1        0.0294
      7 N           0.3580    0.1077   28.8661 N.am    1  UNL1       -0.2803
      8 C           1.6995   -0.0128   29.5264 C.2     1  UNL1        0.2496
      9 O           2.0426   -0.9264   30.6655 O.2     1  UNL1       -0.2698
     10 C           2.6375    0.9407   28.8475 C.2     1  UNL1        0.0560
     11 C           4.0834    1.1481   29.1886 C.2     1  UNL1        0.0196
     12 H          -0.4518   -0.3990   29.1043 H       1  UNL1        0.1552
     13 C          -1.9527    3.0166   20.9503 C.2     1  UNL1        0.2548
     14 O          -0.8621    2.0984   20.4838 O.2     1  UNL1       -0.2696
     15 N          -2.0417    3.4010   22.3974 N.am    1  UNL1       -0.2358
     16 C          -1.0400    2.8673   23.3782 C.2     1  UNL1        0.3104
     17 O           0.0506    1.9491   22.9118 O.2     1  UNL1       -0.2521
     18 N          -1.1290    3.2517   24.8253 N.am    1  UNL1       -0.2680
     19 H          -2.7575    4.0037   22.7035 H       1  UNL1        0.1594
     20 H          -1.8448    3.8544   25.1314 H       1  UNL1        0.1564
     21 C          -4.9575    4.6179   18.0081 C.ar    1  UNL1        0.1410
     22 C          -3.4906    4.8133   17.7633 C.ar    1  UNL1        0.0372
     23 C          -2.4890    4.2796   18.7440 C.ar    1  UNL1        0.0099
     24 C          -2.9543    3.5504   19.9696 C.ar    1  UNL1        0.0814
     25 C          -4.4212    3.3550   20.2143 C.ar    1  UNL1        0.1475
     26 F          -4.8866    2.6258   21.4397 F       1  UNL1       -0.2039
     27 C          -5.4229    3.8888   19.2335 C.ar    1  UNL1        0.0666
     28 C          -7.0172    6.1121   17.4835 C.3     1  UNL1        0.2525
     29 O          -5.9592    5.1517   17.0273 O.3     1  UNL1       -0.4714
     30 C           4.7120    0.3615   30.3004 C.2     1  UNL1        0.0626
     31 N           4.6458    0.6931   31.7619 N.2     1  UNL1       -0.2538
     32 C           5.4100   -0.3582   32.5108 C.2     1  UNL1        0.0597
     33 C           5.6020   -0.4178   33.9972 C.3     1  UNL1        0.0519
     34 C           5.9485   -1.3395   31.5122 C.2     1  UNL1        0.0499
     35 C           5.5172   -0.8947   30.1462 C.3     1  UNL1        0.0681
     36 C           5.8351   -1.5848   28.8528 C.3     1  UNL1        0.0112
     37 C           6.7736   -2.5526   31.8247 C.2     1  UNL1        0.2434
     38 O           6.1560   -3.7144   32.5449 O.2     1  UNL1       -0.2704
     39 N           8.2162   -2.6039   31.4170 N.am    1  UNL1       -0.2997
     40 H           8.6216   -1.8414   30.9443 H       1  UNL1        0.1498
     41 C           9.0412   -3.8170   31.7295 C.3     1  UNL1        0.1070
     42 C           8.9830   -5.0157   30.8297 C.3     1  UNL1        0.0936
     43 N           8.1661   -4.9709   29.5725 N.3     1  UNL1       -0.2712
     44 C           8.6307   -4.4714   28.2365 C.3     1  UNL1        0.0722
     45 C           7.4930   -4.6094   27.2688 C.3     1  UNL1        0.0188
     46 C           6.3252   -5.1943   28.0066 C.3     1  UNL1        0.0188
     47 C           6.7412   -5.4176   29.4304 C.3     1  UNL1        0.0722
@<TRIPOS>BOND
     1    28    29    1
     2    29    21    1
     3    21    22   ar
     4    22    23   ar
     5    23    24   ar
     6    24    13    1
     7    13    14    2
     8    13    15   am
     9    15    16   am
    10    16    17    2
    11    16    18   am
    12    18     1    1
    13     1     2   ar
    14     2     3   ar
    15     3     4   ar
    16     4     5   ar
    17     5     6   ar
    18     5     7    1
    19     7     8   am
    20     8     9    2
    21     8    10    1
    22    10    11    2
    23    11    30    1
    24    30    31    2
    25    31    32    1
    26    32    33    1
    27    32    34    2
    28    34    37    1
    29    37    38    2
    30    37    39   am
    31    39    41    1
    32    41    42    1
    33    42    43    1
    34    43    44    1
    35    44    45    1
    36    45    46    1
    37    46    47    1
    38    34    35    1
    39    35    36    1
    40    24    25   ar
    41    25    26    1
    42    25    27   ar
    43    27    21   ar
    44     6     1   ar
    45    35    30    1
    46    10     4    1
    47    47    43    1
    48    15    19    1
    49    18    20    1
    50     7    12    1
    51    39    40    1
@<TRIPOS>MOLECULE
*****
 47 51 0 0 0
SMALL
GASTEIGER

@<TRIPOS>ATOM
      1 C           0.5664    2.0450   29.3583 C.ar    1  UNL1        0.0528
      2 C          -0.2818    1.0623   28.6070 C.ar    1  UNL1        0.0148
      3 C          -0.1350    0.9276   27.1203 C.ar    1  UNL1        0.0027
      4 C           0.8601    1.7756   26.3850 C.ar    1  UNL1        0.0180
      5 C           1.7083    2.7583   27.1364 C.ar    1  UNL1        0.0519
      6 C           1.5615    2.8931   28.6230 C.ar    1  UNL1        0.0294
      7 N           2.5975    3.4537   26.1485 N.am    1  UNL1       -0.2803
      8 C           2.2987    2.9006   24.7865 C.2     1  UNL1        0.2496
      9 O           2.9580    3.3125   23.5036 O.2     1  UNL1       -0.2698
     10 C           1.2249    1.8635   24.9326 C.2     1  UNL1        0.0560
     11 C           0.6219    1.0561   23.8216 C.2     1  UNL1        0.0196
     12 H           3.2607    4.1506   26.3573 H       1  UNL1        0.1552
     13 C           2.6995    2.2220   34.0932 C.2     1  UNL1        0.2548
     14 O           4.0596    2.0409   33.4873 O.2     1  UNL1       -0.2696
     15 N           1.4862    2.2683   33.2125 N.am    1  UNL1       -0.2358
     16 C           1.6330    2.1335   31.7258 C.2     1  UNL1        0.3104
     17 O           2.9931    1.9524   31.1198 O.2     1  UNL1       -0.2521
     18 N           0.4196    2.1798   30.8451 N.am    1  UNL1       -0.2680
     19 H           0.5935    2.3871   33.6103 H       1  UNL1        0.1594
     20 H          -0.4731    2.2986   31.2428 H       1  UNL1        0.1564
     21 C           2.2590    2.6262   38.5533 C.ar    1  UNL1        0.1410
     22 C           2.9329    1.4185   37.9726 C.ar    1  UNL1        0.0372
     23 C           3.0797    1.2837   36.4860 C.ar    1  UNL1        0.0099
     24 C           2.5527    2.3567   35.5799 C.ar    1  UNL1        0.0814
     25 C           1.8788    3.5645   36.1606 C.ar    1  UNL1        0.1475
     26 F           1.3517    4.6375   35.2546 F       1  UNL1       -0.2039
     27 C           1.7319    3.6992   37.6473 C.ar    1  UNL1        0.0666
     28 C           0.8177    2.3924   40.7023 C.3     1  UNL1        0.2525
     29 O           2.1122    2.7610   40.0400 O.3     1  UNL1       -0.4714
     30 C           1.0904    1.2546   22.4105 C.2     1  UNL1        0.0626
     31 N           0.5799    2.2866   21.4490 N.2     1  UNL1       -0.2538
     32 C           1.3256    2.1258   20.1574 C.2     1  UNL1        0.0597
     33 C           1.1337    2.9513   18.9199 C.3     1  UNL1        0.0519
     34 C           2.2969    0.9944   20.3207 C.2     1  UNL1        0.0499
     35 C           2.1515    0.4560   21.7132 C.3     1  UNL1        0.0681
     36 C           2.9305   -0.6813   22.3046 C.3     1  UNL1        0.0112
     37 C           3.2468    0.4900   19.2752 C.2     1  UNL1        0.2434
     38 O           2.7166   -0.0949   17.9997 O.2     1  UNL1       -0.2704
     39 N           4.7269    0.5703   19.5051 N.am    1  UNL1       -0.2997
     40 H           5.0749    0.9542   20.3422 H       1  UNL1        0.1498
     41 C           5.6768    0.0659   18.4595 C.3     1  UNL1        0.1070
     42 C           6.1837   -1.3444   18.5245 C.3     1  UNL1        0.0936
     43 N           5.4186   -2.3818   19.2914 N.3     1  UNL1       -0.2712
     44 C           5.6210   -2.7393   20.7341 C.3     1  UNL1        0.0722
     45 C           4.6442   -3.8224   21.0847 C.3     1  UNL1        0.0188
     46 C           3.8382   -4.1343   19.8587 C.3     1  UNL1        0.0188
     47 C           4.3168   -3.2440   18.7504 C.3     1  UNL1        0.0722
@<TRIPOS>BOND
     1    28    29    1
     2    29    21    1
     3    21    22   ar
     4    22    23   ar
     5    23    24   ar
     6    24    13    1
     7    13    14    2
     8    13    15   am
     9    15    16   am
    10    16    17    2
    11    16    18   am
    12    18     1    1
    13     1     2   ar
    14     2     3   ar
    15     3     4   ar
    16     4     5   ar
    17     5     6   ar
    18     5     7    1
    19     7     8   am
    20     8     9    2
    21     8    10    1
    22    10    11    2
    23    11    30    1
    24    30    31    2
    25    31    32    1
    26    32    33    1
    27    32    34    2
    28    34    37    1
    29    37    38    2
    30    37    39   am
    31    39    41    1
    32    41    42    1
    33    42    43    1
    34    43    44    1
    35    44    45    1
    36    45    46    1
    37    46    47    1
    38    34    35    1
    39    35    36    1
    40    24    25   ar
    41    25    26    1
    42    25    27   ar
    43    27    21   ar
    44     6     1   ar
    45    35    30    1
    46    10     4    1
    47    47    43    1
    48    15    19    1
    49    18    20    1
    50     7    12    1
    51    39    40    1
@<TRIPOS>MOLECULE
*****
 47 51 0 0 0
SMALL
GASTEIGER

@<TRIPOS>ATOM
      1 C           4.8247    0.2129   28.8748 C.ar    1  UNL1        0.0528
      2 C           5.8958   -0.7754   28.5198 C.ar    1  UNL1        0.0148
      3 C           5.9004   -1.4225   27.1666 C.ar    1  UNL1        0.0027
      4 C           4.8341   -1.0813   26.1684 C.ar    1  UNL1        0.0180
      5 C           3.7630   -0.0930   26.5234 C.ar    1  UNL1        0.0519
      6 C           3.7584    0.5541   27.8766 C.ar    1  UNL1        0.0294
      7 N           2.8491    0.0444   25.3419 N.am    1  UNL1       -0.2803
      8 C           3.3553   -0.8590   24.2567 C.2     1  UNL1        0.2496
      9 O           2.7423   -1.0357   22.8991 O.2     1  UNL1       -0.2698
     10 C           4.5821   -1.5548   24.7675 C.2     1  UNL1        0.0560
     11 C           5.4114   -2.5493   24.0104 C.2     1  UNL1        0.0196
     12 H           2.0562    0.6255   25.2882 H       1  UNL1        0.1552
     13 C           4.2093   -0.1265   34.0233 C.2     1  UNL1        0.2548
     14 O           3.9111   -1.5906   33.8911 O.2     1  UNL1       -0.2696
     15 N           4.5123    0.6904   32.8023 N.am    1  UNL1       -0.2358
     16 C           4.5170    0.0432   31.4490 C.2     1  UNL1        0.3104
     17 O           4.2188   -1.4209   31.3168 O.2     1  UNL1       -0.2521
     18 N           4.8200    0.8601   30.2281 N.am    1  UNL1       -0.2680
     19 H           4.7081    1.6513   32.8891 H       1  UNL1        0.1594
     20 H           5.0158    1.8210   30.3148 H       1  UNL1        0.1564
     21 C           4.1953    1.8150   38.0828 C.ar    1  UNL1        0.1410
     22 C           5.1864    0.7328   37.7725 C.ar    1  UNL1        0.0372
     23 C           5.1911    0.0856   36.4193 C.ar    1  UNL1        0.0099
     24 C           4.2046    0.5207   35.3764 C.ar    1  UNL1        0.0814
     25 C           3.2135    1.6029   35.6867 C.ar    1  UNL1        0.1475
     26 F           2.2270    2.0380   34.6439 F       1  UNL1       -0.2039
     27 C           3.2088    2.2501   37.0400 C.ar    1  UNL1        0.0666
     28 C           5.4364    3.1121   39.9609 C.3     1  UNL1        0.2525
     29 O           4.1905    2.4622   39.4360 O.3     1  UNL1       -0.4714
     30 C           5.0345   -2.9276   22.6087 C.2     1  UNL1        0.0626
     31 N           4.3670   -4.2037   22.1890 N.2     1  UNL1       -0.2538
     32 C           4.1789   -4.1610   20.7015 C.2     1  UNL1        0.0597
     33 C           3.5501   -5.2326   19.8612 C.3     1  UNL1        0.0519
     34 C           4.7301   -2.8585   20.2017 C.2     1  UNL1        0.0499
     35 C           5.2589   -2.0963   21.3804 C.3     1  UNL1        0.0681
     36 C           5.8996   -0.7406   21.3384 C.3     1  UNL1        0.0112
     37 C           4.7493   -2.3989   18.7740 C.2     1  UNL1        0.2434
     38 O           5.6937   -3.0314   17.7952 O.2     1  UNL1       -0.2704
     39 N           3.8241   -1.3069   18.3251 N.am    1  UNL1       -0.2997
     40 H           3.2043   -0.8918   18.9676 H       1  UNL1        0.1498
     41 C           3.8433   -0.8474   16.8974 C.3     1  UNL1        0.1070
     42 C           4.8647    0.1538   16.4454 C.3     1  UNL1        0.0936
     43 N           5.8197    0.7505   17.4363 N.3     1  UNL1       -0.2712
     44 C           5.5477    1.9293   18.3232 C.3     1  UNL1        0.0722
     45 C           6.7742    2.1806   19.1493 C.3     1  UNL1        0.0188
     46 C           7.8043    1.1571   18.7730 C.3     1  UNL1        0.0188
     47 C           7.2143    0.2733   17.7143 C.3     1  UNL1        0.0722
@<TRIPOS>BOND
     1    28    29    1
     2    29    21    1
     3    21    22   ar
     4    22    23   ar
     5    23    24   ar
     6    24    13    1
     7    13    14    2
     8    13    15   am
     9    15    16   am
    10    16    17    2
    11    16    18   am
    12    18     1    1
    13     1     2   ar
    14     2     3   ar
    15     3     4   ar
    16     4     5   ar
    17     5     6   ar
    18     5     7    1
    19     7     8   am
    20     8     9    2
    21     8    10    1
    22    10    11    2
    23    11    30    1
    24    30    31    2
    25    31    32    1
    26    32    33    1
    27    32    34    2
    28    34    37    1
    29    37    38    2
    30    37    39   am
    31    39    41    1
    32    41    42    1
    33    42    43    1
    34    43    44    1
    35    44    45    1
    36    45    46    1
    37    46    47    1
    38    34    35    1
    39    35    36    1
    40    24    25   ar
    41    25    26    1
    42    25    27   ar
    43    27    21   ar
    44     6     1   ar
    45    35    30    1
    46    10     4    1
    47    47    43    1
    48    15    19    1
    49    18    20    1
    50     7    12    1
    51    39    40    1
@<TRIPOS>MOLECULE
*****
 47 51 0 0 0
SMALL
GASTEIGER

@<TRIPOS>ATOM
      1 C           1.6208    1.7524   19.3321 C.ar    1  UNL1        0.0528
      2 C           2.8494    2.3642   19.9372 C.ar    1  UNL1        0.0148
      3 C           3.9615    1.4850   20.4272 C.ar    1  UNL1        0.0027
      4 C           3.8450   -0.0060   20.3121 C.ar    1  UNL1        0.0180
      5 C           2.6164   -0.6178   19.7071 C.ar    1  UNL1        0.0519
      6 C           1.5043    0.2614   19.2171 C.ar    1  UNL1        0.0294
      7 N           2.7835   -2.1084   19.7260 N.am    1  UNL1       -0.2803
      8 C           4.1153   -2.4178   20.3428 C.2     1  UNL1        0.2496
      9 O           4.6902   -3.7863   20.5592 O.2     1  UNL1       -0.2698
     10 C           4.7715   -1.1184   20.7050 C.2     1  UNL1        0.0560
     11 C           6.1176   -0.9594   21.3473 C.2     1  UNL1        0.0196
     12 H           2.1331   -2.7678   19.3922 H       1  UNL1        0.1552
     13 C          -3.1832    3.6565   19.8765 C.2     1  UNL1        0.2548
     14 O          -3.3609    2.8502   21.1288 O.2     1  UNL1       -0.2696
     15 N          -1.8934    3.5837   19.1143 N.am    1  UNL1       -0.2358
     16 C          -0.7812    2.7045   19.6043 C.2     1  UNL1        0.3104
     17 O          -0.9589    1.8981   20.8566 O.2     1  UNL1       -0.2521
     18 N           0.5086    2.6316   18.8421 N.am    1  UNL1       -0.2680
     19 H          -1.7768    4.1129   18.2924 H       1  UNL1        0.1594
     20 H           0.6252    3.1609   18.0202 H       1  UNL1        0.1564
     21 C          -6.5196    6.2941   18.4064 C.ar    1  UNL1        0.1410
     22 C          -5.9399    6.5096   19.7729 C.ar    1  UNL1        0.0372
     23 C          -4.8278    5.6304   20.2630 C.ar    1  UNL1        0.0099
     24 C          -4.2953    4.5357   19.3864 C.ar    1  UNL1        0.0814
     25 C          -4.8751    4.3203   18.0199 C.ar    1  UNL1        0.1475
     26 F          -4.3427    3.2257   17.1433 F       1  UNL1       -0.2039
     27 C          -5.9872    5.1995   17.5298 C.ar    1  UNL1        0.0666
     28 C          -9.0504    6.6890   17.9712 C.3     1  UNL1        0.2525
     29 O          -7.6317    7.1733   17.9163 O.3     1  UNL1       -0.4714
     30 C           6.9353   -2.1708   21.6849 C.2     1  UNL1        0.0626
     31 N           7.8468   -2.9080   20.7490 N.2     1  UNL1       -0.2538
     32 C           8.4600   -4.0504   21.5033 C.2     1  UNL1        0.0597
     33 C           9.4345   -5.0487   20.9523 C.3     1  UNL1        0.0519
     34 C           7.9275   -4.0193   22.9053 C.2     1  UNL1        0.0499
     35 C           6.9852   -2.8576   23.0175 C.3     1  UNL1        0.0681
     36 C           6.2261   -2.4536   24.2465 C.3     1  UNL1        0.0112
     37 C           8.2760   -4.9809   24.0024 C.2     1  UNL1        0.2434
     38 O           8.9164   -4.4802   25.2631 O.2     1  UNL1       -0.2704
     39 N           7.9842   -6.4431   23.8390 N.am    1  UNL1       -0.2997
     40 H           7.5638   -6.7717   23.0116 H       1  UNL1        0.1498
     41 C           8.3327   -7.4047   24.9362 C.3     1  UNL1        0.1070
     42 C           7.3402   -7.6943   26.0230 C.3     1  UNL1        0.0936
     43 N           7.2792   -6.8152   27.2368 N.3     1  UNL1       -0.2712
     44 C           8.1297   -6.9482   28.4653 C.3     1  UNL1        0.0722
     45 C           7.7332   -5.8640   29.4231 C.3     1  UNL1        0.0188
     46 C           6.6377   -5.0610   28.7866 C.3     1  UNL1        0.0188
     47 C           6.3571   -5.6489   27.4354 C.3     1  UNL1        0.0722
@<TRIPOS>BOND
     1    28    29    1
     2    29    21    1
     3    21    22   ar
     4    22    23   ar
     5    23    24   ar
     6    24    13    1
     7    13    14    2
     8    13    15   am
     9    15    16   am
    10    16    17    2
    11    16    18   am
    12    18     1    1
    13     1     2   ar
    14     2     3   ar
    15     3     4   ar
    16     4     5   ar
    17     5     6   ar
    18     5     7    1
    19     7     8   am
    20     8     9    2
    21     8    10    1
    22    10    11    2
    23    11    30    1
    24    30    31    2
    25    31    32    1
    26    32    33    1
    27    32    34    2
    28    34    37    1
    29    37    38    2
    30    37    39   am
    31    39    41    1
    32    41    42    1
    33    42    43    1
    34    43    44    1
    35    44    45    1
    36    45    46    1
    37    46    47    1
    38    34    35    1
    39    35    36    1
    40    24    25   ar
    41    25    26    1
    42    25    27   ar
    43    27    21   ar
    44     6     1   ar
    45    35    30    1
    46    10     4    1
    47    47    43    1
    48    15    19    1
    49    18    20    1
    50     7    12    1
    51    39    40    1
