@<TRIPOS>MOLECULE
*****
 28 32 0 0 0
SMALL
GASTEIGER

@<TRIPOS>ATOM
      1 O           7.6393   -4.7360   20.8455 O.2     1  UNL1       -0.2526
      2 C           6.8955   -4.2294   22.0455 C.2     1  UNL1        0.3039
      3 N           5.7723   -3.2503   21.8734 N.am    1  UNL1       -0.2901
      4 N           7.2748   -4.7021   23.4177 N.am    1  UNL1       -0.2640
      5 C           8.3980   -5.6813   23.5897 C.3     1  UNL1        0.0985
      6 C           8.7773   -6.1539   24.9618 C.3     1  UNL1        0.0616
      7 C           8.0335   -5.6474   26.1618 C.3     1  UNL1        0.1367
      8 C           9.1567   -6.6266   26.3340 C.3     1  UNL1        0.0449
      9 C           9.5360   -7.0992   27.7061 C.3     1  UNL1        0.0330
     10 C           8.7921   -6.5927   28.9061 C.ar    1  UNL1        0.0119
     11 C           9.1715   -7.0654   30.2782 C.ar    1  UNL1       -0.0013
     12 C           8.4276   -6.5589   31.4783 C.ar    1  UNL1       -0.0001
     13 C           7.3044   -5.5797   31.3062 C.ar    1  UNL1        0.0031
     14 C           6.9251   -5.1070   29.9341 C.ar    1  UNL1        0.0366
     15 C           7.6689   -5.6136   28.7340 C.ar    1  UNL1        0.1342
     16 O           7.2896   -5.1409   27.3619 O.3     1  UNL1       -0.4828
     17 C           6.9103   -4.6682   25.9898 C.3     1  UNL1        0.0616
     18 C           6.5310   -4.1956   24.6177 C.3     1  UNL1        0.0985
     19 H           5.2841   -2.9178   22.6611 H       1  UNL1        0.1509
     20 C           5.3929   -2.7776   20.5013 C.3     1  UNL1        0.0774
     21 C           5.6299   -2.7644   19.0202 C.3     1  UNL1        0.0259
     22 C           4.4989   -1.9721   19.6058 C.3     1  UNL1        0.0420
     23 C           3.3297   -1.0497   19.4269 C.ar    1  UNL1       -0.0208
     24 C           3.4006    0.0659   18.4267 C.ar    1  UNL1       -0.0042
     25 C           2.2314    0.9883   18.2478 C.ar    1  UNL1       -0.0003
     26 C           0.9912    0.7952   19.0692 C.ar    1  UNL1       -0.0000
     27 C           0.9202   -0.3203   20.0694 C.ar    1  UNL1       -0.0003
     28 C           2.0895   -1.2428   20.2483 C.ar    1  UNL1       -0.0042
@<TRIPOS>BOND
     1     1     2    2
     2     2     3   am
     3    20     3    1
     4    20    21    1
     5    21    22    1
     6    22    23    1
     7    23    24   ar
     8    24    25   ar
     9    25    26   ar
    10    26    27   ar
    11    27    28   ar
    12     2     4   am
    13     4     5    1
    14     5     6    1
    15     6     7    1
    16     7     8    1
    17     8     9    1
    18     9    10    1
    19    10    11   ar
    20    11    12   ar
    21    12    13   ar
    22    13    14   ar
    23    14    15   ar
    24    15    16    1
    25     7    17    1
    26    17    18    1
    27    22    20    1
    28    28    23   ar
    29    18     4    1
    30    16     7    1
    31    15    10   ar
    32     3    19    1
@<TRIPOS>MOLECULE
*****
 28 32 0 0 0
SMALL
GASTEIGER

@<TRIPOS>ATOM
      1 O           4.9458   -4.3695   21.3725 O.2     1  UNL1       -0.2526
      2 C           5.5863   -3.0967   20.9037 C.2     1  UNL1        0.3039
      3 N           7.0795   -2.9564   20.9249 N.am    1  UNL1       -0.2901
      4 N           4.7335   -1.9641   20.4138 N.am    1  UNL1       -0.2640
      5 C           3.2402   -2.1043   20.3926 C.3     1  UNL1        0.0985
      6 C           2.3875   -0.9718   19.9027 C.3     1  UNL1        0.0616
      7 C           3.0280    0.3010   19.4340 C.3     1  UNL1        0.1367
      8 C           1.5346    0.1608   19.4128 C.3     1  UNL1        0.0449
      9 C           0.6819    1.2934   18.9229 C.3     1  UNL1        0.0330
     10 C           1.3224    2.5662   18.4541 C.ar    1  UNL1        0.0119
     11 C           0.4695    3.6988   17.9642 C.ar    1  UNL1       -0.0013
     12 C           1.1100    4.9716   17.4954 C.ar    1  UNL1       -0.0001
     13 C           2.6034    5.1118   17.5166 C.ar    1  UNL1        0.0031
     14 C           3.4561    3.9792   18.0065 C.ar    1  UNL1        0.0366
     15 C           2.8156    2.7064   18.4752 C.ar    1  UNL1        0.1342
     16 O           3.6684    1.5738   18.9652 O.3     1  UNL1       -0.4828
     17 C           4.5212    0.4413   19.4551 C.3     1  UNL1        0.0616
     18 C           5.3739   -0.6913   19.9450 C.3     1  UNL1        0.0985
     19 H           7.4999   -2.1210   20.6172 H       1  UNL1        0.1509
     20 C           7.9324   -4.0890   21.4148 C.3     1  UNL1        0.0774
     21 C           9.0878   -5.0249   21.2173 C.3     1  UNL1        0.0259
     22 C           8.2541   -5.1148   22.4609 C.3     1  UNL1        0.0420
     23 C           7.9584   -5.7589   23.7829 C.ar    1  UNL1       -0.0208
     24 C           7.2585   -4.9800   24.8569 C.ar    1  UNL1       -0.0042
     25 C           6.9628   -5.6240   26.1789 C.ar    1  UNL1       -0.0003
     26 C           7.3671   -7.0471   26.4270 C.ar    1  UNL1       -0.0000
     27 C           8.0670   -7.8260   25.3530 C.ar    1  UNL1       -0.0003
     28 C           8.3627   -7.1819   24.0310 C.ar    1  UNL1       -0.0042
@<TRIPOS>BOND
     1     1     2    2
     2     2     3   am
     3    20     3    1
     4    20    21    1
     5    21    22    1
     6    22    23    1
     7    23    24   ar
     8    24    25   ar
     9    25    26   ar
    10    26    27   ar
    11    27    28   ar
    12     2     4   am
    13     4     5    1
    14     5     6    1
    15     6     7    1
    16     7     8    1
    17     8     9    1
    18     9    10    1
    19    10    11   ar
    20    11    12   ar
    21    12    13   ar
    22    13    14   ar
    23    14    15   ar
    24    15    16    1
    25     7    17    1
    26    17    18    1
    27    22    20    1
    28    28    23   ar
    29    18     4    1
    30    16     7    1
    31    15    10   ar
    32     3    19    1
@<TRIPOS>MOLECULE
*****
 28 32 0 0 0
SMALL
GASTEIGER

@<TRIPOS>ATOM
      1 O          -1.1415    3.5762   22.6703 O.2     1  UNL1       -0.2526
      2 C          -1.0023    2.6867   21.4705 C.2     1  UNL1        0.3039
      3 N          -1.9390    2.8417   20.3093 N.am    1  UNL1       -0.2901
      4 N           0.0737    1.6422   21.4320 N.am    1  UNL1       -0.2640
      5 C           1.0104    1.4872   22.5933 C.3     1  UNL1        0.0985
      6 C           2.0863    0.4428   22.5547 C.3     1  UNL1        0.0616
      7 C           2.2254   -0.4467   21.3550 C.3     1  UNL1        0.1367
      8 C           3.1622   -0.6017   22.5162 C.3     1  UNL1        0.0449
      9 C           4.2381   -1.6462   22.4777 C.3     1  UNL1        0.0330
     10 C           4.3773   -2.5357   21.2779 C.ar    1  UNL1        0.0119
     11 C           5.4533   -3.5802   21.2394 C.ar    1  UNL1       -0.0013
     12 C           5.5924   -4.4697   20.0396 C.ar    1  UNL1       -0.0001
     13 C           4.6556   -4.3146   18.8784 C.ar    1  UNL1        0.0031
     14 C           3.5797   -3.2702   18.9169 C.ar    1  UNL1        0.0366
     15 C           3.4406   -2.3807   20.1167 C.ar    1  UNL1        0.1342
     16 O           2.3646   -1.3362   20.1552 O.3     1  UNL1       -0.4828
     17 C           1.2887   -0.2917   20.1937 C.3     1  UNL1        0.0616
     18 C           0.2128    0.7527   20.2323 C.3     1  UNL1        0.0985
     19 H          -1.8476    2.2579   19.5219 H       1  UNL1        0.1509
     20 C          -3.0150    3.8862   20.3478 C.3     1  UNL1        0.0774
     21 C          -3.7129    5.0559   19.7197 C.3     1  UNL1        0.0259
     22 C          -4.1806    4.5255   21.0425 C.3     1  UNL1        0.0420
     23 C          -5.1235    4.5883   22.2074 C.ar    1  UNL1       -0.0208
     24 C          -6.5945    4.3873   21.9932 C.ar    1  UNL1       -0.0042
     25 C          -7.5375    4.4502   23.1580 C.ar    1  UNL1       -0.0003
     26 C          -7.0095    4.7139   24.5371 C.ar    1  UNL1       -0.0000
     27 C          -5.5385    4.9148   24.7512 C.ar    1  UNL1       -0.0003
     28 C          -4.5955    4.8520   23.5863 C.ar    1  UNL1       -0.0042
@<TRIPOS>BOND
     1     1     2    2
     2     2     3   am
     3    20     3    1
     4    20    21    1
     5    21    22    1
     6    22    23    1
     7    23    24   ar
     8    24    25   ar
     9    25    26   ar
    10    26    27   ar
    11    27    28   ar
    12     2     4   am
    13     4     5    1
    14     5     6    1
    15     6     7    1
    16     7     8    1
    17     8     9    1
    18     9    10    1
    19    10    11   ar
    20    11    12   ar
    21    12    13   ar
    22    13    14   ar
    23    14    15   ar
    24    15    16    1
    25     7    17    1
    26    17    18    1
    27    22    20    1
    28    28    23   ar
    29    18     4    1
    30    16     7    1
    31    15    10   ar
    32     3    19    1
@<TRIPOS>MOLECULE
*****
 28 32 0 0 0
SMALL
GASTEIGER

@<TRIPOS>ATOM
      1 O          -1.3958    4.8076   19.7366 O.2     1  UNL1       -0.2526
      2 C          -1.3465    3.3575   20.1174 C.2     1  UNL1        0.3039
      3 N          -2.4901    2.7393   20.8657 N.am    1  UNL1       -0.2901
      4 N          -0.1535    2.5257   19.7499 N.am    1  UNL1       -0.2640
      5 C           0.9900    3.1439   19.0016 C.3     1  UNL1        0.0985
      6 C           2.1829    2.3121   18.6341 C.3     1  UNL1        0.0616
      7 C           2.2322    0.8621   19.0149 C.3     1  UNL1        0.1367
      8 C           3.3758    1.4803   18.2665 C.3     1  UNL1        0.0449
      9 C           4.5687    0.6485   17.8990 C.3     1  UNL1        0.0330
     10 C           4.6180   -0.8016   18.2798 C.ar    1  UNL1        0.0119
     11 C           5.8110   -1.6334   17.9123 C.ar    1  UNL1       -0.0013
     12 C           5.8602   -3.0834   18.2931 C.ar    1  UNL1       -0.0001
     13 C           4.7166   -3.7016   19.0414 C.ar    1  UNL1        0.0031
     14 C           3.5237   -2.8698   19.4089 C.ar    1  UNL1        0.0366
     15 C           3.4744   -1.4198   19.0281 C.ar    1  UNL1        0.1342
     16 O           2.2815   -0.5879   19.3957 O.3     1  UNL1       -0.4828
     17 C           1.0886    0.2439   19.7632 C.3     1  UNL1        0.0616
     18 C          -0.1043    1.0757   20.1307 C.3     1  UNL1        0.0985
     19 H          -2.4577    1.7876   21.1157 H       1  UNL1        0.1509
     20 C          -3.6830    3.5711   21.2333 C.3     1  UNL1        0.0774
     21 C          -4.8847    4.3708   20.8251 C.3     1  UNL1        0.0259
     22 C          -4.5476    4.2122   22.2781 C.3     1  UNL1        0.0420
     23 C          -4.8521    4.4908   23.7201 C.ar    1  UNL1       -0.0208
     24 C          -4.0712    3.8001   24.7986 C.ar    1  UNL1       -0.0042
     25 C          -4.3757    4.0787   26.2407 C.ar    1  UNL1       -0.0003
     26 C          -5.4611    5.0481   26.6043 C.ar    1  UNL1       -0.0000
     27 C          -6.2420    5.7389   25.5259 C.ar    1  UNL1       -0.0003
     28 C          -5.9374    5.4602   24.0837 C.ar    1  UNL1       -0.0042
@<TRIPOS>BOND
     1     1     2    2
     2     2     3   am
     3    20     3    1
     4    20    21    1
     5    21    22    1
     6    22    23    1
     7    23    24   ar
     8    24    25   ar
     9    25    26   ar
    10    26    27   ar
    11    27    28   ar
    12     2     4   am
    13     4     5    1
    14     5     6    1
    15     6     7    1
    16     7     8    1
    17     8     9    1
    18     9    10    1
    19    10    11   ar
    20    11    12   ar
    21    12    13   ar
    22    13    14   ar
    23    14    15   ar
    24    15    16    1
    25     7    17    1
    26    17    18    1
    27    22    20    1
    28    28    23   ar
    29    18     4    1
    30    16     7    1
    31    15    10   ar
    32     3    19    1
@<TRIPOS>MOLECULE
*****
 28 32 0 0 0
SMALL
GASTEIGER

@<TRIPOS>ATOM
      1 O          -1.6796    3.9814   19.2821 O.2     1  UNL1       -0.2526
      2 C          -1.2391    2.9581   20.2865 C.2     1  UNL1        0.3039
      3 N          -1.9041    2.8905   21.6293 N.am    1  UNL1       -0.2901
      4 N          -0.1336    2.0023   19.9480 N.am    1  UNL1       -0.2640
      5 C           0.5313    2.0700   18.6052 C.3     1  UNL1        0.0985
      6 C           1.6368    1.1142   18.2668 C.3     1  UNL1        0.0616
      7 C           2.0772    0.0909   19.2712 C.3     1  UNL1        0.1367
      8 C           2.7423    0.1585   17.9283 C.3     1  UNL1        0.0449
      9 C           3.8477   -0.7972   17.5899 C.3     1  UNL1        0.0330
     10 C           4.2882   -1.8205   18.5943 C.ar    1  UNL1        0.0119
     11 C           5.3937   -2.7763   18.2558 C.ar    1  UNL1       -0.0013
     12 C           5.8342   -3.7996   19.2602 C.ar    1  UNL1       -0.0001
     13 C           5.1691   -3.8672   20.6030 C.ar    1  UNL1        0.0031
     14 C           4.0637   -2.9115   20.9415 C.ar    1  UNL1        0.0366
     15 C           3.6232   -1.8881   19.9371 C.ar    1  UNL1        0.1342
     16 O           2.5177   -0.9324   20.2756 O.3     1  UNL1       -0.4828
     17 C           1.4123    0.0233   20.6140 C.3     1  UNL1        0.0616
     18 C           0.3068    0.9790   20.9524 C.3     1  UNL1        0.0985
     19 H          -1.6150    2.2188   22.2885 H       1  UNL1        0.1509
     20 C          -3.0096    3.8462   21.9678 C.3     1  UNL1        0.0774
     21 C          -3.6136    4.8576   22.8965 C.3     1  UNL1        0.0259
     22 C          -4.3204    4.4902   21.6255 C.3     1  UNL1        0.0420
     23 C          -5.4852    4.6499   20.6940 C.ar    1  UNL1       -0.0208
     24 C          -5.7865    3.5858   19.6806 C.ar    1  UNL1       -0.0042
     25 C          -6.9513    3.7455   18.7492 C.ar    1  UNL1       -0.0003
     26 C          -7.8149    4.9693   18.8311 C.ar    1  UNL1       -0.0000
     27 C          -7.5135    6.0334   19.8444 C.ar    1  UNL1       -0.0003
     28 C          -6.3487    5.8736   20.7759 C.ar    1  UNL1       -0.0042
@<TRIPOS>BOND
     1     1     2    2
     2     2     3   am
     3    20     3    1
     4    20    21    1
     5    21    22    1
     6    22    23    1
     7    23    24   ar
     8    24    25   ar
     9    25    26   ar
    10    26    27   ar
    11    27    28   ar
    12     2     4   am
    13     4     5    1
    14     5     6    1
    15     6     7    1
    16     7     8    1
    17     8     9    1
    18     9    10    1
    19    10    11   ar
    20    11    12   ar
    21    12    13   ar
    22    13    14   ar
    23    14    15   ar
    24    15    16    1
    25     7    17    1
    26    17    18    1
    27    22    20    1
    28    28    23   ar
    29    18     4    1
    30    16     7    1
    31    15    10   ar
    32     3    19    1
@<TRIPOS>MOLECULE
*****
 28 32 0 0 0
SMALL
GASTEIGER

@<TRIPOS>ATOM
      1 O           5.3346   -1.4844   29.2386 O.2     1  UNL1       -0.2526
      2 C           5.9651   -2.3865   28.2194 C.2     1  UNL1        0.3039
      3 N           7.0304   -3.3577   28.6341 N.am    1  UNL1       -0.2901
      4 N           5.5303   -2.3173   26.7854 N.am    1  UNL1       -0.2640
      5 C           4.4651   -1.3461   26.3707 C.3     1  UNL1        0.0985
      6 C           4.0304   -1.2769   24.9368 C.3     1  UNL1        0.0616
      7 C           4.6608   -2.1790   23.9175 C.3     1  UNL1        0.1367
      8 C           3.5956   -1.2077   23.5028 C.3     1  UNL1        0.0449
      9 C           3.1608   -1.1386   22.0689 C.3     1  UNL1        0.0330
     10 C           3.7913   -2.0406   21.0496 C.ar    1  UNL1        0.0119
     11 C           3.3565   -1.9714   19.6157 C.ar    1  UNL1       -0.0013
     12 C           3.9870   -2.8735   18.5964 C.ar    1  UNL1       -0.0001
     13 C           5.0523   -3.8447   19.0112 C.ar    1  UNL1        0.0031
     14 C           5.4870   -3.9139   20.4451 C.ar    1  UNL1        0.0366
     15 C           4.8565   -3.0118   21.4643 C.ar    1  UNL1        0.1342
     16 O           5.2913   -3.0810   22.8983 O.3     1  UNL1       -0.4828
     17 C           5.7261   -3.1502   24.3322 C.3     1  UNL1        0.0616
     18 C           6.1608   -3.2193   25.7662 C.3     1  UNL1        0.0985
     19 H           7.4441   -3.9497   27.9651 H       1  UNL1        0.1509
     20 C           7.4652   -3.4268   30.0680 C.3     1  UNL1        0.0774
     21 C           8.4205   -3.9213   31.1134 C.3     1  UNL1        0.0259
     22 C           7.2628   -3.0523   31.5064 C.3     1  UNL1        0.0420
     23 C           6.4776   -2.3343   32.5636 C.ar    1  UNL1       -0.0208
     24 C           7.0988   -1.1940   33.3146 C.ar    1  UNL1       -0.0042
     25 C           6.3136   -0.4760   34.3719 C.ar    1  UNL1       -0.0003
     26 C           4.9072   -0.8982   34.6782 C.ar    1  UNL1       -0.0000
     27 C           4.2860   -2.0385   33.9273 C.ar    1  UNL1       -0.0003
     28 C           5.0713   -2.7565   32.8699 C.ar    1  UNL1       -0.0042
@<TRIPOS>BOND
     1     1     2    2
     2     2     3   am
     3    20     3    1
     4    20    21    1
     5    21    22    1
     6    22    23    1
     7    23    24   ar
     8    24    25   ar
     9    25    26   ar
    10    26    27   ar
    11    27    28   ar
    12     2     4   am
    13     4     5    1
    14     5     6    1
    15     6     7    1
    16     7     8    1
    17     8     9    1
    18     9    10    1
    19    10    11   ar
    20    11    12   ar
    21    12    13   ar
    22    13    14   ar
    23    14    15   ar
    24    15    16    1
    25     7    17    1
    26    17    18    1
    27    22    20    1
    28    28    23   ar
    29    18     4    1
    30    16     7    1
    31    15    10   ar
    32     3    19    1
@<TRIPOS>MOLECULE
*****
 28 32 0 0 0
SMALL
GASTEIGER

@<TRIPOS>ATOM
      1 O           2.8198    0.8707   22.2477 O.2     1  UNL1       -0.2526
      2 C           1.7017    1.6757   21.6548 C.2     1  UNL1        0.3039
      3 N           1.6818    1.9613   20.1824 N.am    1  UNL1       -0.2901
      4 N           0.6033    2.1953   22.5344 N.am    1  UNL1       -0.2640
      5 C           0.6231    1.9098   24.0068 C.3     1  UNL1        0.0985
      6 C          -0.4753    2.4294   24.8863 C.3     1  UNL1        0.0616
      7 C          -1.5935    3.2345   24.2934 C.3     1  UNL1        0.1367
      8 C          -1.5737    2.9489   25.7659 C.3     1  UNL1        0.0449
      9 C          -2.6720    3.4685   26.6455 C.3     1  UNL1        0.0330
     10 C          -3.7902    4.2736   26.0526 C.ar    1  UNL1        0.0119
     11 C          -4.8886    4.7932   26.9322 C.ar    1  UNL1       -0.0013
     12 C          -6.0068    5.5982   26.3393 C.ar    1  UNL1       -0.0001
     13 C          -6.0266    5.8838   24.8668 C.ar    1  UNL1        0.0031
     14 C          -4.9282    5.3642   23.9873 C.ar    1  UNL1        0.0366
     15 C          -3.8100    4.5591   24.5802 C.ar    1  UNL1        0.1342
     16 O          -2.7116    4.0395   23.7005 O.3     1  UNL1       -0.4828
     17 C          -1.6133    3.5200   22.8210 C.3     1  UNL1        0.0616
     18 C          -0.5149    3.0004   21.9415 C.3     1  UNL1        0.0985
     19 H           0.9479    2.4897   19.7932 H       1  UNL1        0.1509
     20 C           2.7802    1.4417   19.3027 C.3     1  UNL1        0.0774
     21 C           3.8441    1.6832   18.2733 C.3     1  UNL1        0.0259
     22 C           3.6188    0.3003   18.8087 C.3     1  UNL1        0.0420
     23 C           3.9728   -1.1571   18.8327 C.ar    1  UNL1       -0.0208
     24 C           3.1120   -2.1257   19.5882 C.ar    1  UNL1       -0.0042
     25 C           3.4661   -3.5831   19.6122 C.ar    1  UNL1       -0.0003
     26 C           4.6809   -4.0720   18.8805 C.ar    1  UNL1       -0.0000
     27 C           5.5417   -3.1034   18.1249 C.ar    1  UNL1       -0.0003
     28 C           5.1876   -1.6459   18.1010 C.ar    1  UNL1       -0.0042
@<TRIPOS>BOND
     1     1     2    2
     2     2     3   am
     3    20     3    1
     4    20    21    1
     5    21    22    1
     6    22    23    1
     7    23    24   ar
     8    24    25   ar
     9    25    26   ar
    10    26    27   ar
    11    27    28   ar
    12     2     4   am
    13     4     5    1
    14     5     6    1
    15     6     7    1
    16     7     8    1
    17     8     9    1
    18     9    10    1
    19    10    11   ar
    20    11    12   ar
    21    12    13   ar
    22    13    14   ar
    23    14    15   ar
    24    15    16    1
    25     7    17    1
    26    17    18    1
    27    22    20    1
    28    28    23   ar
    29    18     4    1
    30    16     7    1
    31    15    10   ar
    32     3    19    1
@<TRIPOS>MOLECULE
*****
 28 32 0 0 0
SMALL
GASTEIGER

@<TRIPOS>ATOM
      1 O           4.5667   -1.3962   22.7159 O.2     1  UNL1       -0.2526
      2 C           5.3336   -2.6723   22.8990 C.2     1  UNL1        0.3039
      3 N           5.6053   -3.5597   21.7206 N.am    1  UNL1       -0.2901
      4 N           5.8289   -3.0609   24.2606 N.am    1  UNL1       -0.2640
      5 C           5.5572   -2.1734   25.4389 C.3     1  UNL1        0.0985
      6 C           6.0524   -2.5620   26.8004 C.3     1  UNL1        0.0616
      7 C           6.8193   -3.8381   26.9835 C.3     1  UNL1        0.1367
      8 C           6.5477   -2.9507   28.1620 C.3     1  UNL1        0.0449
      9 C           7.0429   -3.3393   29.5235 C.3     1  UNL1        0.0330
     10 C           7.8098   -4.6153   29.7066 C.ar    1  UNL1        0.0119
     11 C           8.3050   -5.0039   31.0682 C.ar    1  UNL1       -0.0013
     12 C           9.0719   -6.2800   31.2513 C.ar    1  UNL1       -0.0001
     13 C           9.3436   -7.1675   30.0728 C.ar    1  UNL1        0.0031
     14 C           8.8484   -6.7788   28.7113 C.ar    1  UNL1        0.0366
     15 C           8.0815   -5.5028   28.5282 C.ar    1  UNL1        0.1342
     16 O           7.5862   -5.1142   27.1666 O.3     1  UNL1       -0.4828
     17 C           7.0910   -4.7256   25.8052 C.3     1  UNL1        0.0616
     18 C           6.5958   -4.3369   24.4437 C.3     1  UNL1        0.0985
     19 H           6.1087   -4.3972   21.8408 H       1  UNL1        0.1509
     20 C           5.1101   -3.1711   20.3590 C.3     1  UNL1        0.0774
     21 C           5.1375   -3.3423   18.8691 C.3     1  UNL1        0.0259
     22 C           4.2250   -2.3269   19.4907 C.3     1  UNL1        0.0420
     23 C           3.1872   -1.2533   19.3483 C.ar    1  UNL1       -0.0208
     24 C           1.9770   -1.2577   20.2346 C.ar    1  UNL1       -0.0042
     25 C           0.9392   -0.1841   20.0922 C.ar    1  UNL1       -0.0003
     26 C           1.1116    0.8940   19.0635 C.ar    1  UNL1       -0.0000
     27 C           2.3218    0.8984   18.1773 C.ar    1  UNL1       -0.0003
     28 C           3.3596   -0.1753   18.3197 C.ar    1  UNL1       -0.0042
@<TRIPOS>BOND
     1     1     2    2
     2     2     3   am
     3    20     3    1
     4    20    21    1
     5    21    22    1
     6    22    23    1
     7    23    24   ar
     8    24    25   ar
     9    25    26   ar
    10    26    27   ar
    11    27    28   ar
    12     2     4   am
    13     4     5    1
    14     5     6    1
    15     6     7    1
    16     7     8    1
    17     8     9    1
    18     9    10    1
    19    10    11   ar
    20    11    12   ar
    21    12    13   ar
    22    13    14   ar
    23    14    15   ar
    24    15    16    1
    25     7    17    1
    26    17    18    1
    27    22    20    1
    28    28    23   ar
    29    18     4    1
    30    16     7    1
    31    15    10   ar
    32     3    19    1
@<TRIPOS>MOLECULE
*****
 28 32 0 0 0
SMALL
GASTEIGER

@<TRIPOS>ATOM
      1 O           1.6781    2.5109   34.4286 O.2     1  UNL1       -0.2526
      2 C           2.6078    1.8201   33.4755 C.2     1  UNL1        0.3039
      3 N           3.8845    1.2149   33.9792 N.am    1  UNL1       -0.2901
      4 N           2.2607    1.7344   32.0187 N.am    1  UNL1       -0.2640
      5 C           0.9840    2.3396   31.5150 C.3     1  UNL1        0.0985
      6 C           0.6370    2.2539   30.0582 C.3     1  UNL1        0.0616
      7 C           1.5667    1.5631   29.1051 C.3     1  UNL1        0.1367
      8 C           0.2899    2.1682   28.6014 C.3     1  UNL1        0.0449
      9 C          -0.0571    2.0826   27.1446 C.3     1  UNL1        0.0330
     10 C           0.8727    1.3917   26.1915 C.ar    1  UNL1        0.0119
     11 C           0.5256    1.3061   24.7347 C.ar    1  UNL1       -0.0013
     12 C           1.4553    0.6152   23.7816 C.ar    1  UNL1       -0.0001
     13 C           2.7321    0.0100   24.2854 C.ar    1  UNL1        0.0031
     14 C           3.0791    0.0957   25.7421 C.ar    1  UNL1        0.0366
     15 C           2.1494    0.7865   26.6952 C.ar    1  UNL1        0.1342
     16 O           2.4964    0.8722   28.1521 O.3     1  UNL1       -0.4828
     17 C           2.8434    0.9579   29.6088 C.3     1  UNL1        0.0616
     18 C           3.1904    1.0436   31.0656 C.3     1  UNL1        0.0985
     19 H           4.4947    0.7615   33.3536 H       1  UNL1        0.1509
     20 C           4.2315    1.3006   35.4360 C.3     1  UNL1        0.0774
     21 C           5.2616    1.3524   36.5251 C.3     1  UNL1        0.0259
     22 C           3.8026    1.3971   36.8701 C.3     1  UNL1        0.0420
     23 C           2.7125    1.4786   37.8973 C.ar    1  UNL1       -0.0208
     24 C           1.9554    2.7594   38.0874 C.ar    1  UNL1       -0.0042
     25 C           0.8653    2.8409   39.1145 C.ar    1  UNL1       -0.0003
     26 C           0.5323    1.6415   39.9516 C.ar    1  UNL1       -0.0000
     27 C           1.2894    0.3606   39.7615 C.ar    1  UNL1       -0.0003
     28 C           2.3796    0.2792   38.7343 C.ar    1  UNL1       -0.0042
@<TRIPOS>BOND
     1     1     2    2
     2     2     3   am
     3    20     3    1
     4    20    21    1
     5    21    22    1
     6    22    23    1
     7    23    24   ar
     8    24    25   ar
     9    25    26   ar
    10    26    27   ar
    11    27    28   ar
    12     2     4   am
    13     4     5    1
    14     5     6    1
    15     6     7    1
    16     7     8    1
    17     8     9    1
    18     9    10    1
    19    10    11   ar
    20    11    12   ar
    21    12    13   ar
    22    13    14   ar
    23    14    15   ar
    24    15    16    1
    25     7    17    1
    26    17    18    1
    27    22    20    1
    28    28    23   ar
    29    18     4    1
    30    16     7    1
    31    15    10   ar
    32     3    19    1
