@<TRIPOS>MOLECULE
*****
 29 32 0 0 0
SMALL
GASTEIGER

@<TRIPOS>ATOM
      1 C          -7.7977  -18.0619   22.9104 C.2     1  UNL1        0.1222
      2 C          -7.1100  -19.2206   22.2513 C.2     1  UNL1        0.0164
      3 C          -9.1656  -18.2383   23.5000 C.2     1  UNL1        0.2624
      4 O          -9.3194  -18.7917   24.8858 O.2     1  UNL1       -0.2688
      5 N         -10.3798  -17.8613   22.7040 N.am    1  UNL1       -0.2549
      6 C         -10.2260  -17.3079   21.3184 C.3     1  UNL1        0.0989
      7 C         -11.4402  -16.9309   20.5223 C.3     1  UNL1        0.0266
      8 C         -12.8081  -17.1072   21.1119 C.3     1  UNL1        0.0294
      9 C         -12.9619  -17.6607   22.4977 C.ar    1  UNL1       -0.0084
     10 C         -14.3298  -17.8370   23.0873 C.ar    1  UNL1       -0.0030
     11 C         -14.4835  -18.3904   24.4729 C.ar    1  UNL1       -0.0002
     12 C         -13.2694  -18.7674   25.2690 C.ar    1  UNL1        0.0013
     13 C         -11.9015  -18.5911   24.6793 C.ar    1  UNL1        0.0146
     14 C         -11.7477  -18.0377   23.2937 C.ar    1  UNL1        0.0501
     15 C          -5.7420  -19.0442   21.6617 C.ar    1  UNL1        0.0194
     16 C          -5.3541  -19.3136   20.2380 C.ar    1  UNL1        0.0762
     17 N          -3.8942  -19.0033   20.0887 N.ar    1  UNL1       -0.3206
     18 C          -3.3798  -18.5421   21.4202 C.ar    1  UNL1        0.0602
     19 C          -2.0191  -18.1024   21.8729 C.ar    1  UNL1        0.0172
     20 C          -1.8003  -17.6879   23.2979 C.ar    1  UNL1        0.0015
     21 C          -2.9424  -17.7132   24.2700 C.ar    1  UNL1        0.0001
     22 C          -4.3032  -18.1529   23.8173 C.ar    1  UNL1        0.0015
     23 C          -4.5219  -18.5674   22.3924 C.ar    1  UNL1        0.0173
     24 C          -3.0899  -19.1316   18.8292 C.3     1  UNL1        0.1477
     25 C          -2.1443  -18.0384   18.4283 C.2     1  UNL1        0.0732
     26 O          -0.6744  -18.1855   18.6887 O.co2   1  UNL1       -0.5472
     27 O          -2.6684  -16.7983   17.7673 O.co2   1  UNL1       -0.5472
     28 N          -6.4373  -15.3917   23.0495 N.1     1  UNL1       -0.1907
     29 C          -7.1175  -16.7268   22.9799 C.1     1  UNL1        0.1050
@<TRIPOS>UNITY_ATOM_ATTR
26 1
charge -1
@<TRIPOS>BOND
     1    28    29    3
     2    29     1    1
     3     1     2    2
     4     2    15    1
     5    15    16   ar
     6    16    17   ar
     7    17    24    1
     8    24    25    1
     9    25    26   ar
    10    25    27   ar
    11    17    18   ar
    12    18    19   ar
    13    19    20   ar
    14    20    21   ar
    15    21    22   ar
    16    22    23   ar
    17     1     3    1
    18     3     4    2
    19     3     5   am
    20     5     6    1
    21     6     7    1
    22     7     8    1
    23     8     9    1
    24     9    10   ar
    25    10    11   ar
    26    11    12   ar
    27    12    13   ar
    28    13    14   ar
    29    23    15   ar
    30    14     5    1
    31    23    18   ar
    32    14     9   ar
@<TRIPOS>MOLECULE
*****
 29 32 0 0 0
SMALL
GASTEIGER

@<TRIPOS>ATOM
      1 C           6.4772   -3.2615   24.0680 C.2     1  UNL1        0.1222
      2 C           5.1365   -3.6282   23.5039 C.2     1  UNL1        0.0164
      3 C           6.9305   -3.8531   25.3696 C.2     1  UNL1        0.2624
      4 O           6.7205   -3.0996   26.6496 O.2     1  UNL1       -0.2688
      5 N           7.5939   -5.1983   25.3915 N.am    1  UNL1       -0.2549
      6 C           7.8038   -5.9518   24.1116 C.3     1  UNL1        0.0989
      7 C           8.4672   -7.2970   24.1335 C.3     1  UNL1        0.0266
      8 C           8.9205   -7.8886   25.4351 C.3     1  UNL1        0.0294
      9 C           8.7106   -7.1351   26.7151 C.ar    1  UNL1       -0.0084
     10 C           9.1639   -7.7267   28.0167 C.ar    1  UNL1       -0.0030
     11 C           8.9540   -6.9732   29.2966 C.ar    1  UNL1       -0.0002
     12 C           8.2906   -5.6280   29.2747 C.ar    1  UNL1        0.0013
     13 C           7.8373   -5.0364   27.9731 C.ar    1  UNL1        0.0146
     14 C           8.0472   -5.7899   26.6932 C.ar    1  UNL1        0.0501
     15 C           4.6832   -3.0365   22.2022 C.ar    1  UNL1        0.0194
     16 C           5.0203   -3.5519   20.8345 C.ar    1  UNL1        0.0762
     17 N           4.3586   -2.6595   19.8267 N.ar    1  UNL1       -0.3206
     18 C           3.6124   -1.5925   20.5716 C.ar    1  UNL1        0.0602
     19 C           2.7763   -0.4389   20.1027 C.ar    1  UNL1        0.0172
     20 C           2.1407    0.4818   21.1019 C.ar    1  UNL1        0.0015
     21 C           2.3413    0.2488   22.5700 C.ar    1  UNL1        0.0001
     22 C           3.1774   -0.9049   23.0390 C.ar    1  UNL1        0.0015
     23 C           3.8130   -1.8255   22.0398 C.ar    1  UNL1        0.0173
     24 C           4.4304   -2.8080   18.3359 C.3     1  UNL1        0.1477
     25 C           5.2452   -1.8446   17.5245 C.2     1  UNL1        0.0732
     26 O           6.7356   -1.9978   17.4530 O.co2   1  UNL1       -0.5472
     27 O           4.5696   -0.7284   16.7848 O.co2   1  UNL1       -0.5472
     28 N           8.2517   -1.3446   22.5927 N.1     1  UNL1       -0.1907
     29 C           7.3645   -2.3030   23.3303 C.1     1  UNL1        0.1050
@<TRIPOS>UNITY_ATOM_ATTR
26 1
charge -1
@<TRIPOS>BOND
     1    28    29    3
     2    29     1    1
     3     1     2    2
     4     2    15    1
     5    15    16   ar
     6    16    17   ar
     7    17    24    1
     8    24    25    1
     9    25    26   ar
    10    25    27   ar
    11    17    18   ar
    12    18    19   ar
    13    19    20   ar
    14    20    21   ar
    15    21    22   ar
    16    22    23   ar
    17     1     3    1
    18     3     4    2
    19     3     5   am
    20     5     6    1
    21     6     7    1
    22     7     8    1
    23     8     9    1
    24     9    10   ar
    25    10    11   ar
    26    11    12   ar
    27    12    13   ar
    28    13    14   ar
    29    23    15   ar
    30    14     5    1
    31    23    18   ar
    32    14     9   ar
@<TRIPOS>MOLECULE
*****
 29 32 0 0 0
SMALL
GASTEIGER

@<TRIPOS>ATOM
      1 C           6.2546   -3.0880   22.3065 C.2     1  UNL1        0.1222
      2 C           4.7779   -3.1981   22.0677 C.2     1  UNL1        0.0164
      3 C           7.0245   -4.2752   22.8043 C.2     1  UNL1        0.2624
      4 O           7.6622   -5.2187   21.8279 O.2     1  UNL1       -0.2688
      5 N           7.1568   -4.5189   24.2784 N.am    1  UNL1       -0.2549
      6 C           6.5192   -3.5755   25.2548 C.3     1  UNL1        0.0989
      7 C           6.6515   -3.8193   26.7289 C.3     1  UNL1        0.0266
      8 C           7.4213   -5.0065   27.2267 C.3     1  UNL1        0.0294
      9 C           8.0590   -5.9500   26.2503 C.ar    1  UNL1       -0.0084
     10 C           8.8289   -7.1372   26.7480 C.ar    1  UNL1       -0.0030
     11 C           9.4665   -8.0806   25.7716 C.ar    1  UNL1       -0.0002
     12 C           9.3342   -7.8368   24.2975 C.ar    1  UNL1        0.0013
     13 C           8.5643   -6.6496   23.7998 C.ar    1  UNL1        0.0146
     14 C           7.9267   -5.7062   24.7761 C.ar    1  UNL1        0.0501
     15 C           4.0080   -2.0108   21.5699 C.ar    1  UNL1        0.0194
     16 C           3.2051   -1.0643   22.4122 C.ar    1  UNL1        0.0762
     17 N           2.6068   -0.0302   21.5053 N.ar    1  UNL1       -0.3206
     18 C           3.0399   -0.3375   20.1024 C.ar    1  UNL1        0.0602
     19 C           2.7576    0.3390   18.7939 C.ar    1  UNL1        0.0172
     20 C           3.3412   -0.2084   17.5251 C.ar    1  UNL1        0.0015
     21 C           4.2072   -1.4326   17.5651 C.ar    1  UNL1        0.0001
     22 C           4.4896   -2.1092   18.8737 C.ar    1  UNL1        0.0015
     23 C           3.9059   -1.5617   20.1424 C.ar    1  UNL1        0.0173
     24 C           1.7295    1.1109   21.9272 C.3     1  UNL1        0.1477
     25 C           0.2979    1.1608   21.4819 C.2     1  UNL1        0.0732
     26 O          -0.5763    2.3077   21.8948 O.co2   1  UNL1       -0.5472
     27 O          -0.2594    0.0641   20.6238 O.co2   1  UNL1       -0.5472
     28 N           7.6683   -0.4931   21.7885 N.1     1  UNL1       -0.1907
     29 C           6.9615   -1.7905   22.0475 C.1     1  UNL1        0.1050
@<TRIPOS>UNITY_ATOM_ATTR
26 1
charge -1
@<TRIPOS>BOND
     1    28    29    3
     2    29     1    1
     3     1     2    2
     4     2    15    1
     5    15    16   ar
     6    16    17   ar
     7    17    24    1
     8    24    25    1
     9    25    26   ar
    10    25    27   ar
    11    17    18   ar
    12    18    19   ar
    13    19    20   ar
    14    20    21   ar
    15    21    22   ar
    16    22    23   ar
    17     1     3    1
    18     3     4    2
    19     3     5   am
    20     5     6    1
    21     6     7    1
    22     7     8    1
    23     8     9    1
    24     9    10   ar
    25    10    11   ar
    26    11    12   ar
    27    12    13   ar
    28    13    14   ar
    29    23    15   ar
    30    14     5    1
    31    23    18   ar
    32    14     9   ar
@<TRIPOS>MOLECULE
*****
 29 32 0 0 0
SMALL
GASTEIGER

@<TRIPOS>ATOM
      1 C           6.1053   -2.9669   23.9893 C.2     1  UNL1        0.1222
      2 C           4.7778   -3.2209   23.3390 C.2     1  UNL1        0.0164
      3 C           6.5920   -3.8741   25.0802 C.2     1  UNL1        0.2624
      4 O           6.2565   -3.5736   26.5111 O.2     1  UNL1       -0.2688
      5 N           7.4140   -5.0819   24.7403 N.am    1  UNL1       -0.2549
      6 C           7.7495   -5.3824   23.3096 C.3     1  UNL1        0.0989
      7 C           8.5715   -6.5902   22.9697 C.3     1  UNL1        0.0266
      8 C           9.0582   -7.4974   24.0606 C.3     1  UNL1        0.0294
      9 C           8.7227   -7.1969   25.4914 C.ar    1  UNL1       -0.0084
     10 C           9.2093   -8.1042   26.5823 C.ar    1  UNL1       -0.0030
     11 C           8.8739   -7.8036   28.0131 C.ar    1  UNL1       -0.0002
     12 C           8.0518   -6.5959   28.3529 C.ar    1  UNL1        0.0013
     13 C           7.5652   -5.6886   27.2621 C.ar    1  UNL1        0.0146
     14 C           7.9006   -5.9892   25.8313 C.ar    1  UNL1        0.0501
     15 C           4.2912   -2.3136   22.2480 C.ar    1  UNL1        0.0194
     16 C           3.3183   -1.1834   22.4096 C.ar    1  UNL1        0.0762
     17 N           3.1179   -0.5485   21.0655 N.ar    1  UNL1       -0.3206
     18 C           3.9669   -1.2864   20.0731 C.ar    1  UNL1        0.0602
     19 C           4.1734   -1.1059   18.5984 C.ar    1  UNL1        0.0172
     20 C           5.1050   -2.0164   17.8545 C.ar    1  UNL1        0.0015
     21 C           5.8301   -3.1073   18.5854 C.ar    1  UNL1        0.0001
     22 C           5.6236   -3.2878   20.0602 C.ar    1  UNL1        0.0015
     23 C           4.6921   -2.3774   20.8040 C.ar    1  UNL1        0.0173
     24 C           2.2253    0.6192   20.7662 C.3     1  UNL1        0.1477
     25 C           0.9417    0.4099   20.0187 C.2     1  UNL1        0.0732
     26 O           0.9198    0.5137   18.5225 O.co2   1  UNL1       -0.5472
     27 O          -0.3197    0.0969   20.7674 O.co2   1  UNL1       -0.5472
     28 N           7.7873   -0.6442   23.1082 N.1     1  UNL1       -0.1907
     29 C           6.9463   -1.8055   23.5487 C.1     1  UNL1        0.1050
@<TRIPOS>UNITY_ATOM_ATTR
26 1
charge -1
@<TRIPOS>BOND
     1    28    29    3
     2    29     1    1
     3     1     2    2
     4     2    15    1
     5    15    16   ar
     6    16    17   ar
     7    17    24    1
     8    24    25    1
     9    25    26   ar
    10    25    27   ar
    11    17    18   ar
    12    18    19   ar
    13    19    20   ar
    14    20    21   ar
    15    21    22   ar
    16    22    23   ar
    17     1     3    1
    18     3     4    2
    19     3     5   am
    20     5     6    1
    21     6     7    1
    22     7     8    1
    23     8     9    1
    24     9    10   ar
    25    10    11   ar
    26    11    12   ar
    27    12    13   ar
    28    13    14   ar
    29    23    15   ar
    30    14     5    1
    31    23    18   ar
    32    14     9   ar
@<TRIPOS>MOLECULE
*****
 29 32 0 0 0
SMALL
GASTEIGER

@<TRIPOS>ATOM
      1 C           6.3481   -3.5519   22.8423 C.2     1  UNL1        0.1222
      2 C           4.8926   -3.6632   22.4970 C.2     1  UNL1        0.0164
      3 C           7.0363   -4.6739   23.5617 C.2     1  UNL1        0.2624
      4 O           7.6755   -5.7845   22.7819 O.2     1  UNL1       -0.2688
      5 N           7.0852   -4.6853   25.0608 N.am    1  UNL1       -0.2549
      6 C           6.4460   -3.5748   25.8406 C.3     1  UNL1        0.0989
      7 C           6.4950   -3.5863   27.3398 C.3     1  UNL1        0.0266
      8 C           7.1831   -4.7083   28.0591 C.3     1  UNL1        0.0294
      9 C           7.8224   -5.8189   27.2793 C.ar    1  UNL1       -0.0084
     10 C           8.5105   -6.9409   27.9987 C.ar    1  UNL1       -0.0030
     11 C           9.1497   -8.0514   27.2189 C.ar    1  UNL1       -0.0002
     12 C           9.1008   -8.0399   25.7198 C.ar    1  UNL1        0.0013
     13 C           8.4126   -6.9179   25.0004 C.ar    1  UNL1        0.0146
     14 C           7.7734   -5.8074   25.7802 C.ar    1  UNL1        0.0501
     15 C           4.2045   -2.5411   21.7776 C.ar    1  UNL1        0.0194
     16 C           4.1082   -2.3753   20.2900 C.ar    1  UNL1        0.0762
     17 N           3.3360   -1.1196   20.0126 N.ar    1  UNL1       -0.3206
     18 C           2.9551   -0.5093   21.3288 C.ar    1  UNL1        0.0602
     19 C           2.1889    0.7328   21.6750 C.ar    1  UNL1        0.0172
     20 C           1.9593    1.0965   23.1121 C.ar    1  UNL1        0.0015
     21 C           2.4961    0.2179   24.2029 C.ar    1  UNL1        0.0001
     22 C           3.2624   -1.0243   23.8568 C.ar    1  UNL1        0.0015
     23 C           3.4919   -1.3879   22.4198 C.ar    1  UNL1        0.0173
     24 C           3.0032   -0.5706   18.6570 C.3     1  UNL1        0.1477
     25 C           4.0783   -0.4288   17.6205 C.2     1  UNL1        0.0732
     26 O           3.8906   -1.0288   16.2586 O.co2   1  UNL1       -0.5472
     27 O           5.3408    0.3127   17.9459 O.co2   1  UNL1       -0.5472
     28 N           7.8827   -1.0851   22.0940 N.1     1  UNL1       -0.1907
     29 C           7.1154   -2.3184   22.4682 C.1     1  UNL1        0.1050
@<TRIPOS>UNITY_ATOM_ATTR
26 1
charge -1
@<TRIPOS>BOND
     1    28    29    3
     2    29     1    1
     3     1     2    2
     4     2    15    1
     5    15    16   ar
     6    16    17   ar
     7    17    24    1
     8    24    25    1
     9    25    26   ar
    10    25    27   ar
    11    17    18   ar
    12    18    19   ar
    13    19    20   ar
    14    20    21   ar
    15    21    22   ar
    16    22    23   ar
    17     1     3    1
    18     3     4    2
    19     3     5   am
    20     5     6    1
    21     6     7    1
    22     7     8    1
    23     8     9    1
    24     9    10   ar
    25    10    11   ar
    26    11    12   ar
    27    12    13   ar
    28    13    14   ar
    29    23    15   ar
    30    14     5    1
    31    23    18   ar
    32    14     9   ar
@<TRIPOS>MOLECULE
*****
 29 32 0 0 0
SMALL
GASTEIGER

@<TRIPOS>ATOM
      1 C          -2.2794    4.0870   26.6901 C.2     1  UNL1        0.1222
      2 C          -2.0857    2.6765   27.1622 C.2     1  UNL1        0.0164
      3 C          -3.6637    4.6467   26.5472 C.2     1  UNL1        0.2624
      4 O          -4.2412    5.5058   27.6328 O.2     1  UNL1       -0.2688
      5 N          -4.4706    4.3472   25.3187 N.am    1  UNL1       -0.2549
      6 C          -3.8932    3.4881   24.2331 C.3     1  UNL1        0.0989
      7 C          -4.7002    3.1887   23.0046 C.3     1  UNL1        0.0266
      8 C          -6.0844    3.7483   22.8617 C.3     1  UNL1        0.0294
      9 C          -6.6619    4.6075   23.9473 C.ar    1  UNL1       -0.0084
     10 C          -8.0462    5.1671   23.8044 C.ar    1  UNL1       -0.0030
     11 C          -8.6236    6.0262   24.8900 C.ar    1  UNL1       -0.0002
     12 C          -7.8167    6.3257   26.1185 C.ar    1  UNL1        0.0013
     13 C          -6.4324    5.7660   26.2614 C.ar    1  UNL1        0.0146
     14 C          -5.8550    4.9069   25.1758 C.ar    1  UNL1        0.0501
     15 C          -0.7013    2.1169   27.3052 C.ar    1  UNL1        0.0194
     16 C           0.0471    1.9336   28.5921 C.ar    1  UNL1        0.0762
     17 N           1.3886    1.3457   28.2685 N.ar    1  UNL1       -0.3206
     18 C           1.4693    1.1657   26.7815 C.ar    1  UNL1        0.0602
     19 C           2.5520    0.6294   25.8928 C.ar    1  UNL1        0.0172
     20 C           2.3432    0.5696   24.4085 C.ar    1  UNL1        0.0015
     21 C           1.0515    1.0462   23.8132 C.ar    1  UNL1        0.0001
     22 C          -0.0313    1.5826   24.7019 C.ar    1  UNL1        0.0015
     23 C           0.1776    1.6423   26.1861 C.ar    1  UNL1        0.0173
     24 C           2.4610    0.9988   29.2581 C.3     1  UNL1        0.1477
     25 C           2.0911    0.4401   30.6001 C.2     1  UNL1        0.0732
     26 O           1.4463    1.3222   31.6278 O.co2   1  UNL1       -0.5472
     27 O           2.3660   -1.0005   30.9145 O.co2   1  UNL1       -0.5472
     28 N           0.1019    5.7888   26.0317 N.1     1  UNL1       -0.1907
     29 C          -1.0887    4.9379   26.3609 C.1     1  UNL1        0.1050
@<TRIPOS>UNITY_ATOM_ATTR
26 1
charge -1
@<TRIPOS>BOND
     1    28    29    3
     2    29     1    1
     3     1     2    2
     4     2    15    1
     5    15    16   ar
     6    16    17   ar
     7    17    24    1
     8    24    25    1
     9    25    26   ar
    10    25    27   ar
    11    17    18   ar
    12    18    19   ar
    13    19    20   ar
    14    20    21   ar
    15    21    22   ar
    16    22    23   ar
    17     1     3    1
    18     3     4    2
    19     3     5   am
    20     5     6    1
    21     6     7    1
    22     7     8    1
    23     8     9    1
    24     9    10   ar
    25    10    11   ar
    26    11    12   ar
    27    12    13   ar
    28    13    14   ar
    29    23    15   ar
    30    14     5    1
    31    23    18   ar
    32    14     9   ar
@<TRIPOS>MOLECULE
*****
 29 32 0 0 0
SMALL
GASTEIGER

@<TRIPOS>ATOM
      1 C           5.6378   -2.1582   24.4855 C.2     1  UNL1        0.1222
      2 C           4.3258   -2.4577   23.8230 C.2     1  UNL1        0.0164
      3 C           5.9862   -2.8125   25.7895 C.2     1  UNL1        0.2624
      4 O           5.6122   -2.1522   27.0834 O.2     1  UNL1       -0.2688
      5 N           6.7085   -4.1271   25.7996 N.am    1  UNL1       -0.2549
      6 C           7.0824   -4.7874   24.5058 C.3     1  UNL1        0.0989
      7 C           7.8047   -6.1020   24.5159 C.3     1  UNL1        0.0266
      8 C           8.1530   -6.7563   25.8199 C.3     1  UNL1        0.0294
      9 C           7.7791   -6.0960   27.1139 C.ar    1  UNL1       -0.0084
     10 C           8.1274   -6.7503   28.4179 C.ar    1  UNL1       -0.0030
     11 C           7.7535   -6.0900   29.7118 C.ar    1  UNL1       -0.0002
     12 C           7.0312   -4.7754   29.7016 C.ar    1  UNL1        0.0013
     13 C           6.6829   -4.1211   28.3976 C.ar    1  UNL1        0.0146
     14 C           7.0568   -4.7814   27.1037 C.ar    1  UNL1        0.0501
     15 C           3.9775   -1.8033   22.5189 C.ar    1  UNL1        0.0194
     16 C           3.1483   -0.5651   22.3474 C.ar    1  UNL1        0.0762
     17 N           3.0556   -0.2689   20.8799 N.ar    1  UNL1       -0.3206
     18 C           3.8275   -1.3240   20.1443 C.ar    1  UNL1        0.0602
     19 C           4.0851   -1.5437   18.6831 C.ar    1  UNL1        0.0172
     20 C           4.9125   -2.7118   18.2347 C.ar    1  UNL1        0.0015
     21 C           5.4823   -3.6601   19.2477 C.ar    1  UNL1        0.0001
     22 C           5.2246   -3.4404   20.7090 C.ar    1  UNL1        0.0015
     23 C           4.3972   -2.2724   21.1573 C.ar    1  UNL1        0.0173
     24 C           2.3202    0.8806   20.2573 C.3     1  UNL1        0.1477
     25 C           0.9674    0.6631   19.6466 C.2     1  UNL1        0.0732
     26 O          -0.2217    0.4159   20.5268 O.co2   1  UNL1       -0.5472
     27 O           0.8039    0.6928   18.1559 O.co2   1  UNL1       -0.5472
     28 N           7.5651   -0.2505   23.2024 N.1     1  UNL1       -0.1907
     29 C           6.6015   -1.2043   23.8439 C.1     1  UNL1        0.1050
@<TRIPOS>UNITY_ATOM_ATTR
26 1
charge -1
@<TRIPOS>BOND
     1    28    29    3
     2    29     1    1
     3     1     2    2
     4     2    15    1
     5    15    16   ar
     6    16    17   ar
     7    17    24    1
     8    24    25    1
     9    25    26   ar
    10    25    27   ar
    11    17    18   ar
    12    18    19   ar
    13    19    20   ar
    14    20    21   ar
    15    21    22   ar
    16    22    23   ar
    17     1     3    1
    18     3     4    2
    19     3     5   am
    20     5     6    1
    21     6     7    1
    22     7     8    1
    23     8     9    1
    24     9    10   ar
    25    10    11   ar
    26    11    12   ar
    27    12    13   ar
    28    13    14   ar
    29    23    15   ar
    30    14     5    1
    31    23    18   ar
    32    14     9   ar
@<TRIPOS>MOLECULE
*****
 29 32 0 0 0
SMALL
GASTEIGER

@<TRIPOS>ATOM
      1 C           0.9657    1.9293   21.8835 C.2     1  UNL1        0.1222
      2 C           0.7623    0.5769   21.2673 C.2     1  UNL1        0.0164
      3 C          -0.1888    2.6449   22.5199 C.2     1  UNL1        0.2624
      4 O          -1.0680    3.5348   21.6921 O.2     1  UNL1       -0.2688
      5 N          -0.4641    2.4706   23.9841 N.am    1  UNL1       -0.2549
      6 C           0.4151    1.5808   24.8119 C.3     1  UNL1        0.0989
      7 C           0.1398    1.4066   26.2760 C.3     1  UNL1        0.0266
      8 C          -1.0147    2.1221   26.9125 C.3     1  UNL1        0.0294
      9 C          -1.8940    3.0120   26.0847 C.ar    1  UNL1       -0.0084
     10 C          -3.0484    3.7276   26.7211 C.ar    1  UNL1       -0.0030
     11 C          -3.9276    4.6174   25.8934 C.ar    1  UNL1       -0.0002
     12 C          -3.6523    4.7916   24.4292 C.ar    1  UNL1        0.0013
     13 C          -2.4978    4.0761   23.7927 C.ar    1  UNL1        0.0146
     14 C          -1.6186    3.1863   24.6205 C.ar    1  UNL1        0.0501
     15 C           1.9168   -0.1387   20.6309 C.ar    1  UNL1        0.0194
     16 C           2.2266   -0.1823   19.1639 C.ar    1  UNL1        0.0762
     17 N           3.4655   -1.0068   18.9761 N.ar    1  UNL1       -0.3206
     18 C           3.9215   -1.4728   20.3271 C.ar    1  UNL1        0.0602
     19 C           5.0845   -2.3162   20.7581 C.ar    1  UNL1        0.0172
     20 C           5.2904   -2.6233   22.2119 C.ar    1  UNL1        0.0015
     21 C           4.3332   -2.0867   23.2346 C.ar    1  UNL1        0.0001
     22 C           3.1701   -1.2431   22.8036 C.ar    1  UNL1        0.0015
     23 C           2.9643   -0.9362   21.3498 C.ar    1  UNL1        0.0173
     24 C           4.1316   -1.3118   17.6672 C.3     1  UNL1        0.1477
     25 C           5.5218   -0.8163   17.3996 C.2     1  UNL1        0.0732
     26 O           6.6737   -1.7771   17.4011 O.co2   1  UNL1       -0.5472
     27 O           5.7602    0.6399   17.1304 O.co2   1  UNL1       -0.5472
     28 N           3.6816    3.2030   21.8429 N.1     1  UNL1       -0.1907
     29 C           2.3237    2.5661   21.8632 C.1     1  UNL1        0.1050
@<TRIPOS>UNITY_ATOM_ATTR
26 1
charge -1
@<TRIPOS>BOND
     1    28    29    3
     2    29     1    1
     3     1     2    2
     4     2    15    1
     5    15    16   ar
     6    16    17   ar
     7    17    24    1
     8    24    25    1
     9    25    26   ar
    10    25    27   ar
    11    17    18   ar
    12    18    19   ar
    13    19    20   ar
    14    20    21   ar
    15    21    22   ar
    16    22    23   ar
    17     1     3    1
    18     3     4    2
    19     3     5   am
    20     5     6    1
    21     6     7    1
    22     7     8    1
    23     8     9    1
    24     9    10   ar
    25    10    11   ar
    26    11    12   ar
    27    12    13   ar
    28    13    14   ar
    29    23    15   ar
    30    14     5    1
    31    23    18   ar
    32    14     9   ar
@<TRIPOS>MOLECULE
*****
 29 32 0 0 0
SMALL
GASTEIGER

@<TRIPOS>ATOM
      1 C           6.0840   -2.8881   23.1250 C.2     1  UNL1        0.1222
      2 C           4.5910   -2.9199   22.9833 C.2     1  UNL1        0.0164
      3 C           6.8284   -4.1348   23.5009 C.2     1  UNL1        0.2624
      4 O           7.3289   -5.0607   22.4321 O.2     1  UNL1       -0.2688
      5 N           7.0724   -4.4558   24.9457 N.am    1  UNL1       -0.2549
      6 C           6.5719   -3.5300   26.0146 C.3     1  UNL1        0.0989
      7 C           6.8159   -3.8510   27.4594 C.3     1  UNL1        0.0266
      8 C           7.5603   -5.0977   27.8353 C.3     1  UNL1        0.0294
      9 C           8.0608   -6.0236   26.7665 C.ar    1  UNL1       -0.0084
     10 C           8.8053   -7.2703   27.1425 C.ar    1  UNL1       -0.0030
     11 C           9.3057   -8.1961   26.0736 C.ar    1  UNL1       -0.0002
     12 C           9.0617   -7.8752   24.6288 C.ar    1  UNL1        0.0013
     13 C           8.3173   -6.6284   24.2529 C.ar    1  UNL1        0.0146
     14 C           7.8169   -5.7026   25.3217 C.ar    1  UNL1        0.0501
     15 C           3.8466   -1.6730   22.6073 C.ar    1  UNL1        0.0194
     16 C           3.5470   -1.2120   21.2117 C.ar    1  UNL1        0.0762
     17 N           2.7864    0.0776   21.3028 N.ar    1  UNL1       -0.3206
     18 C           2.6158    0.4136   22.7548 C.ar    1  UNL1        0.0602
     19 C           1.9485    1.5649   23.4468 C.ar    1  UNL1        0.0172
     20 C           1.9364    1.6344   24.9452 C.ar    1  UNL1        0.0015
     21 C           2.5917    0.5524   25.7514 C.ar    1  UNL1        0.0001
     22 C           3.2591   -0.5990   25.0593 C.ar    1  UNL1        0.0015
     23 C           3.2711   -0.6684   23.5610 C.ar    1  UNL1        0.0173
     24 C           2.2844    0.8887   20.1453 C.3     1  UNL1        0.1477
     25 C           0.9019    0.6580   19.6111 C.2     1  UNL1        0.0732
     26 O           0.6433    0.7466   18.1362 O.co2   1  UNL1       -0.5472
     27 O          -0.2220    0.3386   20.5517 O.co2   1  UNL1       -0.5472
     28 N           7.5810   -0.3309   22.6563 N.1     1  UNL1       -0.1907
     29 C           6.8325   -1.6094   22.8906 C.1     1  UNL1        0.1050
@<TRIPOS>UNITY_ATOM_ATTR
26 1
charge -1
@<TRIPOS>BOND
     1    28    29    3
     2    29     1    1
     3     1     2    2
     4     2    15    1
     5    15    16   ar
     6    16    17   ar
     7    17    24    1
     8    24    25    1
     9    25    26   ar
    10    25    27   ar
    11    17    18   ar
    12    18    19   ar
    13    19    20   ar
    14    20    21   ar
    15    21    22   ar
    16    22    23   ar
    17     1     3    1
    18     3     4    2
    19     3     5   am
    20     5     6    1
    21     6     7    1
    22     7     8    1
    23     8     9    1
    24     9    10   ar
    25    10    11   ar
    26    11    12   ar
    27    12    13   ar
    28    13    14   ar
    29    23    15   ar
    30    14     5    1
    31    23    18   ar
    32    14     9   ar
