@<TRIPOS>MOLECULE
*****
 28 31 0 0 0
SMALL
GASTEIGER

@<TRIPOS>ATOM
      1 C          -7.1300  -17.9835   22.8963 C.ar    1  UNL1        0.0929
      2 C          -6.2178  -18.9068   22.1446 C.ar    1  UNL1        0.0467
      3 C          -4.7391  -18.6560   22.1344 C.ar    1  UNL1        0.1632
      4 C          -4.1724  -17.4817   22.8761 C.ar    1  UNL1        0.1205
      5 N          -5.0846  -16.5583   23.6278 N.ar    1  UNL1       -0.2669
      6 C          -4.8173  -15.3290   24.4447 C.ar    1  UNL1        0.2070
      7 N          -6.1310  -14.8201   24.9597 N.ar    1  UNL1       -0.1252
      8 N          -7.2102  -15.7349   24.4611 N.ar    1  UNL1       -0.1281
      9 C          -6.5634  -16.8092   23.6380 C.ar    1  UNL1        0.1750
     10 O          -9.2003  -19.2691   21.9956 O.2     1  UNL1       -0.2697
     11 C          -8.6089  -18.2343   22.9065 C.2     1  UNL1        0.2536
     12 N          -9.4963  -17.4506   23.8274 N.am    1  UNL1       -0.2657
     13 H          -9.1081  -16.7714   24.4253 H       1  UNL1        0.1566
     14 C         -10.9751  -17.7015   23.8375 C.ar    1  UNL1        0.1345
     15 C         -11.8559  -17.0348   22.8227 C.ar    1  UNL1        0.0368
     16 C         -13.3347  -17.2857   22.8327 C.ar    1  UNL1        0.0341
     17 C         -13.9328  -18.2033   23.8575 C.ar    1  UNL1        0.1593
     18 F         -15.4116  -18.4542   23.8676 F       1  UNL1       -0.2025
     19 C         -13.0520  -18.8700   24.8724 C.ar    1  UNL1        0.1298
     20 N         -11.5733  -18.6191   24.8623 N.ar    1  UNL1       -0.2267
     21 O          -3.8268  -19.5795   21.3826 O.3     1  UNL1       -0.4503
     22 C          -2.7344  -19.0177   20.5217 C.ar    1  UNL1        0.1667
     23 C          -1.2980  -19.2658   20.8755 C.ar    1  UNL1        0.1364
     24 N          -0.2057  -18.7041   20.0146 N.ar    1  UNL1       -0.2368
     25 C          -0.5497  -17.8942   18.7998 C.ar    1  UNL1        0.1286
     26 C          -1.9861  -17.6461   18.4459 C.ar    1  UNL1        0.1623
     27 F          -2.3302  -16.8362   17.2311 F       1  UNL1       -0.2024
     28 C          -3.0784  -18.2078   19.3069 C.ar    1  UNL1        0.0703
@<TRIPOS>BOND
     1    10    11    2
     2    11    12   am
     3    12    14    1
     4    14    15   ar
     5    15    16   ar
     6    16    17   ar
     7    17    18    1
     8    17    19   ar
     9    19    20   ar
    10    11     1    1
    11     1     2   ar
    12     2     3   ar
    13     3    21    1
    14    21    22    1
    15    22    23   ar
    16    23    24   ar
    17    24    25   ar
    18    25    26   ar
    19    26    27    1
    20    26    28   ar
    21     3     4   ar
    22     4     5   ar
    23     5     6   ar
    24     6     7   ar
    25     7     8   ar
    26     8     9   ar
    27    20    14   ar
    28     9     1   ar
    29    28    22   ar
    30     9     5   ar
    31    12    13    1
@<TRIPOS>MOLECULE
*****
 28 31 0 0 0
SMALL
GASTEIGER

@<TRIPOS>ATOM
      1 C          -6.6834  -16.4436   24.0982 C.ar    1  UNL1        0.0929
      2 C          -7.9096  -17.0924   23.5277 C.ar    1  UNL1        0.0467
      3 C          -9.1871  -17.1032   24.3136 C.ar    1  UNL1        0.1632
      4 C          -9.2385  -16.4651   25.6702 C.ar    1  UNL1        0.1205
      5 N          -8.0123  -15.8163   26.2408 N.ar    1  UNL1       -0.2669
      6 C          -7.7621  -15.1131   27.5419 C.ar    1  UNL1        0.2070
      7 N          -6.3299  -14.6677   27.5600 N.ar    1  UNL1       -0.1252
      8 N          -5.6950  -15.0957   26.2701 N.ar    1  UNL1       -0.1281
      9 C          -6.7348  -15.8056   25.4548 C.ar    1  UNL1        0.1750
     10 O          -4.7290  -15.1313   22.9988 O.2     1  UNL1       -0.2697
     11 C          -5.4059  -16.4328   23.3122 C.2     1  UNL1        0.2536
     12 N          -4.8051  -17.7235   22.8397 N.am    1  UNL1       -0.2657
     13 H          -5.2493  -18.5777   23.0454 H       1  UNL1        0.1566
     14 C          -3.5276  -17.7126   22.0537 C.ar    1  UNL1        0.1345
     15 C          -3.0548  -18.9632   21.3737 C.ar    1  UNL1        0.0368
     16 C          -1.7772  -18.9525   20.5877 C.ar    1  UNL1        0.0341
     17 C          -0.9725  -17.6911   20.4817 C.ar    1  UNL1        0.1593
     18 F           0.3050  -17.6803   19.6957 F       1  UNL1       -0.2025
     19 C          -1.4453  -16.4404   21.1617 C.ar    1  UNL1        0.1298
     20 N          -2.7228  -16.4512   21.9477 N.ar    1  UNL1       -0.2267
     21 O         -10.4133  -17.7520   23.7429 O.3     1  UNL1       -0.4503
     22 C         -10.7616  -17.5562   22.2971 C.ar    1  UNL1        0.1667
     23 C         -11.3576  -16.2584   21.8384 C.ar    1  UNL1        0.1364
     24 N         -11.7059  -16.0626   20.3926 N.ar    1  UNL1       -0.2368
     25 C         -11.4582  -17.1645   19.4055 C.ar    1  UNL1        0.1286
     26 C         -10.8622  -18.4623   19.8643 C.ar    1  UNL1        0.1623
     27 F         -10.6144  -19.5644   18.8773 F       1  UNL1       -0.2024
     28 C         -10.5139  -18.6581   21.3101 C.ar    1  UNL1        0.0703
@<TRIPOS>BOND
     1    10    11    2
     2    11    12   am
     3    12    14    1
     4    14    15   ar
     5    15    16   ar
     6    16    17   ar
     7    17    18    1
     8    17    19   ar
     9    19    20   ar
    10    11     1    1
    11     1     2   ar
    12     2     3   ar
    13     3    21    1
    14    21    22    1
    15    22    23   ar
    16    23    24   ar
    17    24    25   ar
    18    25    26   ar
    19    26    27    1
    20    26    28   ar
    21     3     4   ar
    22     4     5   ar
    23     5     6   ar
    24     6     7   ar
    25     7     8   ar
    26     8     9   ar
    27    20    14   ar
    28     9     1   ar
    29    28    22   ar
    30     9     5   ar
    31    12    13    1
@<TRIPOS>MOLECULE
*****
 28 31 0 0 0
SMALL
GASTEIGER

@<TRIPOS>ATOM
      1 C          -7.7032  -18.3609   21.6449 C.ar    1  UNL1        0.0929
      2 C          -7.9424  -17.7930   23.0124 C.ar    1  UNL1        0.0467
      3 C          -9.3366  -17.7201   23.5609 C.ar    1  UNL1        0.1632
      4 C         -10.4917  -18.2152   22.7419 C.ar    1  UNL1        0.1205
      5 N         -10.2525  -18.7831   21.3743 N.ar    1  UNL1       -0.2669
      6 C         -11.1862  -19.3442   20.3432 C.ar    1  UNL1        0.2070
      7 N         -10.3690  -19.7639   19.1574 N.ar    1  UNL1       -0.1252
      8 N          -8.9303  -19.4622   19.4557 N.ar    1  UNL1       -0.1281
      9 C          -8.8582  -18.8560   20.8258 C.ar    1  UNL1        0.1750
     10 O          -6.0904  -18.6962   19.6357 O.2     1  UNL1       -0.2697
     11 C          -6.3090  -18.4338   21.0964 C.2     1  UNL1        0.2536
     12 N          -5.1334  -18.2442   22.0085 N.am    1  UNL1       -0.2657
     13 H          -5.2768  -18.0720   22.9671 H       1  UNL1        0.1566
     14 C          -3.7391  -18.3171   21.4599 C.ar    1  UNL1        0.1345
     15 C          -3.1277  -19.6490   21.1403 C.ar    1  UNL1        0.0368
     16 C          -1.7335  -19.7220   20.5917 C.ar    1  UNL1        0.0341
     17 C          -0.9508  -18.4631   20.3627 C.ar    1  UNL1        0.1593
     18 F           0.4433  -18.5360   19.8141 F       1  UNL1       -0.2025
     19 C          -1.5623  -17.1311   20.6823 C.ar    1  UNL1        0.1298
     20 N          -2.9564  -17.0582   21.2309 N.ar    1  UNL1       -0.2267
     21 O          -9.5758  -17.1521   24.9286 O.3     1  UNL1       -0.4503
     22 C          -8.4556  -16.4844   25.6698 C.ar    1  UNL1        0.1667
     23 C          -8.4996  -16.3868   27.1660 C.ar    1  UNL1        0.1364
     24 N          -7.3794  -15.7191   27.9072 N.ar    1  UNL1       -0.2368
     25 C          -6.2153  -15.1490   27.1523 C.ar    1  UNL1        0.1286
     26 C          -6.1714  -15.2467   25.6562 C.ar    1  UNL1        0.1623
     27 F          -5.0072  -14.6767   24.9011 F       1  UNL1       -0.2024
     28 C          -7.2915  -15.9144   24.9149 C.ar    1  UNL1        0.0703
@<TRIPOS>BOND
     1    10    11    2
     2    11    12   am
     3    12    14    1
     4    14    15   ar
     5    15    16   ar
     6    16    17   ar
     7    17    18    1
     8    17    19   ar
     9    19    20   ar
    10    11     1    1
    11     1     2   ar
    12     2     3   ar
    13     3    21    1
    14    21    22    1
    15    22    23   ar
    16    23    24   ar
    17    24    25   ar
    18    25    26   ar
    19    26    27    1
    20    26    28   ar
    21     3     4   ar
    22     4     5   ar
    23     5     6   ar
    24     6     7   ar
    25     7     8   ar
    26     8     9   ar
    27    20    14   ar
    28     9     1   ar
    29    28    22   ar
    30     9     5   ar
    31    12    13    1
@<TRIPOS>MOLECULE
*****
 28 31 0 0 0
SMALL
GASTEIGER

@<TRIPOS>ATOM
      1 C           3.0846    0.8069   32.8602 C.ar    1  UNL1        0.0929
      2 C           3.0970    1.5957   34.1360 C.ar    1  UNL1        0.0467
      3 C           4.0759    1.2536   35.2197 C.ar    1  UNL1        0.1632
      4 C           5.0425    0.1227   35.0278 C.ar    1  UNL1        0.1205
      5 N           5.0302   -0.6660   33.7520 N.ar    1  UNL1       -0.2669
      6 C           5.8567   -1.8258   33.2810 C.ar    1  UNL1        0.2070
      7 N           5.3885   -2.2004   31.9061 N.ar    1  UNL1       -0.1252
      8 N           4.2727   -1.2722   31.5273 N.ar    1  UNL1       -0.1281
      9 C           4.0512   -0.3239   32.6682 C.ar    1  UNL1        0.1750
     10 O           0.8286    1.8589   32.1159 O.2     1  UNL1       -0.2697
     11 C           2.1057    1.1490   31.7764 C.2     1  UNL1        0.2536
     12 N           2.4038    0.7814   30.3530 N.am    1  UNL1       -0.2657
     13 H           3.2420    0.3155   30.1301 H       1  UNL1        0.1566
     14 C           1.4248    1.1235   29.2693 C.ar    1  UNL1        0.1345
     15 C           0.2452    0.2323   29.0155 C.ar    1  UNL1        0.0368
     16 C          -0.7338    0.5744   27.9318 C.ar    1  UNL1        0.0341
     17 C          -0.5333    1.8076   27.1018 C.ar    1  UNL1        0.1593
     18 F          -1.5123    2.1497   26.0181 F       1  UNL1       -0.2025
     19 C           0.6463    2.6988   27.3556 C.ar    1  UNL1        0.1298
     20 N           1.6253    2.3567   28.4393 N.ar    1  UNL1       -0.2267
     21 O           4.0882    2.0424   36.4956 O.3     1  UNL1       -0.4503
     22 C           2.9042    1.9993   37.4155 C.ar    1  UNL1        0.1667
     23 C           1.9691    3.1698   37.4898 C.ar    1  UNL1        0.1364
     24 N           0.7851    3.1266   38.4098 N.ar    1  UNL1       -0.2368
     25 C           0.5361    1.9130   39.2554 C.ar    1  UNL1        0.1286
     26 C           1.4712    0.7425   39.1811 C.ar    1  UNL1        0.1623
     27 F           1.2224   -0.4713   40.0267 F       1  UNL1       -0.2024
     28 C           2.6553    0.7857   38.2612 C.ar    1  UNL1        0.0703
@<TRIPOS>BOND
     1    10    11    2
     2    11    12   am
     3    12    14    1
     4    14    15   ar
     5    15    16   ar
     6    16    17   ar
     7    17    18    1
     8    17    19   ar
     9    19    20   ar
    10    11     1    1
    11     1     2   ar
    12     2     3   ar
    13     3    21    1
    14    21    22    1
    15    22    23   ar
    16    23    24   ar
    17    24    25   ar
    18    25    26   ar
    19    26    27    1
    20    26    28   ar
    21     3     4   ar
    22     4     5   ar
    23     5     6   ar
    24     6     7   ar
    25     7     8   ar
    26     8     9   ar
    27    20    14   ar
    28     9     1   ar
    29    28    22   ar
    30     9     5   ar
    31    12    13    1
@<TRIPOS>MOLECULE
*****
 28 31 0 0 0
SMALL
GASTEIGER

@<TRIPOS>ATOM
      1 C           3.7013   -0.2992   32.9435 C.ar    1  UNL1        0.0929
      2 C           4.0474    0.3078   34.2709 C.ar    1  UNL1        0.0467
      3 C           3.3905    1.5840   34.7061 C.ar    1  UNL1        0.1632
      4 C           2.3873    2.2534   33.8140 C.ar    1  UNL1        0.1205
      5 N           2.0413    1.6464   32.4867 N.ar    1  UNL1       -0.2669
      6 C           1.0974    2.0751   31.4025 C.ar    1  UNL1        0.2070
      7 N           1.1711    1.0637   30.2972 N.ar    1  UNL1       -0.1252
      8 N           2.1604    0.0100   30.6983 N.ar    1  UNL1       -0.1281
      9 C           2.6982    0.3701   32.0514 C.ar    1  UNL1        0.1750
     10 O           3.9233   -2.8831   33.1011 O.2     1  UNL1       -0.2697
     11 C           4.3583   -1.5755   32.5083 C.2     1  UNL1        0.2536
     12 N           5.4502   -1.5444   31.4804 N.am    1  UNL1       -0.2657
     13 H           5.7357   -0.6863   31.0913 H       1  UNL1        0.1566
     14 C           6.1071   -2.8208   31.0452 C.ar    1  UNL1        0.1345
     15 C           6.6301   -3.7825   32.0706 C.ar    1  UNL1        0.0368
     16 C           7.2871   -5.0589   31.6356 C.ar    1  UNL1        0.0341
     17 C           7.4210   -5.3736   30.1751 C.ar    1  UNL1        0.1593
     18 F           8.0779   -6.6499   29.7400 F       1  UNL1       -0.2025
     19 C           6.8980   -4.4117   29.1497 C.ar    1  UNL1        0.1298
     20 N           6.2411   -3.1354   29.5847 N.ar    1  UNL1       -0.2267
     21 O           3.7366    2.1910   36.0335 O.3     1  UNL1       -0.4503
     22 C           2.7447    2.1509   37.1580 C.ar    1  UNL1        0.1667
     23 C           1.7867    3.2884   37.3539 C.ar    1  UNL1        0.1364
     24 N           0.7948    3.2483   38.4785 N.ar    1  UNL1       -0.2368
     25 C           0.7608    2.0708   39.4070 C.ar    1  UNL1        0.1286
     26 C           1.7188    0.9333   39.2111 C.ar    1  UNL1        0.1623
     27 F           1.6850   -0.2443   40.1396 F       1  UNL1       -0.2024
     28 C           2.7107    0.9734   38.0865 C.ar    1  UNL1        0.0703
@<TRIPOS>BOND
     1    10    11    2
     2    11    12   am
     3    12    14    1
     4    14    15   ar
     5    15    16   ar
     6    16    17   ar
     7    17    18    1
     8    17    19   ar
     9    19    20   ar
    10    11     1    1
    11     1     2   ar
    12     2     3   ar
    13     3    21    1
    14    21    22    1
    15    22    23   ar
    16    23    24   ar
    17    24    25   ar
    18    25    26   ar
    19    26    27    1
    20    26    28   ar
    21     3     4   ar
    22     4     5   ar
    23     5     6   ar
    24     6     7   ar
    25     7     8   ar
    26     8     9   ar
    27    20    14   ar
    28     9     1   ar
    29    28    22   ar
    30     9     5   ar
    31    12    13    1
@<TRIPOS>MOLECULE
*****
 28 31 0 0 0
SMALL
GASTEIGER

@<TRIPOS>ATOM
      1 C          -7.6692  -17.8748   21.9152 C.ar    1  UNL1        0.0929
      2 C          -6.4558  -18.6622   21.5183 C.ar    1  UNL1        0.0467
      3 C          -6.5460  -19.6732   20.4139 C.ar    1  UNL1        0.1632
      4 C          -7.8497  -19.8969   19.7064 C.ar    1  UNL1        0.1205
      5 N          -9.0631  -19.1095   20.1034 N.ar    1  UNL1       -0.2669
      6 C         -10.4731  -19.1124   19.5916 C.ar    1  UNL1        0.2070
      7 N         -11.2543  -18.1032   20.3798 N.ar    1  UNL1       -0.1252
      8 N         -10.3271  -17.4765   21.3786 N.ar    1  UNL1       -0.1281
      9 C          -8.9729  -18.0985   21.2078 C.ar    1  UNL1        0.1750
     10 O          -7.6679  -15.3997   22.7053 O.2     1  UNL1       -0.2697
     11 C          -7.5790  -16.8638   23.0196 C.2     1  UNL1        0.2536
     12 N          -7.3999  -17.3167   24.4383 N.am    1  UNL1       -0.2657
     13 H          -7.3415  -18.2776   24.6447 H       1  UNL1        0.1566
     14 C          -7.3096  -16.3056   25.5427 C.ar    1  UNL1        0.1345
     15 C          -8.4992  -16.0426   26.4177 C.ar    1  UNL1        0.0368
     16 C          -8.4091  -15.0316   27.5221 C.ar    1  UNL1        0.0341
     17 C          -7.1294  -14.2834   27.7514 C.ar    1  UNL1        0.1593
     18 F          -7.0392  -13.2724   28.8557 F       1  UNL1       -0.2025
     19 C          -5.9398  -14.5465   26.8763 C.ar    1  UNL1        0.1298
     20 N          -6.0299  -15.5575   25.7720 N.ar    1  UNL1       -0.2267
     21 O          -5.3325  -20.4606   20.0169 O.3     1  UNL1       -0.4503
     22 C          -3.9733  -19.8300   20.0871 C.ar    1  UNL1        0.1667
     23 C          -3.0787  -20.1047   21.2594 C.ar    1  UNL1        0.1364
     24 N          -1.7195  -19.4741   21.3296 N.ar    1  UNL1       -0.2368
     25 C          -1.2548  -18.5689   20.2275 C.ar    1  UNL1        0.1286
     26 C          -2.1494  -18.2943   19.0552 C.ar    1  UNL1        0.1623
     27 F          -1.6848  -17.3890   17.9530 F       1  UNL1       -0.2024
     28 C          -3.5086  -18.9248   18.9850 C.ar    1  UNL1        0.0703
@<TRIPOS>BOND
     1    10    11    2
     2    11    12   am
     3    12    14    1
     4    14    15   ar
     5    15    16   ar
     6    16    17   ar
     7    17    18    1
     8    17    19   ar
     9    19    20   ar
    10    11     1    1
    11     1     2   ar
    12     2     3   ar
    13     3    21    1
    14    21    22    1
    15    22    23   ar
    16    23    24   ar
    17    24    25   ar
    18    25    26   ar
    19    26    27    1
    20    26    28   ar
    21     3     4   ar
    22     4     5   ar
    23     5     6   ar
    24     6     7   ar
    25     7     8   ar
    26     8     9   ar
    27    20    14   ar
    28     9     1   ar
    29    28    22   ar
    30     9     5   ar
    31    12    13    1
@<TRIPOS>MOLECULE
*****
 28 31 0 0 0
SMALL
GASTEIGER

@<TRIPOS>ATOM
      1 C           0.6571    1.9663   22.5645 C.ar    1  UNL1        0.0929
      2 C           0.8828    2.2427   24.0214 C.ar    1  UNL1        0.0467
      3 C          -0.1366    3.0151   24.8049 C.ar    1  UNL1        0.1632
      4 C          -1.3819    3.5111   24.1316 C.ar    1  UNL1        0.1205
      5 N          -1.6077    3.2346   22.6747 N.ar    1  UNL1       -0.2669
      6 C          -2.7304    3.5938   21.7472 C.ar    1  UNL1        0.2070
      7 N          -2.4048    3.0434   20.3903 N.ar    1  UNL1       -0.1252
      8 N          -1.0808    2.3440   20.4793 N.ar    1  UNL1       -0.1281
      9 C          -0.5881    2.4622   21.8911 C.ar    1  UNL1        0.1750
     10 O           3.1299    1.2916   22.1397 O.2     1  UNL1       -0.2697
     11 C           1.6767    1.1939   21.7809 C.2     1  UNL1        0.2536
     12 N           1.2430    0.3238   20.6386 N.am    1  UNL1       -0.2657
     13 H           0.2893    0.2597   20.4031 H       1  UNL1        0.1566
     14 C           2.2627   -0.4486   19.8551 C.ar    1  UNL1        0.1345
     15 C           2.6927    0.0353   18.5020 C.ar    1  UNL1        0.0368
     16 C           3.7123   -0.7369   17.7184 C.ar    1  UNL1        0.0341
     17 C           4.3019   -1.9931   18.2879 C.ar    1  UNL1        0.1593
     18 F           5.3214   -2.7654   17.5044 F       1  UNL1       -0.2025
     19 C           3.8718   -2.4770   19.6411 C.ar    1  UNL1        0.1298
     20 N           2.8522   -1.7047   20.4246 N.ar    1  UNL1       -0.2267
     21 O           0.0891    3.2916   26.2619 O.3     1  UNL1       -0.4503
     22 C           0.2534    2.1531   27.2247 C.ar    1  UNL1        0.1667
     23 C           1.6194    1.7815   27.7208 C.ar    1  UNL1        0.1364
     24 N           1.7836    0.6430   28.6835 N.ar    1  UNL1       -0.2368
     25 C           0.5820   -0.1239   29.1502 C.ar    1  UNL1        0.1286
     26 C          -0.7840    0.2477   28.6541 C.ar    1  UNL1        0.1623
     27 F          -1.9858   -0.5192   29.1208 F       1  UNL1       -0.2024
     28 C          -0.9483    1.3862   27.6914 C.ar    1  UNL1        0.0703
@<TRIPOS>BOND
     1    10    11    2
     2    11    12   am
     3    12    14    1
     4    14    15   ar
     5    15    16   ar
     6    16    17   ar
     7    17    18    1
     8    17    19   ar
     9    19    20   ar
    10    11     1    1
    11     1     2   ar
    12     2     3   ar
    13     3    21    1
    14    21    22    1
    15    22    23   ar
    16    23    24   ar
    17    24    25   ar
    18    25    26   ar
    19    26    27    1
    20    26    28   ar
    21     3     4   ar
    22     4     5   ar
    23     5     6   ar
    24     6     7   ar
    25     7     8   ar
    26     8     9   ar
    27    20    14   ar
    28     9     1   ar
    29    28    22   ar
    30     9     5   ar
    31    12    13    1
@<TRIPOS>MOLECULE
*****
 28 31 0 0 0
SMALL
GASTEIGER

@<TRIPOS>ATOM
      1 C          -6.7384  -18.3274   22.0043 C.ar    1  UNL1        0.0929
      2 C          -8.1231  -18.4112   21.4337 C.ar    1  UNL1        0.0467
      3 C          -8.3949  -19.2929   20.2512 C.ar    1  UNL1        0.1632
      4 C          -7.2819  -20.0909   19.6390 C.ar    1  UNL1        0.1205
      5 N          -5.8972  -20.0071   20.2096 N.ar    1  UNL1       -0.2669
      6 C          -4.6098  -20.6718   19.8213 C.ar    1  UNL1        0.2070
      7 N          -3.5424  -20.2008   20.7640 N.ar    1  UNL1       -0.1252
      8 N          -4.1700  -19.2451   21.7349 N.ar    1  UNL1       -0.1281
      9 C          -5.6255  -19.1254   21.3922 C.ar    1  UNL1        0.1750
     10 O          -5.0630  -17.0151   23.4947 O.2     1  UNL1       -0.2697
     11 C          -6.4666  -17.4456   23.1869 C.2     1  UNL1        0.2536
     12 N          -7.5984  -16.9944   24.0619 N.am    1  UNL1       -0.2657
     13 H          -8.5196  -17.2769   23.8599 H       1  UNL1        0.1566
     14 C          -7.3265  -16.1126   25.2445 C.ar    1  UNL1        0.1345
     15 C          -8.3724  -15.9371   26.3053 C.ar    1  UNL1        0.0368
     16 C          -8.1006  -15.0553   27.4879 C.ar    1  UNL1        0.0341
     17 C          -6.7829  -14.3491   27.6098 C.ar    1  UNL1        0.1593
     18 F          -6.5111  -13.4674   28.7924 F       1  UNL1       -0.2025
     19 C          -5.7370  -14.5247   26.5490 C.ar    1  UNL1        0.1298
     20 N          -6.0088  -15.4064   25.3664 N.ar    1  UNL1       -0.2267
     21 O          -9.7797  -19.3767   19.6806 O.3     1  UNL1       -0.4503
     22 C         -10.8647  -18.4874   20.2115 C.ar    1  UNL1        0.1667
     23 C         -11.2319  -17.2320   19.4773 C.ar    1  UNL1        0.1364
     24 N         -12.3169  -16.3427   20.0083 N.ar    1  UNL1       -0.2368
     25 C         -13.0347  -16.7089   21.2735 C.ar    1  UNL1        0.1286
     26 C         -12.6675  -17.9643   22.0077 C.ar    1  UNL1        0.1623
     27 F         -13.3852  -18.3305   23.2730 F       1  UNL1       -0.2024
     28 C         -11.5825  -18.8535   21.4767 C.ar    1  UNL1        0.0703
@<TRIPOS>BOND
     1    10    11    2
     2    11    12   am
     3    12    14    1
     4    14    15   ar
     5    15    16   ar
     6    16    17   ar
     7    17    18    1
     8    17    19   ar
     9    19    20   ar
    10    11     1    1
    11     1     2   ar
    12     2     3   ar
    13     3    21    1
    14    21    22    1
    15    22    23   ar
    16    23    24   ar
    17    24    25   ar
    18    25    26   ar
    19    26    27    1
    20    26    28   ar
    21     3     4   ar
    22     4     5   ar
    23     5     6   ar
    24     6     7   ar
    25     7     8   ar
    26     8     9   ar
    27    20    14   ar
    28     9     1   ar
    29    28    22   ar
    30     9     5   ar
    31    12    13    1
@<TRIPOS>MOLECULE
*****
 28 31 0 0 0
SMALL
GASTEIGER

@<TRIPOS>ATOM
      1 C          -7.7317  -18.6933   20.5021 C.ar    1  UNL1        0.0929
      2 C          -8.6833  -17.8336   21.2802 C.ar    1  UNL1        0.0467
      3 C         -10.1617  -17.9671   21.0654 C.ar    1  UNL1        0.1632
      4 C         -10.6888  -18.9605   20.0726 C.ar    1  UNL1        0.1205
      5 N          -9.7372  -19.8202   19.2946 N.ar    1  UNL1       -0.2669
      6 C          -9.9610  -20.8790   18.2559 C.ar    1  UNL1        0.2070
      7 N          -8.6207  -21.3997   17.8287 N.ar    1  UNL1       -0.1252
      8 N          -7.5686  -20.6629   18.6033 N.ar    1  UNL1       -0.1281
      9 C          -8.2587  -19.6866   19.5093 C.ar    1  UNL1        0.1750
     10 O          -5.7183  -18.2587   22.0856 O.2     1  UNL1       -0.2697
     11 C          -6.2532  -18.5598   20.7169 C.2     1  UNL1        0.2536
     12 N          -5.3095  -18.7273   19.5630 N.am    1  UNL1       -0.2657
     13 H          -5.6606  -18.9249   18.6647 H       1  UNL1        0.1566
     14 C          -3.8310  -18.5937   19.7779 C.ar    1  UNL1        0.1345
     15 C          -3.1097  -19.5713   20.6576 C.ar    1  UNL1        0.0368
     16 C          -1.6311  -19.4378   20.8725 C.ar    1  UNL1        0.0341
     17 C          -0.8739  -18.3267   20.2077 C.ar    1  UNL1        0.1593
     18 F           0.6045  -18.1932   20.4226 F       1  UNL1       -0.2025
     19 C          -1.5954  -17.3490   19.3279 C.ar    1  UNL1        0.1298
     20 N          -3.0738  -17.4825   19.1131 N.ar    1  UNL1       -0.2267
     21 O         -11.1133  -17.1073   21.8435 O.3     1  UNL1       -0.4503
     22 C         -11.8529  -17.6790   23.0167 C.ar    1  UNL1        0.1667
     23 C         -11.0925  -18.2546   24.1745 C.ar    1  UNL1        0.1364
     24 N         -11.8321  -18.8263   25.3476 N.ar    1  UNL1       -0.2368
     25 C         -13.3320  -18.8224   25.3629 C.ar    1  UNL1        0.1286
     26 C         -14.0924  -18.2468   24.2051 C.ar    1  UNL1        0.1623
     27 F         -15.5923  -18.2428   24.2203 F       1  UNL1       -0.2024
     28 C         -13.3528  -17.6751   23.0320 C.ar    1  UNL1        0.0703
@<TRIPOS>BOND
     1    10    11    2
     2    11    12   am
     3    12    14    1
     4    14    15   ar
     5    15    16   ar
     6    16    17   ar
     7    17    18    1
     8    17    19   ar
     9    19    20   ar
    10    11     1    1
    11     1     2   ar
    12     2     3   ar
    13     3    21    1
    14    21    22    1
    15    22    23   ar
    16    23    24   ar
    17    24    25   ar
    18    25    26   ar
    19    26    27    1
    20    26    28   ar
    21     3     4   ar
    22     4     5   ar
    23     5     6   ar
    24     6     7   ar
    25     7     8   ar
    26     8     9   ar
    27    20    14   ar
    28     9     1   ar
    29    28    22   ar
    30     9     5   ar
    31    12    13    1
