@<TRIPOS>MOLECULE
*****
 31 34 0 0 0
SMALL
GASTEIGER

@<TRIPOS>ATOM
      1 C          -9.4714  -19.4322   23.0494 C.3     1  UNL1        0.0333
      2 C          -9.1532  -18.1546   22.3307 C.3     1  UNL1        0.0071
      3 C          -7.7659  -17.9092   21.8159 C.3     1  UNL1        0.0202
      4 C          -6.6967  -18.9412   22.0198 C.3     1  UNL1        0.0758
      5 C          -7.0148  -20.2188   22.7386 C.3     1  UNL1        0.0202
      6 C          -8.4022  -20.4643   23.2534 C.3     1  UNL1        0.0071
      7 N          -5.3093  -18.6958   21.5050 N.am    1  UNL1       -0.2732
      8 C          -4.2042  -18.3552   22.4602 C.3     1  UNL1        0.1182
      9 C          -2.8169  -18.1097   21.9455 C.3     1  UNL1        0.1305
     10 N          -2.5347  -18.2048   20.4753 N.ar    1  UNL1       -0.2867
     11 C          -3.6398  -18.5454   19.5200 C.ar    1  UNL1        0.2205
     12 N          -3.0646  -18.5682   18.1348 N.ar    1  UNL1       -0.1240
     13 N          -1.6040  -18.2416   18.2341 N.ar    1  UNL1       -0.1245
     14 C          -1.2764  -18.0170   19.6806 C.ar    1  UNL1        0.2386
     15 C          -5.0271  -18.7909   20.0348 C.2     1  UNL1        0.2852
     16 O          -6.1324  -19.1315   19.0795 O.2     1  UNL1       -0.2665
     17 C           0.0725  -17.6663   20.2350 C.3     1  UNL1        0.4524
     18 F           1.4214  -17.3155   20.7894 F       1  UNL1       -0.1632
     19 F           0.5921  -19.0112   19.8216 F       1  UNL1       -0.1632
     20 F          -0.4472  -16.3213   20.6484 F       1  UNL1       -0.1632
     21 C         -10.8128  -18.7630   23.1013 C.ar    1  UNL1       -0.0207
     22 C         -11.2599  -17.8902   21.9662 C.ar    1  UNL1       -0.0042
     23 C         -12.6013  -17.2210   22.0180 C.ar    1  UNL1        0.0005
     24 C         -13.4957  -17.4245   23.2049 C.ar    1  UNL1        0.0114
     25 C         -13.0486  -18.2973   24.3399 C.ar    1  UNL1        0.0574
     26 CL        -13.9429  -18.5009   25.5268 Cl      1  UNL1       -0.0823
     27 C         -11.7072  -18.9665   24.2881 C.ar    1  UNL1        0.0072
     28 N          -9.6322  -21.2097   24.9373 N.3     1  UNL1       -0.3209
     29 C         -10.2554  -20.4774   23.7862 C.3     1  UNL1        0.0691
     30 H         -10.3020  -21.8784   25.3176 H       1  UNL1        0.1189
     31 H          -9.3690  -20.5424   25.6624 H       1  UNL1        0.1189
@<TRIPOS>BOND
     1    28    29    1
     2     1    29    1
     3     1    21    1
     4    21    22   ar
     5    22    23   ar
     6    23    24   ar
     7    24    25   ar
     8    25    26    1
     9    25    27   ar
    10     1     2    1
    11     2     3    1
    12     3     4    1
    13     4     7    1
    14     7     8    1
    15     8     9    1
    16     9    10    1
    17    10    11   ar
    18    11    12   ar
    19    12    13   ar
    20    13    14   ar
    21    14    17    1
    22    17    18    1
    23    17    19    1
    24    17    20    1
    25    11    15    1
    26    15    16    2
    27     4     5    1
    28     5     6    1
    29     6     1    1
    30    27    21   ar
    31    15     7   am
    32    14    10   ar
    33    28    30    1
    34    28    31    1
@<TRIPOS>MOLECULE
*****
 31 34 0 0 0
SMALL
GASTEIGER

@<TRIPOS>ATOM
      1 C           7.3956   -4.1768   22.0957 C.3     1  UNL1        0.0333
      2 C           6.2263   -3.4771   22.7228 C.3     1  UNL1        0.0071
      3 C           6.1181   -3.3886   24.2163 C.3     1  UNL1        0.0202
      4 C           7.1791   -3.9999   25.0826 C.3     1  UNL1        0.0758
      5 C           8.3484   -4.6996   24.4555 C.3     1  UNL1        0.0202
      6 C           8.4566   -4.7881   22.9620 C.3     1  UNL1        0.0071
      7 N           7.0709   -3.9115   26.5762 N.am    1  UNL1       -0.2732
      8 C           6.9867   -2.5711   27.2439 C.3     1  UNL1        0.1182
      9 C           6.8785   -2.4826   28.7374 C.3     1  UNL1        0.1305
     10 N           6.8545   -3.7346   29.5631 N.ar    1  UNL1       -0.2867
     11 C           6.9388   -5.0752   28.8953 C.ar    1  UNL1        0.2205
     12 N           6.8923   -6.1284   29.9623 N.ar    1  UNL1       -0.1240
     13 N           6.7793   -5.4388   31.2896 N.ar    1  UNL1       -0.1245
     14 C           6.7559   -3.9594   31.0429 C.ar    1  UNL1        0.2386
     15 C           7.0470   -5.1636   27.4018 C.2     1  UNL1        0.2852
     16 O           7.1313   -6.5041   26.7339 O.2     1  UNL1       -0.2665
     17 C           6.6522   -2.8921   32.0918 C.3     1  UNL1        0.4524
     18 F           6.5485   -1.8249   33.1407 F       1  UNL1       -0.1632
     19 F           8.0881   -3.1172   32.4627 F       1  UNL1       -0.1632
     20 F           5.2164   -2.6670   31.7208 F       1  UNL1       -0.1632
     21 C           6.6507   -3.7580   20.8629 C.ar    1  UNL1       -0.0207
     22 C           7.2934   -2.8263   19.8785 C.ar    1  UNL1       -0.0042
     23 C           6.5486   -2.4074   18.6458 C.ar    1  UNL1        0.0005
     24 C           5.1611   -2.9202   18.3972 C.ar    1  UNL1        0.0114
     25 C           4.5184   -3.8519   19.3816 C.ar    1  UNL1        0.0574
     26 CL          3.1308   -4.3647   19.1331 Cl      1  UNL1       -0.0823
     27 C           5.2632   -4.2707   20.6144 C.ar    1  UNL1        0.0072
     28 N           8.6374   -6.1939   21.0286 N.3     1  UNL1       -0.3209
     29 C           8.3061   -4.7311   21.0404 C.3     1  UNL1        0.0691
     30 H           9.2639   -6.3944   20.2491 H       1  UNL1        0.1189
     31 H           7.7798   -6.7359   20.9236 H       1  UNL1        0.1189
@<TRIPOS>BOND
     1    28    29    1
     2     1    29    1
     3     1    21    1
     4    21    22   ar
     5    22    23   ar
     6    23    24   ar
     7    24    25   ar
     8    25    26    1
     9    25    27   ar
    10     1     2    1
    11     2     3    1
    12     3     4    1
    13     4     7    1
    14     7     8    1
    15     8     9    1
    16     9    10    1
    17    10    11   ar
    18    11    12   ar
    19    12    13   ar
    20    13    14   ar
    21    14    17    1
    22    17    18    1
    23    17    19    1
    24    17    20    1
    25    11    15    1
    26    15    16    2
    27     4     5    1
    28     5     6    1
    29     6     1    1
    30    27    21   ar
    31    15     7   am
    32    14    10   ar
    33    28    30    1
    34    28    31    1
@<TRIPOS>MOLECULE
*****
 31 34 0 0 0
SMALL
GASTEIGER

@<TRIPOS>ATOM
      1 C           6.6415   -3.5472   30.7908 C.3     1  UNL1        0.0333
      2 C           6.3703   -2.4658   29.7872 C.3     1  UNL1        0.0071
      3 C           5.5619   -1.2646   30.1790 C.3     1  UNL1        0.0202
      4 C           5.0247   -1.1448   31.5744 C.3     1  UNL1        0.0758
      5 C           5.2958   -2.2261   32.5779 C.3     1  UNL1        0.0202
      6 C           6.1043   -3.4274   32.1861 C.3     1  UNL1        0.0071
      7 N           4.2162    0.0565   31.9662 N.am    1  UNL1       -0.2732
      8 C           4.8125    1.1028   32.8603 C.3     1  UNL1        0.1182
      9 C           4.0041    2.3040   33.2521 C.3     1  UNL1        0.1305
     10 N           2.5993    2.4589   32.7498 N.ar    1  UNL1       -0.2867
     11 C           2.0028    1.4126   31.8556 C.ar    1  UNL1        0.2205
     12 N           0.6032    1.8339   31.5185 N.ar    1  UNL1       -0.1240
     13 N           0.3347    3.1405   32.2044 N.ar    1  UNL1       -0.1245
     14 C           1.5683    3.5268   32.9654 C.ar    1  UNL1        0.2386
     15 C           2.8113    0.2114   31.4638 C.2     1  UNL1        0.2852
     16 O           2.2149   -0.8350   30.5696 O.2     1  UNL1       -0.2665
     17 C           1.7406    4.7639   33.7961 C.3     1  UNL1        0.4524
     18 F           1.9129    6.0009   34.6267 F       1  UNL1       -0.1632
     19 F           1.4330    3.9752   35.0343 F       1  UNL1       -0.1632
     20 F           2.0482    5.5525   32.5578 F       1  UNL1       -0.1632
     21 C           7.3595   -4.1104   29.6003 C.ar    1  UNL1       -0.0207
     22 C           8.7653   -3.6816   29.3004 C.ar    1  UNL1       -0.0042
     23 C           9.4834   -4.2448   28.1099 C.ar    1  UNL1        0.0005
     24 C           8.7958   -5.2368   27.2194 C.ar    1  UNL1        0.0114
     25 C           7.3900   -5.6656   27.5194 C.ar    1  UNL1        0.0574
     26 CL          6.7023   -6.6576   26.6289 Cl      1  UNL1       -0.0823
     27 C           6.6720   -5.1024   28.7098 C.ar    1  UNL1        0.0072
     28 N           6.3867   -5.5236   32.4576 N.3     1  UNL1       -0.3209
     29 C           7.1621   -4.8242   31.3809 C.3     1  UNL1        0.0691
     30 H           6.8833   -6.3686   32.7400 H       1  UNL1        0.1189
     31 H           5.4634   -5.7740   32.1037 H       1  UNL1        0.1189
@<TRIPOS>BOND
     1    28    29    1
     2     1    29    1
     3     1    21    1
     4    21    22   ar
     5    22    23   ar
     6    23    24   ar
     7    24    25   ar
     8    25    26    1
     9    25    27   ar
    10     1     2    1
    11     2     3    1
    12     3     4    1
    13     4     7    1
    14     7     8    1
    15     8     9    1
    16     9    10    1
    17    10    11   ar
    18    11    12   ar
    19    12    13   ar
    20    13    14   ar
    21    14    17    1
    22    17    18    1
    23    17    19    1
    24    17    20    1
    25    11    15    1
    26    15    16    2
    27     4     5    1
    28     5     6    1
    29     6     1    1
    30    27    21   ar
    31    15     7   am
    32    14    10   ar
    33    28    30    1
    34    28    31    1
@<TRIPOS>MOLECULE
*****
 31 34 0 0 0
SMALL
GASTEIGER

@<TRIPOS>ATOM
      1 C           3.2749   -0.6997   18.9037 C.3     1  UNL1        0.0333
      2 C           2.5839   -1.1236   20.1657 C.3     1  UNL1        0.0071
      3 C           1.5190   -0.2543   20.7660 C.3     1  UNL1        0.0202
      4 C           1.1451    1.0388   20.1043 C.3     1  UNL1        0.0758
      5 C           1.8362    1.4627   18.8422 C.3     1  UNL1        0.0202
      6 C           2.9011    0.5935   18.2419 C.3     1  UNL1        0.0071
      7 N           0.0802    1.9082   20.7046 N.am    1  UNL1       -0.2732
      8 C          -1.0776    2.3628   19.8664 C.3     1  UNL1        0.1182
      9 C          -2.1425    3.2321   20.4666 C.3     1  UNL1        0.1305
     10 N          -2.0496    3.6467   21.9052 N.ar    1  UNL1       -0.2867
     11 C          -0.8917    3.1920   22.7435 C.ar    1  UNL1        0.2205
     12 N          -1.0676    3.7565   24.1220 N.ar    1  UNL1       -0.1240
     13 N          -2.3341    4.5600   24.1357 N.ar    1  UNL1       -0.1245
     14 C          -2.9410    4.4922   22.7657 C.ar    1  UNL1        0.2386
     15 C           0.1732    2.3228   22.1432 C.2     1  UNL1        0.2852
     16 O           1.3311    1.8681   22.9814 O.2     1  UNL1       -0.2665
     17 C          -4.2156    5.1537   22.3322 C.3     1  UNL1        0.4524
     18 F          -5.4902    5.8151   21.8988 F       1  UNL1       -0.1632
     19 F          -4.8984    3.8184   22.3023 F       1  UNL1       -0.1632
     20 F          -3.5328    6.4889   22.3621 F       1  UNL1       -0.1632
     21 C           3.9729   -2.0028   19.1579 C.ar    1  UNL1       -0.0207
     22 C           3.2085   -3.2910   19.0783 C.ar    1  UNL1       -0.0042
     23 C           3.9064   -4.5942   19.3325 C.ar    1  UNL1        0.0005
     24 C           5.3687   -4.6093   19.6663 C.ar    1  UNL1        0.0114
     25 C           6.1331   -3.3211   19.7458 C.ar    1  UNL1        0.0574
     26 CL          7.5954   -3.3361   20.0796 Cl      1  UNL1       -0.0823
     27 C           5.4352   -2.0179   19.4916 C.ar    1  UNL1        0.0072
     28 N           3.7043   -1.1477   16.3809 N.3     1  UNL1       -0.3209
     29 C           4.2084   -0.7284   17.7299 C.3     1  UNL1        0.0691
     30 H           4.4676   -1.1088   15.7055 H       1  UNL1        0.1189
     31 H           2.9574   -0.5186   16.0864 H       1  UNL1        0.1189
@<TRIPOS>BOND
     1    28    29    1
     2     1    29    1
     3     1    21    1
     4    21    22   ar
     5    22    23   ar
     6    23    24   ar
     7    24    25   ar
     8    25    26    1
     9    25    27   ar
    10     1     2    1
    11     2     3    1
    12     3     4    1
    13     4     7    1
    14     7     8    1
    15     8     9    1
    16     9    10    1
    17    10    11   ar
    18    11    12   ar
    19    12    13   ar
    20    13    14   ar
    21    14    17    1
    22    17    18    1
    23    17    19    1
    24    17    20    1
    25    11    15    1
    26    15    16    2
    27     4     5    1
    28     5     6    1
    29     6     1    1
    30    27    21   ar
    31    15     7   am
    32    14    10   ar
    33    28    30    1
    34    28    31    1
@<TRIPOS>MOLECULE
*****
 31 34 0 0 0
SMALL
GASTEIGER

@<TRIPOS>ATOM
      1 C           7.2770   -1.5268   32.6087 C.3     1  UNL1        0.0333
      2 C           5.8362   -1.9346   32.6959 C.3     1  UNL1        0.0071
      3 C           4.9152   -1.2349   33.6511 C.3     1  UNL1        0.0202
      4 C           5.4352   -0.1275   34.5190 C.3     1  UNL1        0.0758
      5 C           6.8760    0.2803   34.4317 C.3     1  UNL1        0.0202
      6 C           7.7970   -0.4194   33.4765 C.3     1  UNL1        0.0071
      7 N           4.5142    0.5722   35.4742 N.am    1  UNL1       -0.2732
      8 C           4.3891    0.0859   36.8876 C.3     1  UNL1        0.1182
      9 C           3.4681    0.7855   37.8427 C.3     1  UNL1        0.1305
     10 N           2.6723    1.9716   37.3845 N.ar    1  UNL1       -0.2867
     11 C           2.7975    2.4579   35.9710 C.ar    1  UNL1        0.2205
     12 N           1.8935    3.6437   35.8071 N.ar    1  UNL1       -0.1240
     13 N           1.2097    3.8901   37.1192 N.ar    1  UNL1       -0.1245
     14 C           1.6910    2.8567   38.0941 C.ar    1  UNL1        0.2386
     15 C           3.7184    1.7583   35.0159 C.2     1  UNL1        0.2852
     16 O           3.8435    2.2446   33.6024 O.2     1  UNL1       -0.2665
     17 C           1.2657    2.7306   39.5270 C.3     1  UNL1        0.4524
     18 F           0.8404    2.6045   40.9599 F       1  UNL1       -0.1632
     19 F           2.5889    3.2825   39.9683 F       1  UNL1       -0.1632
     20 F          -0.0574    2.1787   39.0857 F       1  UNL1       -0.1632
     21 C           7.2547   -2.6251   31.5873 C.ar    1  UNL1       -0.0207
     22 C           6.5426   -2.4218   30.2828 C.ar    1  UNL1       -0.0042
     23 C           6.5202   -3.5200   29.2614 C.ar    1  UNL1        0.0005
     24 C           7.2100   -4.8216   29.5443 C.ar    1  UNL1        0.0114
     25 C           7.9221   -5.0249   30.8487 C.ar    1  UNL1        0.0574
     26 CL          8.6119   -6.3265   31.1318 Cl      1  UNL1       -0.0823
     27 C           7.9444   -3.9266   31.8702 C.ar    1  UNL1        0.0072
     28 N           9.2358   -0.3260   31.3959 N.3     1  UNL1       -0.3209
     29 C           8.7102   -1.5005   32.1666 C.3     1  UNL1        0.0691
     30 H          10.2213   -0.4750   31.1793 H       1  UNL1        0.1189
     31 H           9.1350    0.5207   31.9557 H       1  UNL1        0.1189
@<TRIPOS>BOND
     1    28    29    1
     2     1    29    1
     3     1    21    1
     4    21    22   ar
     5    22    23   ar
     6    23    24   ar
     7    24    25   ar
     8    25    26    1
     9    25    27   ar
    10     1     2    1
    11     2     3    1
    12     3     4    1
    13     4     7    1
    14     7     8    1
    15     8     9    1
    16     9    10    1
    17    10    11   ar
    18    11    12   ar
    19    12    13   ar
    20    13    14   ar
    21    14    17    1
    22    17    18    1
    23    17    19    1
    24    17    20    1
    25    11    15    1
    26    15    16    2
    27     4     5    1
    28     5     6    1
    29     6     1    1
    30    27    21   ar
    31    15     7   am
    32    14    10   ar
    33    28    30    1
    34    28    31    1
@<TRIPOS>MOLECULE
*****
 31 34 0 0 0
SMALL
GASTEIGER

@<TRIPOS>ATOM
      1 C           3.3199   -0.7555   18.8301 C.3     1  UNL1        0.0333
      2 C           2.5060   -1.0953   20.0433 C.3     1  UNL1        0.0071
      3 C           1.4578   -0.1414   20.5345 C.3     1  UNL1        0.0202
      4 C           1.2235    1.1523   19.8124 C.3     1  UNL1        0.0758
      5 C           2.0375    1.4921   18.5992 C.3     1  UNL1        0.0202
      6 C           3.0857    0.5382   18.1080 C.3     1  UNL1        0.0071
      7 N           0.1752    2.1063   20.3036 N.am    1  UNL1       -0.2732
      8 C          -0.1082    2.2179   21.7723 C.3     1  UNL1        0.1182
      9 C          -1.1564    3.1718   22.2635 C.3     1  UNL1        0.1305
     10 N          -1.9212    4.0141   21.2859 N.ar    1  UNL1       -0.2867
     11 C          -1.6377    3.9025   19.8171 C.ar    1  UNL1        0.2205
     12 N          -2.5456    4.8543   19.0962 N.ar    1  UNL1       -0.1240
     13 N          -3.3902    5.5542   20.1193 N.ar    1  UNL1       -0.1245
     14 C          -3.0043    5.0349   21.4727 C.ar    1  UNL1        0.2386
     15 C          -0.5895    2.9486   19.3260 C.2     1  UNL1        0.2852
     16 O          -0.3060    2.8369   17.8572 O.2     1  UNL1       -0.2665
     17 C          -3.5973    5.4616   22.7827 C.3     1  UNL1        0.4524
     18 F          -4.1904    5.8883   24.0928 F       1  UNL1       -0.1632
     19 F          -2.4964    6.4659   22.9540 F       1  UNL1       -0.1632
     20 F          -4.6983    4.4573   22.6114 F       1  UNL1       -0.1632
     21 C           3.9077   -2.0925   19.1721 C.ar    1  UNL1       -0.0207
     22 C           3.0832   -3.3360   19.0173 C.ar    1  UNL1       -0.0042
     23 C           3.6709   -4.6730   19.3593 C.ar    1  UNL1        0.0005
     24 C           5.0831   -4.7666   19.8562 C.ar    1  UNL1        0.0114
     25 C           5.9075   -3.5231   20.0111 C.ar    1  UNL1        0.0574
     26 CL          7.3198   -3.6166   20.5080 Cl      1  UNL1       -0.0823
     27 C           5.3198   -2.1861   19.6690 C.ar    1  UNL1        0.0072
     28 N           3.9110   -1.2887   16.3570 N.3     1  UNL1       -0.3209
     29 C           4.3381   -0.8801   17.7356 C.3     1  UNL1        0.0691
     30 H           4.7260   -1.3223   15.7446 H       1  UNL1        0.1189
     31 H           3.2405   -0.6111   15.9940 H       1  UNL1        0.1189
@<TRIPOS>BOND
     1    28    29    1
     2     1    29    1
     3     1    21    1
     4    21    22   ar
     5    22    23   ar
     6    23    24   ar
     7    24    25   ar
     8    25    26    1
     9    25    27   ar
    10     1     2    1
    11     2     3    1
    12     3     4    1
    13     4     7    1
    14     7     8    1
    15     8     9    1
    16     9    10    1
    17    10    11   ar
    18    11    12   ar
    19    12    13   ar
    20    13    14   ar
    21    14    17    1
    22    17    18    1
    23    17    19    1
    24    17    20    1
    25    11    15    1
    26    15    16    2
    27     4     5    1
    28     5     6    1
    29     6     1    1
    30    27    21   ar
    31    15     7   am
    32    14    10   ar
    33    28    30    1
    34    28    31    1
@<TRIPOS>MOLECULE
*****
 31 34 0 0 0
SMALL
GASTEIGER

@<TRIPOS>ATOM
      1 C           7.1372   -1.9709   31.9789 C.3     1  UNL1        0.0333
      2 C           5.7191   -2.3644   32.2687 C.3     1  UNL1        0.0071
      3 C           4.8874   -1.5375   33.2038 C.3     1  UNL1        0.0202
      4 C           5.4739   -0.3170   33.8492 C.3     1  UNL1        0.0758
      5 C           6.8920    0.0765   33.5594 C.3     1  UNL1        0.0202
      6 C           7.7237   -0.7504   32.6243 C.3     1  UNL1        0.0071
      7 N           4.6422    0.5100   34.7844 N.am    1  UNL1       -0.2732
      8 C           3.6213    1.4628   34.2369 C.3     1  UNL1        0.1182
      9 C           2.7897    2.2897   35.1720 C.3     1  UNL1        0.1305
     10 N           2.9789    2.1638   36.6547 N.ar    1  UNL1       -0.2867
     11 C           3.9997    1.2109   37.2022 C.ar    1  UNL1        0.2205
     12 N           3.9625    1.3013   38.6990 N.ar    1  UNL1       -0.1240
     13 N           2.9185    2.3101   39.0766 N.ar    1  UNL1       -0.1245
     14 C           2.3106    2.8431   37.8131 C.ar    1  UNL1        0.2386
     15 C           4.8314    0.3839   36.2671 C.2     1  UNL1        0.2852
     16 O           5.8523   -0.5690   36.8146 O.2     1  UNL1       -0.2665
     17 C           1.2251    3.8745   37.7238 C.3     1  UNL1        0.4524
     18 F           0.1396    4.9058   37.6345 F       1  UNL1       -0.1632
     19 F           0.3078    2.9761   38.4994 F       1  UNL1       -0.1632
     20 F           2.1424    4.7728   36.9482 F       1  UNL1       -0.1632
     21 C           7.0303   -3.2033   31.1306 C.ar    1  UNL1       -0.0207
     22 C           7.1250   -4.5600   31.7636 C.ar    1  UNL1       -0.0042
     23 C           7.0181   -5.7925   30.9154 C.ar    1  UNL1        0.0005
     24 C           6.8164   -5.6684   29.4342 C.ar    1  UNL1        0.0114
     25 C           6.7217   -4.3118   28.8013 C.ar    1  UNL1        0.0574
     26 CL          6.5200   -4.1876   27.3201 Cl      1  UNL1       -0.0823
     27 C           6.8286   -3.0793   29.6495 C.ar    1  UNL1        0.0072
     28 N           9.1618   -0.7380   30.9156 N.3     1  UNL1       -0.3209
     29 C           8.5183   -2.0054   31.3945 C.3     1  UNL1        0.0691
     30 H          10.0919   -0.9454   30.5517 H       1  UNL1        0.1189
     31 H           9.2393   -0.0814   31.6924 H       1  UNL1        0.1189
@<TRIPOS>BOND
     1    28    29    1
     2     1    29    1
     3     1    21    1
     4    21    22   ar
     5    22    23   ar
     6    23    24   ar
     7    24    25   ar
     8    25    26    1
     9    25    27   ar
    10     1     2    1
    11     2     3    1
    12     3     4    1
    13     4     7    1
    14     7     8    1
    15     8     9    1
    16     9    10    1
    17    10    11   ar
    18    11    12   ar
    19    12    13   ar
    20    13    14   ar
    21    14    17    1
    22    17    18    1
    23    17    19    1
    24    17    20    1
    25    11    15    1
    26    15    16    2
    27     4     5    1
    28     5     6    1
    29     6     1    1
    30    27    21   ar
    31    15     7   am
    32    14    10   ar
    33    28    30    1
    34    28    31    1
@<TRIPOS>MOLECULE
*****
 31 34 0 0 0
SMALL
GASTEIGER

@<TRIPOS>ATOM
      1 C           3.3627   -0.1759   19.3850 C.3     1  UNL1        0.0333
      2 C           2.0337   -0.5729   19.9560 C.3     1  UNL1        0.0071
      3 C           0.8549    0.3448   19.8206 C.3     1  UNL1        0.0202
      4 C           1.0051    1.6594   19.1142 C.3     1  UNL1        0.0758
      5 C           2.3342    2.0565   18.5432 C.3     1  UNL1        0.0202
      6 C           3.5130    1.1388   18.6786 C.3     1  UNL1        0.0071
      7 N          -0.1737    2.5772   18.9788 N.am    1  UNL1       -0.2732
      8 C          -0.4747    3.2216   17.6583 C.3     1  UNL1        0.1182
      9 C          -1.6535    4.1393   17.5229 C.3     1  UNL1        0.1305
     10 N          -2.5312    4.4125   18.7081 N.ar    1  UNL1       -0.2867
     11 C          -2.2302    3.7681   20.0288 C.ar    1  UNL1        0.2205
     12 N          -3.2664    4.2229   21.0134 N.ar    1  UNL1       -0.1240
     13 N          -4.2078    5.1484   20.3012 N.ar    1  UNL1       -0.1245
     14 C          -3.7535    5.2656   18.8765 C.ar    1  UNL1        0.2386
     15 C          -1.0515    2.8504   20.1642 C.2     1  UNL1        0.2852
     16 O          -0.7504    2.2060   21.4848 O.2     1  UNL1       -0.2665
     17 C          -4.4067    6.0910   17.8078 C.3     1  UNL1        0.4524
     18 F          -5.0599    6.9163   16.7392 F       1  UNL1       -0.1632
     19 F          -3.8501    7.3372   18.4301 F       1  UNL1       -0.1632
     20 F          -4.9633    4.8448   17.1856 F       1  UNL1       -0.1632
     21 C           3.7166   -1.5141   19.9628 C.ar    1  UNL1       -0.0207
     22 C           3.8467   -1.6790   21.4481 C.ar    1  UNL1       -0.0042
     23 C           4.2006   -3.0172   22.0260 C.ar    1  UNL1        0.0005
     24 C           4.4244   -4.1906   21.1187 C.ar    1  UNL1        0.0114
     25 C           4.2943   -4.0256   19.6335 C.ar    1  UNL1        0.0574
     26 CL          4.5181   -5.1989   18.7261 Cl      1  UNL1       -0.0823
     27 C           3.9404   -2.6874   19.0556 C.ar    1  UNL1        0.0072
     28 N           5.7650    0.8053   19.5111 N.3     1  UNL1       -0.3209
     29 C           4.8147   -0.2437   19.0147 C.3     1  UNL1        0.0691
     30 H           6.7035    0.6046   19.1657 H       1  UNL1        0.1189
     31 H           5.7705    0.8038   20.5311 H       1  UNL1        0.1189
@<TRIPOS>BOND
     1    28    29    1
     2     1    29    1
     3     1    21    1
     4    21    22   ar
     5    22    23   ar
     6    23    24   ar
     7    24    25   ar
     8    25    26    1
     9    25    27   ar
    10     1     2    1
    11     2     3    1
    12     3     4    1
    13     4     7    1
    14     7     8    1
    15     8     9    1
    16     9    10    1
    17    10    11   ar
    18    11    12   ar
    19    12    13   ar
    20    13    14   ar
    21    14    17    1
    22    17    18    1
    23    17    19    1
    24    17    20    1
    25    11    15    1
    26    15    16    2
    27     4     5    1
    28     5     6    1
    29     6     1    1
    30    27    21   ar
    31    15     7   am
    32    14    10   ar
    33    28    30    1
    34    28    31    1
@<TRIPOS>MOLECULE
*****
 31 34 0 0 0
SMALL
GASTEIGER

@<TRIPOS>ATOM
      1 C           4.0332    0.6301   17.9643 C.3     1  UNL1        0.0333
      2 C           4.0186    2.0805   18.3465 C.3     1  UNL1        0.0071
      3 C           2.7178    2.7631   18.6498 C.3     1  UNL1        0.0202
      4 C           1.4317    1.9953   18.5709 C.3     1  UNL1        0.0758
      5 C           1.4463    0.5448   18.1887 C.3     1  UNL1        0.0202
      6 C           2.7471   -0.1377   17.8854 C.3     1  UNL1        0.0071
      7 N           0.1308    2.6779   18.8742 N.am    1  UNL1       -0.2732
      8 C          -0.5179    3.5493   17.8400 C.3     1  UNL1        0.1182
      9 C          -1.8187    4.2319   18.1433 C.3     1  UNL1        0.1305
     10 N          -2.4708    4.0430   19.4809 N.ar    1  UNL1       -0.2867
     11 C          -1.8220    3.1716   20.5152 C.ar    1  UNL1        0.2205
     12 N          -2.6938    3.1734   21.7358 N.ar    1  UNL1       -0.1240
     13 N          -3.8814    4.0459   21.4559 N.ar    1  UNL1       -0.1245
     14 C          -3.7436    4.5834   20.0623 C.ar    1  UNL1        0.2386
     15 C          -0.5213    2.4890   20.2119 C.2     1  UNL1        0.2852
     16 O           0.1276    1.6175   21.2461 O.2     1  UNL1       -0.2665
     17 C          -4.7090    5.5003   19.3714 C.3     1  UNL1        0.4524
     18 F          -5.6744    6.4171   18.6806 F       1  UNL1       -0.1632
     19 F          -4.2500    6.6359   20.2372 F       1  UNL1       -0.1632
     20 F          -5.1680    4.3646   18.5057 F       1  UNL1       -0.1632
     21 C           5.5016    0.9305   17.9031 C.ar    1  UNL1       -0.0207
     22 C           6.1633    1.1709   16.5785 C.ar    1  UNL1       -0.0042
     23 C           7.6316    1.4713   16.5172 C.ar    1  UNL1        0.0005
     24 C           8.4383    1.5315   17.7804 C.ar    1  UNL1        0.0114
     25 C           7.7765    1.2911   19.1049 C.ar    1  UNL1        0.0574
     26 CL          8.5831    1.3512   20.3682 Cl      1  UNL1       -0.0823
     27 C           6.3082    0.9907   19.1662 C.ar    1  UNL1        0.0072
     28 N           3.9109   -1.4662   16.4346 N.3     1  UNL1       -0.3209
     29 C           4.5578   -0.7160   17.5608 C.3     1  UNL1        0.0691
     30 H           4.3921   -2.3551   16.2975 H       1  UNL1        0.1189
     31 H           3.9690   -0.9128   15.5798 H       1  UNL1        0.1189
@<TRIPOS>BOND
     1    28    29    1
     2     1    29    1
     3     1    21    1
     4    21    22   ar
     5    22    23   ar
     6    23    24   ar
     7    24    25   ar
     8    25    26    1
     9    25    27   ar
    10     1     2    1
    11     2     3    1
    12     3     4    1
    13     4     7    1
    14     7     8    1
    15     8     9    1
    16     9    10    1
    17    10    11   ar
    18    11    12   ar
    19    12    13   ar
    20    13    14   ar
    21    14    17    1
    22    17    18    1
    23    17    19    1
    24    17    20    1
    25    11    15    1
    26    15    16    2
    27     4     5    1
    28     5     6    1
    29     6     1    1
    30    27    21   ar
    31    15     7   am
    32    14    10   ar
    33    28    30    1
    34    28    31    1
