@<TRIPOS>MOLECULE
*****
 26 28 0 0 0
SMALL
GASTEIGER

@<TRIPOS>ATOM
      1 C          -7.8185  -18.3659   21.5347 C.2     1  UNL1        0.2420
      2 O          -9.2873  -18.6469   21.4182 O.2     1  UNL1       -0.2734
      3 N          -7.2931  -17.5954   22.7096 N.am    1  UNL1       -0.2760
      4 C          -5.8243  -17.3144   22.8260 C.3     1  UNL1        0.0983
      5 C          -5.2989  -16.5439   24.0008 C.3     1  UNL1        0.0476
      6 C          -6.2423  -16.0543   25.0593 C.ar    1  UNL1       -0.0229
      7 C          -5.7169  -15.2838   26.2341 C.ar    1  UNL1       -0.0045
      8 C          -6.6604  -14.7943   27.2925 C.ar    1  UNL1       -0.0003
      9 C          -8.1292  -15.0753   27.1761 C.ar    1  UNL1       -0.0003
     10 C          -8.6546  -15.8458   26.0012 C.ar    1  UNL1       -0.0030
     11 C          -7.7112  -16.3353   24.9428 C.ar    1  UNL1       -0.0082
     12 C          -8.2365  -17.1058   23.7680 C.3     1  UNL1        0.0975
     13 C          -9.7054  -17.3868   23.6515 C.3     1  UNL1        0.0224
     14 C         -10.2933  -18.5944   24.3197 C.3     1  UNL1        0.0020
     15 C         -11.7621  -18.8753   24.2033 C.3     1  UNL1        0.0001
     16 C         -12.6431  -17.9488   23.4187 C.3     1  UNL1        0.0000
     17 C         -12.0552  -16.7414   22.7506 C.3     1  UNL1        0.0001
     18 C         -10.5863  -16.4604   22.8670 C.3     1  UNL1        0.0020
     19 C          -6.8750  -18.8554   20.4763 C.3     1  UNL1        0.1552
     20 N          -6.1998  -20.1859   20.6307 N.3     1  UNL1       -0.2878
     21 H          -6.2032  -20.4039   21.6271 H       1  UNL1        0.1238
     22 C          -4.7905  -20.3718   20.1516 C.3     1  UNL1        0.0985
     23 C          -2.8263  -19.6043   21.6690 C.3     1  UNL1        0.0332
     24 C          -3.7392  -19.3616   20.5038 C.3     1  UNL1        0.1263
     25 O          -3.6007  -18.1087   19.6908 O.3     1  UNL1       -0.3830
     26 H          -4.2622  -18.1088   18.9814 H       1  UNL1        0.2104
@<TRIPOS>BOND
     1    24    23    1
     2    24    25    1
     3    24    22    1
     4    22    20    1
     5    20    19    1
     6    19     1    1
     7     1     2    2
     8     1     3   am
     9     3     4    1
    10     4     5    1
    11     5     6    1
    12     6     7   ar
    13     7     8   ar
    14     8     9   ar
    15     9    10   ar
    16    10    11   ar
    17    11    12    1
    18    12    13    1
    19    13    14    1
    20    14    15    1
    21    15    16    1
    22    16    17    1
    23    17    18    1
    24    12     3    1
    25    18    13    1
    26    11     6   ar
    27    25    26    1
    28    20    21    1
@<TRIPOS>MOLECULE
*****
 26 28 0 0 0
SMALL
GASTEIGER

@<TRIPOS>ATOM
      1 C          -6.7527  -18.8560   21.0943 C.2     1  UNL1        0.2420
      2 O          -8.1634  -19.1508   20.6786 O.2     1  UNL1       -0.2734
      3 N          -6.4885  -18.0246   22.3146 N.am    1  UNL1       -0.2760
      4 C          -5.0777  -17.7297   22.7303 C.3     1  UNL1        0.0983
      5 C          -4.8136  -16.8984   23.9505 C.3     1  UNL1        0.0476
      6 C          -5.9602  -16.3618   24.7551 C.ar    1  UNL1       -0.0229
      7 C          -5.6961  -15.5304   25.9753 C.ar    1  UNL1       -0.0045
      8 C          -6.8427  -14.9939   26.7799 C.ar    1  UNL1       -0.0003
      9 C          -8.2535  -15.2887   26.3642 C.ar    1  UNL1       -0.0003
     10 C          -8.5176  -16.1201   25.1440 C.ar    1  UNL1       -0.0030
     11 C          -7.3710  -16.6566   24.3395 C.ar    1  UNL1       -0.0082
     12 C          -7.6351  -17.4880   23.1192 C.3     1  UNL1        0.0975
     13 C          -9.0459  -17.7829   22.7035 C.3     1  UNL1        0.0224
     14 C          -9.7366  -19.0129   23.2136 C.3     1  UNL1        0.0020
     15 C         -11.1474  -19.3077   22.7979 C.3     1  UNL1        0.0001
     16 C         -11.8675  -18.3726   21.8722 C.3     1  UNL1        0.0000
     17 C         -11.1768  -17.1426   21.3621 C.3     1  UNL1        0.0001
     18 C          -9.7660  -16.8478   21.7778 C.3     1  UNL1        0.0020
     19 C          -5.6060  -19.3925   20.2897 C.3     1  UNL1        0.1552
     20 N          -4.7037  -18.4505   19.5493 N.3     1  UNL1       -0.2878
     21 H          -5.0977  -18.3385   18.6151 H       1  UNL1        0.1238
     22 C          -3.2529  -18.7868   19.3700 C.3     1  UNL1        0.0985
     23 C          -1.7283  -17.5279   21.0553 C.3     1  UNL1        0.0332
     24 C          -2.3352  -18.8056   20.5563 C.3     1  UNL1        0.1263
     25 O          -2.0243  -20.1022   21.2436 O.3     1  UNL1       -0.3830
     26 H          -2.4940  -20.8248   20.7985 H       1  UNL1        0.2104
@<TRIPOS>BOND
     1    24    23    1
     2    24    25    1
     3    24    22    1
     4    22    20    1
     5    20    19    1
     6    19     1    1
     7     1     2    2
     8     1     3   am
     9     3     4    1
    10     4     5    1
    11     5     6    1
    12     6     7   ar
    13     7     8   ar
    14     8     9   ar
    15     9    10   ar
    16    10    11   ar
    17    11    12    1
    18    12    13    1
    19    13    14    1
    20    14    15    1
    21    15    16    1
    22    16    17    1
    23    17    18    1
    24    12     3    1
    25    18    13    1
    26    11     6   ar
    27    25    26    1
    28    20    21    1
@<TRIPOS>MOLECULE
*****
 26 28 0 0 0
SMALL
GASTEIGER

@<TRIPOS>ATOM
      1 C          -7.3684  -16.2797   23.8900 C.2     1  UNL1        0.2420
      2 O          -8.8310  -16.5949   23.7830 O.2     1  UNL1       -0.2734
      3 N          -6.3632  -17.1311   23.1725 N.am    1  UNL1       -0.2760
      4 C          -4.9007  -16.8159   23.2795 C.3     1  UNL1        0.0983
      5 C          -3.8955  -17.6672   22.5620 C.3     1  UNL1        0.0476
      6 C          -4.3529  -18.8338   21.7374 C.ar    1  UNL1       -0.0229
      7 C          -3.3477  -19.6851   21.0199 C.ar    1  UNL1       -0.0045
      8 C          -3.8051  -20.8516   20.1954 C.ar    1  UNL1       -0.0003
      9 C          -5.2677  -21.1669   20.0883 C.ar    1  UNL1       -0.0003
     10 C          -6.2729  -20.3155   20.8058 C.ar    1  UNL1       -0.0030
     11 C          -5.8155  -19.1490   21.6304 C.ar    1  UNL1       -0.0082
     12 C          -6.8207  -18.2976   22.3479 C.3     1  UNL1        0.0975
     13 C          -8.2833  -18.6129   22.2409 C.3     1  UNL1        0.0224
     14 C          -8.9149  -19.5770   23.2009 C.3     1  UNL1        0.0020
     15 C         -10.3775  -19.8922   23.0938 C.3     1  UNL1        0.0001
     16 C         -11.2084  -19.2433   22.0268 C.3     1  UNL1        0.0000
     17 C         -10.5768  -18.2792   21.0668 C.3     1  UNL1        0.0001
     18 C          -9.1142  -17.9640   21.1739 C.3     1  UNL1        0.0020
     19 C          -6.9110  -15.1132   24.7146 C.3     1  UNL1        0.1552
     20 N          -5.9855  -15.3317   25.8746 N.3     1  UNL1       -0.2878
     21 H          -5.3264  -16.0574   25.5928 H       1  UNL1        0.1238
     22 C          -6.5376  -15.7421   27.2076 C.3     1  UNL1        0.0985
     23 C          -8.7966  -17.0244   27.2585 C.3     1  UNL1        0.0332
     24 C          -8.0203  -15.7529   27.4342 C.3     1  UNL1        0.1263
     25 O          -8.7268  -14.4923   27.8364 O.3     1  UNL1       -0.3830
     26 H          -8.0839  -13.7693   27.9051 H       1  UNL1        0.2104
@<TRIPOS>BOND
     1    24    23    1
     2    24    25    1
     3    24    22    1
     4    22    20    1
     5    20    19    1
     6    19     1    1
     7     1     2    2
     8     1     3   am
     9     3     4    1
    10     4     5    1
    11     5     6    1
    12     6     7   ar
    13     7     8   ar
    14     8     9   ar
    15     9    10   ar
    16    10    11   ar
    17    11    12    1
    18    12    13    1
    19    13    14    1
    20    14    15    1
    21    15    16    1
    22    16    17    1
    23    17    18    1
    24    12     3    1
    25    18    13    1
    26    11     6   ar
    27    25    26    1
    28    20    21    1
@<TRIPOS>MOLECULE
*****
 26 28 0 0 0
SMALL
GASTEIGER

@<TRIPOS>ATOM
      1 C          -6.3424  -18.5103   21.9722 C.2     1  UNL1        0.2420
      2 O          -5.7867  -17.6968   23.1033 O.2     1  UNL1       -0.2734
      3 N          -7.8087  -18.4573   21.6599 N.am    1  UNL1       -0.2760
      4 C          -8.3645  -19.2708   20.5289 C.3     1  UNL1        0.0983
      5 C          -9.8306  -19.2179   20.2166 C.3     1  UNL1        0.0476
      6 C         -10.7410  -18.3513   21.0353 C.ar    1  UNL1       -0.0229
      7 C         -12.2072  -18.2983   20.7230 C.ar    1  UNL1       -0.0045
      8 C         -13.1175  -17.4318   21.5418 C.ar    1  UNL1       -0.0003
      9 C         -12.5617  -16.6183   22.6728 C.ar    1  UNL1       -0.0003
     10 C         -11.0956  -16.6713   22.9851 C.ar    1  UNL1       -0.0030
     11 C         -10.1853  -17.5378   22.1664 C.ar    1  UNL1       -0.0082
     12 C          -8.7190  -17.5908   22.4787 C.3     1  UNL1        0.0975
     13 C          -8.1632  -16.7773   23.6097 C.3     1  UNL1        0.0224
     14 C          -7.3161  -15.5732   23.3221 C.3     1  UNL1        0.0020
     15 C          -6.7603  -14.7597   24.4531 C.3     1  UNL1        0.0001
     16 C          -7.0517  -15.1502   25.8718 C.3     1  UNL1        0.0000
     17 C          -7.8988  -16.3542   26.1594 C.3     1  UNL1        0.0001
     18 C          -8.4545  -17.1677   25.0284 C.3     1  UNL1        0.0020
     19 C          -5.4321  -19.3768   21.1535 C.3     1  UNL1        0.1552
     20 N          -4.7383  -18.8096   19.9507 N.3     1  UNL1       -0.2878
     21 H          -5.0264  -19.3739   19.1513 H       1  UNL1        0.1238
     22 C          -3.2404  -18.7382   19.9130 C.3     1  UNL1        0.0985
     23 C          -2.2686  -17.7698   22.1192 C.3     1  UNL1        0.0332
     24 C          -2.4489  -18.9205   21.1741 C.3     1  UNL1        0.1263
     25 O          -1.8378  -20.2534   21.4900 O.3     1  UNL1       -0.3830
     26 H          -2.0482  -20.8816   20.7815 H       1  UNL1        0.2104
@<TRIPOS>BOND
     1    24    23    1
     2    24    25    1
     3    24    22    1
     4    22    20    1
     5    20    19    1
     6    19     1    1
     7     1     2    2
     8     1     3   am
     9     3     4    1
    10     4     5    1
    11     5     6    1
    12     6     7   ar
    13     7     8   ar
    14     8     9   ar
    15     9    10   ar
    16    10    11   ar
    17    11    12    1
    18    12    13    1
    19    13    14    1
    20    14    15    1
    21    15    16    1
    22    16    17    1
    23    17    18    1
    24    12     3    1
    25    18    13    1
    26    11     6   ar
    27    25    26    1
    28    20    21    1
@<TRIPOS>MOLECULE
*****
 26 28 0 0 0
SMALL
GASTEIGER

@<TRIPOS>ATOM
      1 C          -4.7040  -17.9394   22.9458 C.2     1  UNL1        0.2420
      2 O          -5.1128  -16.9862   24.0294 O.2     1  UNL1       -0.2734
      3 N          -5.7271  -18.4615   21.9810 N.am    1  UNL1       -0.2760
      4 C          -5.3183  -19.4147   20.8973 C.3     1  UNL1        0.0983
      5 C          -6.3413  -19.9368   19.9325 C.3     1  UNL1        0.0476
      6 C          -7.7731  -19.5057   20.0514 C.ar    1  UNL1       -0.0229
      7 C          -8.7961  -20.0279   19.0866 C.ar    1  UNL1       -0.0045
      8 C         -10.2278  -19.5968   19.2054 C.ar    1  UNL1       -0.0003
      9 C         -10.6366  -18.6435   20.2890 C.ar    1  UNL1       -0.0003
     10 C          -9.6137  -18.1214   21.2538 C.ar    1  UNL1       -0.0030
     11 C          -8.1819  -18.5525   21.1350 C.ar    1  UNL1       -0.0082
     12 C          -7.1588  -18.0304   22.0998 C.3     1  UNL1        0.0975
     13 C          -7.5676  -17.0772   23.1835 C.3     1  UNL1        0.0224
     14 C          -7.2607  -15.6148   23.0511 C.3     1  UNL1        0.0020
     15 C          -7.6695  -14.6616   24.1347 C.3     1  UNL1        0.0001
     16 C          -8.3852  -15.1708   25.3507 C.3     1  UNL1        0.0000
     17 C          -8.6921  -16.6330   25.4831 C.3     1  UNL1        0.0001
     18 C          -8.2833  -17.5862   24.3994 C.3     1  UNL1        0.0020
     19 C          -3.2723  -18.3705   22.8270 C.3     1  UNL1        0.1552
     20 N          -2.2789  -17.4887   22.1301 N.3     1  UNL1       -0.2878
     21 H          -2.3291  -16.5751   22.5808 H       1  UNL1        0.1238
     22 C          -2.3941  -17.2500   20.6536 C.3     1  UNL1        0.0985
     23 C           0.1364  -17.5462   20.1454 C.3     1  UNL1        0.0332
     24 C          -1.2978  -17.6989   19.7335 C.3     1  UNL1        0.1263
     25 O          -1.6356  -18.3004   18.4016 O.3     1  UNL1       -0.3830
     26 H          -2.5992  -18.3258   18.2934 H       1  UNL1        0.2104
@<TRIPOS>BOND
     1    24    23    1
     2    24    25    1
     3    24    22    1
     4    22    20    1
     5    20    19    1
     6    19     1    1
     7     1     2    2
     8     1     3   am
     9     3     4    1
    10     4     5    1
    11     5     6    1
    12     6     7   ar
    13     7     8   ar
    14     8     9   ar
    15     9    10   ar
    16    10    11   ar
    17    11    12    1
    18    12    13    1
    19    13    14    1
    20    14    15    1
    21    15    16    1
    22    16    17    1
    23    17    18    1
    24    12     3    1
    25    18    13    1
    26    11     6   ar
    27    25    26    1
    28    20    21    1
@<TRIPOS>MOLECULE
*****
 26 28 0 0 0
SMALL
GASTEIGER

@<TRIPOS>ATOM
      1 C          -8.1119  -18.2191   21.6084 C.2     1  UNL1        0.2420
      2 O          -9.5867  -18.4711   21.5007 O.2     1  UNL1       -0.2734
      3 N          -7.5615  -17.4825   22.7935 N.am    1  UNL1       -0.2760
      4 C          -6.0867  -17.2305   22.9012 C.3     1  UNL1        0.0983
      5 C          -5.5363  -16.4939   24.0862 C.3     1  UNL1        0.0476
      6 C          -6.4606  -16.0091   25.1636 C.ar    1  UNL1       -0.0229
      7 C          -5.9102  -15.2725   26.3486 C.ar    1  UNL1       -0.0045
      8 C          -6.8345  -14.7878   27.4259 C.ar    1  UNL1       -0.0003
      9 C          -8.3092  -15.0397   27.3182 C.ar    1  UNL1       -0.0003
     10 C          -8.8597  -15.7764   26.1332 C.ar    1  UNL1       -0.0030
     11 C          -7.9354  -16.2611   25.0559 C.ar    1  UNL1       -0.0082
     12 C          -8.4858  -16.9978   23.8708 C.3     1  UNL1        0.0975
     13 C          -9.9606  -17.2497   23.7631 C.3     1  UNL1        0.0224
     14 C         -10.5715  -18.4337   24.4524 C.3     1  UNL1        0.0020
     15 C         -12.0463  -18.6856   24.3448 C.3     1  UNL1        0.0001
     16 C         -12.9101  -17.7536   23.5477 C.3     1  UNL1        0.0000
     17 C         -12.2992  -16.5697   22.8584 C.3     1  UNL1        0.0001
     18 C         -10.8244  -16.3178   22.9661 C.3     1  UNL1        0.0020
     19 C          -7.1876  -18.7038   20.5310 C.3     1  UNL1        0.1552
     20 N          -7.0715  -20.1721   20.2471 N.3     1  UNL1       -0.2878
     21 H          -6.1030  -20.4323   20.4331 H       1  UNL1        0.1238
     22 C          -7.4081  -20.7014   18.8845 C.3     1  UNL1        0.0985
     23 C          -9.1944  -21.3982   17.1314 C.3     1  UNL1        0.0332
     24 C          -8.8323  -20.7094   18.4137 C.3     1  UNL1        0.1263
     25 O          -9.8943  -20.0285   19.2252 O.3     1  UNL1       -0.3830
     26 H          -9.4944  -19.6364   20.0172 H       1  UNL1        0.2104
@<TRIPOS>BOND
     1    24    23    1
     2    24    25    1
     3    24    22    1
     4    22    20    1
     5    20    19    1
     6    19     1    1
     7     1     2    2
     8     1     3   am
     9     3     4    1
    10     4     5    1
    11     5     6    1
    12     6     7   ar
    13     7     8   ar
    14     8     9   ar
    15     9    10   ar
    16    10    11   ar
    17    11    12    1
    18    12    13    1
    19    13    14    1
    20    14    15    1
    21    15    16    1
    22    16    17    1
    23    17    18    1
    24    12     3    1
    25    18    13    1
    26    11     6   ar
    27    25    26    1
    28    20    21    1
@<TRIPOS>MOLECULE
*****
 26 28 0 0 0
SMALL
GASTEIGER

@<TRIPOS>ATOM
      1 C          -7.8731  -17.1035   22.8424 C.2     1  UNL1        0.2420
      2 O          -9.2112  -16.4396   22.9793 O.2     1  UNL1       -0.2734
      3 N          -7.6738  -18.1864   21.8237 N.am    1  UNL1       -0.2760
      4 C          -6.3357  -18.8503   21.6868 C.3     1  UNL1        0.0983
      5 C          -6.1365  -19.9331   20.6681 C.3     1  UNL1        0.0476
      6 C          -7.2753  -20.3522   19.7864 C.ar    1  UNL1       -0.0229
      7 C          -7.0760  -21.4350   18.7677 C.ar    1  UNL1       -0.0045
      8 C          -8.2149  -21.8540   17.8860 C.ar    1  UNL1       -0.0003
      9 C          -9.5530  -21.1901   18.0229 C.ar    1  UNL1       -0.0003
     10 C          -9.7523  -20.1073   19.0416 C.ar    1  UNL1       -0.0030
     11 C          -8.6134  -19.6883   19.9233 C.ar    1  UNL1       -0.0082
     12 C          -8.8127  -18.6054   20.9420 C.3     1  UNL1        0.0975
     13 C         -10.1508  -17.9415   21.0789 C.3     1  UNL1        0.0224
     14 C         -11.1455  -18.4576   22.0760 C.3     1  UNL1        0.0020
     15 C         -12.4836  -17.7938   22.2130 C.3     1  UNL1        0.0001
     16 C         -12.8270  -16.6138   21.3528 C.3     1  UNL1        0.0000
     17 C         -11.8323  -16.0978   20.3557 C.3     1  UNL1        0.0001
     18 C         -10.4942  -16.7616   20.2188 C.3     1  UNL1        0.0020
     19 C          -6.7343  -16.6845   23.7241 C.3     1  UNL1        0.1552
     20 N          -6.7879  -15.3699   24.4445 N.3     1  UNL1       -0.2878
     21 H          -6.3130  -14.6895   23.8513 H       1  UNL1        0.1238
     22 C          -6.1914  -15.2407   25.8148 C.3     1  UNL1        0.0985
     23 C          -8.1020  -16.2987   27.2218 C.3     1  UNL1        0.0332
     24 C          -7.0822  -15.2172   27.0213 C.3     1  UNL1        0.1263
     25 O          -6.9532  -14.1122   28.0274 O.3     1  UNL1       -0.3830
     26 H          -6.2529  -13.5015   27.7490 H       1  UNL1        0.2104
@<TRIPOS>BOND
     1    24    23    1
     2    24    25    1
     3    24    22    1
     4    22    20    1
     5    20    19    1
     6    19     1    1
     7     1     2    2
     8     1     3   am
     9     3     4    1
    10     4     5    1
    11     5     6    1
    12     6     7   ar
    13     7     8   ar
    14     8     9   ar
    15     9    10   ar
    16    10    11   ar
    17    11    12    1
    18    12    13    1
    19    13    14    1
    20    14    15    1
    21    15    16    1
    22    16    17    1
    23    17    18    1
    24    12     3    1
    25    18    13    1
    26    11     6   ar
    27    25    26    1
    28    20    21    1
@<TRIPOS>MOLECULE
*****
 26 28 0 0 0
SMALL
GASTEIGER

@<TRIPOS>ATOM
      1 C           6.0223   -3.5633   23.6070 C.2     1  UNL1        0.2420
      2 O           6.2764   -4.3175   22.3356 O.2     1  UNL1       -0.2734
      3 N           4.9727   -2.4923   23.6468 N.am    1  UNL1       -0.2760
      4 C           4.7185   -1.7381   24.9183 C.3     1  UNL1        0.0983
      5 C           3.6690   -0.6672   24.9581 C.3     1  UNL1        0.0476
      6 C           2.8735   -0.3505   23.7264 C.ar    1  UNL1       -0.0229
      7 C           1.8240    0.7204   23.7662 C.ar    1  UNL1       -0.0045
      8 C           1.0286    1.0371   22.5346 C.ar    1  UNL1       -0.0003
      9 C           1.2827    0.2829   21.2631 C.ar    1  UNL1       -0.0003
     10 C           2.3322   -0.7880   21.2233 C.ar    1  UNL1       -0.0030
     11 C           3.1276   -1.1047   22.4549 C.ar    1  UNL1       -0.0082
     12 C           4.1772   -2.1757   22.4152 C.3     1  UNL1        0.0975
     13 C           4.4314   -2.9299   21.1437 C.3     1  UNL1        0.0224
     14 C           5.4193   -2.4045   20.1447 C.3     1  UNL1        0.0020
     15 C           5.6735   -3.1587   18.8732 C.3     1  UNL1        0.0001
     16 C           4.9396   -4.4383   18.6008 C.3     1  UNL1        0.0000
     17 C           3.9517   -4.9636   19.5998 C.3     1  UNL1        0.0001
     18 C           3.6976   -4.2094   20.8712 C.3     1  UNL1        0.0020
     19 C           6.8177   -3.8800   24.8387 C.3     1  UNL1        0.1552
     20 N           6.3609   -4.9652   25.7679 N.3     1  UNL1       -0.2878
     21 H           5.8930   -4.5061   26.5494 H       1  UNL1        0.1238
     22 C           7.3593   -5.9159   26.3591 C.3     1  UNL1        0.0985
     23 C           8.3639   -7.5887   24.6438 C.3     1  UNL1        0.0332
     24 C           7.4765   -7.3110   25.8208 C.3     1  UNL1        0.1263
     25 O           6.7062   -8.4285   26.4595 O.3     1  UNL1       -0.3830
     26 H           6.1865   -8.0805   27.2009 H       1  UNL1        0.2104
@<TRIPOS>BOND
     1    24    23    1
     2    24    25    1
     3    24    22    1
     4    22    20    1
     5    20    19    1
     6    19     1    1
     7     1     2    2
     8     1     3   am
     9     3     4    1
    10     4     5    1
    11     5     6    1
    12     6     7   ar
    13     7     8   ar
    14     8     9   ar
    15     9    10   ar
    16    10    11   ar
    17    11    12    1
    18    12    13    1
    19    13    14    1
    20    14    15    1
    21    15    16    1
    22    16    17    1
    23    17    18    1
    24    12     3    1
    25    18    13    1
    26    11     6   ar
    27    25    26    1
    28    20    21    1
@<TRIPOS>MOLECULE
*****
 26 28 0 0 0
SMALL
GASTEIGER

@<TRIPOS>ATOM
      1 C           5.5484   -3.0900   23.4216 C.2     1  UNL1        0.2420
      2 O           5.9386   -4.0028   22.2971 O.2     1  UNL1       -0.2734
      3 N           4.4566   -2.0805   23.2237 N.am    1  UNL1       -0.2760
      4 C           4.0664   -1.1677   24.3482 C.3     1  UNL1        0.0983
      5 C           2.9746   -0.1583   24.1504 C.3     1  UNL1        0.0476
      6 C           2.2730   -0.0618   22.8281 C.ar    1  UNL1       -0.0229
      7 C           1.1812    0.9476   22.6303 C.ar    1  UNL1       -0.0045
      8 C           0.4796    1.0441   21.3081 C.ar    1  UNL1       -0.0003
      9 C           0.8698    0.1313   20.1836 C.ar    1  UNL1       -0.0003
     10 C           1.9615   -0.8781   20.3814 C.ar    1  UNL1       -0.0030
     11 C           2.6631   -0.9746   21.7036 C.ar    1  UNL1       -0.0082
     12 C           3.7550   -1.9840   21.9015 C.3     1  UNL1        0.0975
     13 C           4.1451   -2.8969   20.7770 C.3     1  UNL1        0.0224
     14 C           5.1489   -2.4450   19.7579 C.3     1  UNL1        0.0020
     15 C           5.5390   -3.3579   18.6335 C.3     1  UNL1        0.0001
     16 C           4.9255   -4.7227   18.5281 C.3     1  UNL1        0.0000
     17 C           3.9218   -5.1745   19.5471 C.3     1  UNL1        0.0001
     18 C           3.5317   -4.2616   20.6716 C.3     1  UNL1        0.0020
     19 C           6.2500   -3.1865   24.7438 C.3     1  UNL1        0.1552
     20 N           6.4115   -4.5199   25.4116 N.3     1  UNL1       -0.2878
     21 H           6.1803   -4.3861   26.3960 H       1  UNL1        0.1238
     22 C           7.7352   -5.2243   25.3695 C.3     1  UNL1        0.0985
     23 C           8.2991   -7.6934   24.7905 C.3     1  UNL1        0.0332
     24 C           7.9827   -6.2953   24.3488 C.3     1  UNL1        0.1263
     25 O           7.9137   -5.9682   22.8866 O.3     1  UNL1       -0.3830
     26 H           7.7003   -5.0285   22.7752 H       1  UNL1        0.2104
@<TRIPOS>BOND
     1    24    23    1
     2    24    25    1
     3    24    22    1
     4    22    20    1
     5    20    19    1
     6    19     1    1
     7     1     2    2
     8     1     3   am
     9     3     4    1
    10     4     5    1
    11     5     6    1
    12     6     7   ar
    13     7     8   ar
    14     8     9   ar
    15     9    10   ar
    16    10    11   ar
    17    11    12    1
    18    12    13    1
    19    13    14    1
    20    14    15    1
    21    15    16    1
    22    16    17    1
    23    17    18    1
    24    12     3    1
    25    18    13    1
    26    11     6   ar
    27    25    26    1
    28    20    21    1
