@<TRIPOS>MOLECULE
*****
 28 32 0 0 0
SMALL
GASTEIGER

@<TRIPOS>ATOM
      1 C         -10.2665  -17.1096   23.3629 C.3     1  UNL1        0.0627
      2 C         -11.6204  -16.5288   23.0808 C.3     1  UNL1        0.0107
      3 C         -12.3356  -16.8766   21.8090 C.3     1  UNL1        0.0060
      4 C         -11.6968  -17.8052   20.8193 C.3     1  UNL1        0.0343
      5 C         -10.3429  -18.3860   21.1013 C.ar    1  UNL1        0.0237
      6 S          -9.4697  -19.3223   20.3197 S.2     1  UNL1       -0.0561
      7 C          -8.2149  -19.5531   21.1085 C.ar    1  UNL1        0.1629
      8 N          -8.3125  -18.7595   22.3775 N.ar    1  UNL1       -0.2284
      9 C          -9.6278  -18.0382   22.3731 C.ar    1  UNL1        0.0666
     10 C          -8.1209  -16.0661   27.1784 C.ar    1  UNL1       -0.0000
     11 C          -8.8890  -17.3505   27.0771 C.ar    1  UNL1       -0.0003
     12 C          -9.6043  -17.6983   25.8052 C.ar    1  UNL1       -0.0039
     13 C          -9.5513  -16.7618   24.6347 C.ar    1  UNL1       -0.0169
     14 C          -8.7832  -15.4774   24.7361 C.ar    1  UNL1       -0.0039
     15 C          -8.0680  -15.1295   26.0078 C.ar    1  UNL1       -0.0003
     16 N          -7.0644  -20.4246   20.6998 N.pl3   1  UNL1       -0.2927
     17 H          -7.2150  -21.3766   20.4990 H       1  UNL1        0.1541
     18 C          -5.6845  -19.8457   20.5971 C.ar    1  UNL1        0.0498
     19 C          -5.2726  -19.1037   19.3602 C.ar    1  UNL1        0.0162
     20 C          -3.8927  -18.5247   19.2575 C.ar    1  UNL1        0.0205
     21 C          -2.9246  -18.6877   20.3916 C.ar    1  UNL1        0.0847
     22 C          -3.3364  -19.4297   21.6285 C.ar    1  UNL1        0.0205
     23 C          -4.7164  -20.0087   21.7312 C.ar    1  UNL1        0.0162
     24 N          -1.5446  -18.1088   20.2889 N.ar    1  UNL1       -0.2079
     25 C          -1.1819  -16.6616   20.4442 C.ar    1  UNL1        0.2016
     26 N           0.3018  -16.5338   20.2640 N.ar    1  UNL1       -0.2004
     27 C           0.8560  -17.9019   19.9974 C.ar    1  UNL1        0.2214
     28 N          -0.2852  -18.8753   20.0128 N.ar    1  UNL1       -0.1409
@<TRIPOS>BOND
     1    10    11   ar
     2    11    12   ar
     3    12    13   ar
     4    13     1    1
     5     1     2    1
     6     2     3    1
     7     3     4    1
     8     4     5    1
     9     5     6   ar
    10     6     7   ar
    11     7    16    1
    12    16    18    1
    13    18    19   ar
    14    19    20   ar
    15    20    21   ar
    16    21    24    1
    17    24    25   ar
    18    25    26   ar
    19    26    27   ar
    20    27    28   ar
    21    21    22   ar
    22    22    23   ar
    23     7     8   ar
    24     8     9   ar
    25    13    14   ar
    26    14    15   ar
    27    15    10   ar
    28     9     1    1
    29     9     5   ar
    30    23    18   ar
    31    28    24   ar
    32    16    17    1
@<TRIPOS>MOLECULE
*****
 28 32 0 0 0
SMALL
GASTEIGER

@<TRIPOS>ATOM
      1 C          -3.6192  -17.7444   22.7792 C.3     1  UNL1        0.0627
      2 C          -2.1301  -17.8527   22.6358 C.3     1  UNL1        0.0107
      3 C          -1.5409  -18.6140   21.4855 C.3     1  UNL1        0.0060
      4 C          -2.4408  -19.2671   20.4787 C.3     1  UNL1        0.0343
      5 C          -3.9300  -19.1588   20.6222 C.ar    1  UNL1        0.0237
      6 S          -5.0597  -19.6932   19.7927 S.2     1  UNL1       -0.0561
      7 C          -6.3472  -19.2621   20.4303 C.ar    1  UNL1        0.1629
      8 N          -6.0132  -18.4613   21.6539 N.ar    1  UNL1       -0.2284
      9 C          -4.5192  -18.3975   21.7724 C.ar    1  UNL1        0.0666
     10 C          -5.3871  -15.4604   26.2301 C.ar    1  UNL1       -0.0000
     11 C          -4.5365  -16.6687   26.4876 C.ar    1  UNL1       -0.0003
     12 C          -3.9472  -17.4301   25.3373 C.ar    1  UNL1       -0.0039
     13 C          -4.2085  -16.9831   23.9296 C.ar    1  UNL1       -0.0169
     14 C          -5.0592  -15.7748   23.6720 C.ar    1  UNL1       -0.0039
     15 C          -5.6485  -15.0134   24.8222 C.ar    1  UNL1       -0.0003
     16 N          -7.7266  -19.5766   19.9319 N.pl3   1  UNL1       -0.2927
     17 H          -7.8524  -19.9301   19.0216 H       1  UNL1        0.1541
     18 C          -8.9143  -19.3526   20.8202 C.ar    1  UNL1        0.0498
     19 C          -8.8223  -19.6563   22.2862 C.ar    1  UNL1        0.0162
     20 C         -10.0100  -19.4324   23.1746 C.ar    1  UNL1        0.0205
     21 C         -11.2898  -18.9046   22.5969 C.ar    1  UNL1        0.0847
     22 C         -11.3818  -18.6009   21.1308 C.ar    1  UNL1        0.0205
     23 C         -10.1940  -18.8249   20.2425 C.ar    1  UNL1        0.0162
     24 N         -12.4775  -18.6806   23.4852 N.ar    1  UNL1       -0.2079
     25 C         -12.5360  -18.9409   24.9612 C.ar    1  UNL1        0.2016
     26 N         -13.9100  -18.5782   25.4417 N.ar    1  UNL1       -0.2004
     27 C         -14.7005  -18.0936   24.2626 C.ar    1  UNL1        0.2214
     28 N         -13.8152  -18.1569   23.0534 N.ar    1  UNL1       -0.1409
@<TRIPOS>BOND
     1    10    11   ar
     2    11    12   ar
     3    12    13   ar
     4    13     1    1
     5     1     2    1
     6     2     3    1
     7     3     4    1
     8     4     5    1
     9     5     6   ar
    10     6     7   ar
    11     7    16    1
    12    16    18    1
    13    18    19   ar
    14    19    20   ar
    15    20    21   ar
    16    21    24    1
    17    24    25   ar
    18    25    26   ar
    19    26    27   ar
    20    27    28   ar
    21    21    22   ar
    22    22    23   ar
    23     7     8   ar
    24     8     9   ar
    25    13    14   ar
    26    14    15   ar
    27    15    10   ar
    28     9     1    1
    29     9     5   ar
    30    23    18   ar
    31    28    24   ar
    32    16    17    1
@<TRIPOS>MOLECULE
*****
 28 32 0 0 0
SMALL
GASTEIGER

@<TRIPOS>ATOM
      1 C           0.4741    2.9300   19.6338 C.3     1  UNL1        0.0627
      2 C           1.2569    3.9149   18.8171 C.3     1  UNL1        0.0107
      3 C           0.5843    5.1398   18.2722 C.3     1  UNL1        0.0060
      4 C          -0.8712    5.3799   18.5440 C.3     1  UNL1        0.0343
      5 C          -1.6541    4.3950   19.3607 C.ar    1  UNL1        0.0237
      6 S          -3.0910    4.3645   19.7901 S.2     1  UNL1       -0.0561
      7 C          -3.3064    3.1207   20.6004 C.ar    1  UNL1        0.1629
      8 N          -2.0026    2.3824   20.6718 N.ar    1  UNL1       -0.2284
      9 C          -0.9814    3.1701   19.9056 C.ar    1  UNL1        0.0666
     10 C           2.4920   -0.7451   21.2687 C.ar    1  UNL1       -0.0000
     11 C           2.7846    0.5995   21.8657 C.ar    1  UNL1       -0.0003
     12 C           2.1119    1.8246   21.3207 C.ar    1  UNL1       -0.0039
     13 C           1.1467    1.7050   20.1788 C.ar    1  UNL1       -0.0169
     14 C           0.8541    0.3604   19.5817 C.ar    1  UNL1       -0.0039
     15 C           1.5267   -0.8646   20.1267 C.ar    1  UNL1       -0.0003
     16 N          -4.5988    2.6907   21.2289 N.pl3   1  UNL1       -0.2927
     17 H          -5.0999    1.9310   20.8534 H       1  UNL1        0.1541
     18 C          -5.1275    3.4181   22.4294 C.ar    1  UNL1        0.0498
     19 C          -4.4359    3.2821   23.7535 C.ar    1  UNL1        0.0162
     20 C          -4.9647    4.0095   24.9540 C.ar    1  UNL1        0.0205
     21 C          -6.1850    4.8729   24.8304 C.ar    1  UNL1        0.0847
     22 C          -6.8766    5.0089   23.5063 C.ar    1  UNL1        0.0205
     23 C          -6.3478    4.2815   22.3058 C.ar    1  UNL1        0.0162
     24 N          -6.7138    5.6003   26.0309 N.ar    1  UNL1       -0.2079
     25 C          -7.9902    6.3855   26.0946 C.ar    1  UNL1        0.2016
     26 N          -8.1242    6.9407   27.4817 N.ar    1  UNL1       -0.2004
     27 C          -6.9306    6.4987   28.2752 C.ar    1  UNL1        0.2214
     28 N          -6.0588    5.6703   27.3786 N.ar    1  UNL1       -0.1409
@<TRIPOS>BOND
     1    10    11   ar
     2    11    12   ar
     3    12    13   ar
     4    13     1    1
     5     1     2    1
     6     2     3    1
     7     3     4    1
     8     4     5    1
     9     5     6   ar
    10     6     7   ar
    11     7    16    1
    12    16    18    1
    13    18    19   ar
    14    19    20   ar
    15    20    21   ar
    16    21    24    1
    17    24    25   ar
    18    25    26   ar
    19    26    27   ar
    20    27    28   ar
    21    21    22   ar
    22    22    23   ar
    23     7     8   ar
    24     8     9   ar
    25    13    14   ar
    26    14    15   ar
    27    15    10   ar
    28     9     1    1
    29     9     5   ar
    30    23    18   ar
    31    28    24   ar
    32    16    17    1
@<TRIPOS>MOLECULE
*****
 28 32 0 0 0
SMALL
GASTEIGER

@<TRIPOS>ATOM
      1 C          -3.2007    3.6963   24.7468 C.3     1  UNL1        0.0627
      2 C          -2.8389    3.6921   26.2025 C.3     1  UNL1        0.0107
      3 C          -1.4405    3.3538   26.6267 C.3     1  UNL1        0.0060
      4 C          -0.4039    3.0198   25.5952 C.3     1  UNL1        0.0343
      5 C          -0.7657    3.0240   24.1395 C.ar    1  UNL1        0.0237
      6 S           0.0369    2.7385   22.9049 S.2     1  UNL1       -0.0561
      7 C          -0.8655    2.9003   21.7177 C.ar    1  UNL1        0.1629
      8 N          -2.2258    3.2858   22.2185 N.ar    1  UNL1       -0.2284
      9 C          -2.1641    3.3623   23.7153 C.ar    1  UNL1        0.0666
     10 C          -7.3960    4.7113   23.4740 C.ar    1  UNL1       -0.0000
     11 C          -6.5362    3.8458   22.6013 C.ar    1  UNL1       -0.0003
     12 C          -5.1377    3.5075   23.0256 C.ar    1  UNL1       -0.0039
     13 C          -4.5992    4.0346   24.3225 C.ar    1  UNL1       -0.0169
     14 C          -5.4591    4.9001   25.1952 C.ar    1  UNL1       -0.0039
     15 C          -6.8574    5.2384   24.7710 C.ar    1  UNL1       -0.0003
     16 N          -0.4759    2.7099   20.2817 N.pl3   1  UNL1       -0.2927
     17 H          -0.8846    3.2695   19.5824 H       1  UNL1        0.1541
     18 C           0.5364    1.6669   19.9112 C.ar    1  UNL1        0.0498
     19 C           1.7142    2.0344   19.0580 C.ar    1  UNL1        0.0162
     20 C           2.7265    0.9914   18.6875 C.ar    1  UNL1        0.0205
     21 C           2.5611   -0.4192   19.1701 C.ar    1  UNL1        0.0847
     22 C           1.3833   -0.7867   20.0233 C.ar    1  UNL1        0.0205
     23 C           0.3710    0.2564   20.3938 C.ar    1  UNL1        0.0162
     24 N           3.5734   -1.4622   18.7996 N.ar    1  UNL1       -0.2079
     25 C           4.7059   -1.2871   17.8318 C.ar    1  UNL1        0.2016
     26 N           5.4634   -2.5802   17.7659 N.ar    1  UNL1       -0.2004
     27 C           4.7990   -3.5544   18.6930 C.ar    1  UNL1        0.2214
     28 N           3.6309   -2.8635   19.3318 N.ar    1  UNL1       -0.1409
@<TRIPOS>BOND
     1    10    11   ar
     2    11    12   ar
     3    12    13   ar
     4    13     1    1
     5     1     2    1
     6     2     3    1
     7     3     4    1
     8     4     5    1
     9     5     6   ar
    10     6     7   ar
    11     7    16    1
    12    16    18    1
    13    18    19   ar
    14    19    20   ar
    15    20    21   ar
    16    21    24    1
    17    24    25   ar
    18    25    26   ar
    19    26    27   ar
    20    27    28   ar
    21    21    22   ar
    22    22    23   ar
    23     7     8   ar
    24     8     9   ar
    25    13    14   ar
    26    14    15   ar
    27    15    10   ar
    28     9     1    1
    29     9     5   ar
    30    23    18   ar
    31    28    24   ar
    32    16    17    1
@<TRIPOS>MOLECULE
*****
 28 32 0 0 0
SMALL
GASTEIGER

@<TRIPOS>ATOM
      1 C           3.5144   -1.5621   21.4715 C.3     1  UNL1        0.0627
      2 C           4.2547   -2.7884   21.0265 C.3     1  UNL1        0.0107
      3 C           5.0094   -3.6131   22.0266 C.3     1  UNL1        0.0060
      4 C           5.0238   -3.2115   23.4718 C.3     1  UNL1        0.0343
      5 C           4.2835   -1.9852   23.9168 C.ar    1  UNL1        0.0237
      6 S           4.1182   -1.3461   25.2637 S.2     1  UNL1       -0.0561
      7 C           3.2613   -0.1264   25.0961 C.ar    1  UNL1        0.1629
      8 N           2.8970   -0.0116   23.6455 N.ar    1  UNL1       -0.2284
      9 C           3.5289   -1.1605   22.9167 C.ar    1  UNL1        0.0666
     10 C           1.2503    0.9122   18.4711 C.ar    1  UNL1       -0.0000
     11 C           0.5512    0.3858   19.6894 C.ar    1  UNL1       -0.0003
     12 C           1.3060   -0.4390   20.6896 C.ar    1  UNL1       -0.0039
     13 C           2.7597   -0.7373   20.4714 C.ar    1  UNL1       -0.0169
     14 C           3.4587   -0.2109   19.2531 C.ar    1  UNL1       -0.0039
     15 C           2.7041    0.6138   18.2530 C.ar    1  UNL1       -0.0003
     16 N           2.8422    0.8136   26.1874 N.pl3   1  UNL1       -0.2927
     17 H           2.3813    1.6541   25.9631 H       1  UNL1        0.1541
     18 C           3.1254    0.4728   27.6205 C.ar    1  UNL1        0.0498
     19 C           2.1116   -0.2846   28.4258 C.ar    1  UNL1        0.0162
     20 C           2.3948   -0.6253   29.8588 C.ar    1  UNL1        0.0205
     21 C           3.6919   -0.2086   30.4866 C.ar    1  UNL1        0.0847
     22 C           4.7057    0.5488   29.6813 C.ar    1  UNL1        0.0205
     23 C           4.4224    0.8895   28.2482 C.ar    1  UNL1        0.0162
     24 N           3.9751   -0.5493   31.9197 N.ar    1  UNL1       -0.2079
     25 C           4.3859    0.4168   32.9910 C.ar    1  UNL1        0.2016
     26 N           4.5619   -0.3529   34.2665 N.ar    1  UNL1       -0.2004
     27 C           4.2599   -1.7946   33.9834 C.ar    1  UNL1        0.2214
     28 N           3.8972   -1.9160   32.5330 N.ar    1  UNL1       -0.1409
@<TRIPOS>BOND
     1    10    11   ar
     2    11    12   ar
     3    12    13   ar
     4    13     1    1
     5     1     2    1
     6     2     3    1
     7     3     4    1
     8     4     5    1
     9     5     6   ar
    10     6     7   ar
    11     7    16    1
    12    16    18    1
    13    18    19   ar
    14    19    20   ar
    15    20    21   ar
    16    21    24    1
    17    24    25   ar
    18    25    26   ar
    19    26    27   ar
    20    27    28   ar
    21    21    22   ar
    22    22    23   ar
    23     7     8   ar
    24     8     9   ar
    25    13    14   ar
    26    14    15   ar
    27    15    10   ar
    28     9     1    1
    29     9     5   ar
    30    23    18   ar
    31    28    24   ar
    32    16    17    1
@<TRIPOS>MOLECULE
*****
 28 32 0 0 0
SMALL
GASTEIGER

@<TRIPOS>ATOM
      1 C           3.6419   -1.6651   21.5189 C.3     1  UNL1        0.0627
      2 C           4.4110   -2.9040   21.1675 C.3     1  UNL1        0.0107
      3 C           5.1261   -3.6721   22.2393 C.3     1  UNL1        0.0060
      4 C           5.0721   -3.2012   23.6624 C.3     1  UNL1        0.0343
      5 C           4.3030   -1.9623   24.0138 C.ar    1  UNL1        0.0237
      6 S           4.0720   -1.2608   25.3194 S.2     1  UNL1       -0.0561
      7 C           3.2141   -0.0591   25.0545 C.ar    1  UNL1        0.1629
      8 N           2.9150   -0.0180   23.5853 N.ar    1  UNL1       -0.2284
      9 C           3.5879   -1.1942   22.9421 C.ar    1  UNL1        0.0666
     10 C           1.4966    0.6394   18.3037 C.ar    1  UNL1       -0.0000
     11 C           2.9547    0.3216   18.1527 C.ar    1  UNL1       -0.0003
     12 C           3.6699   -0.4466   19.2245 C.ar    1  UNL1       -0.0039
     13 C           2.9268   -0.8969   20.4472 C.ar    1  UNL1       -0.0169
     14 C           1.4687   -0.5792   20.5982 C.ar    1  UNL1       -0.0039
     15 C           0.7535    0.1889   19.5265 C.ar    1  UNL1       -0.0003
     16 N           2.7389    0.9280   26.0792 N.pl3   1  UNL1       -0.2927
     17 H           3.3268    1.1834   26.8264 H       1  UNL1        0.1541
     18 C           1.3681    1.5261   25.9651 C.ar    1  UNL1        0.0498
     19 C           0.9972    2.3257   24.7514 C.ar    1  UNL1        0.0162
     20 C          -0.3736    2.9238   24.6374 C.ar    1  UNL1        0.0205
     21 C          -1.3737    2.7223   25.7371 C.ar    1  UNL1        0.0847
     22 C          -1.0028    1.9226   26.9508 C.ar    1  UNL1        0.0205
     23 C           0.3681    1.3246   27.0648 C.ar    1  UNL1        0.0162
     24 N          -2.7445    3.3203   25.6231 N.ar    1  UNL1       -0.2079
     25 C          -3.5659    3.8645   26.7541 C.ar    1  UNL1        0.2016
     26 N          -4.8638    4.3598   26.1880 N.ar    1  UNL1       -0.2004
     27 C          -4.8445    4.1216   24.7072 C.ar    1  UNL1        0.2214
     28 N          -3.5348    3.4792   24.3581 N.ar    1  UNL1       -0.1409
@<TRIPOS>BOND
     1    10    11   ar
     2    11    12   ar
     3    12    13   ar
     4    13     1    1
     5     1     2    1
     6     2     3    1
     7     3     4    1
     8     4     5    1
     9     5     6   ar
    10     6     7   ar
    11     7    16    1
    12    16    18    1
    13    18    19   ar
    14    19    20   ar
    15    20    21   ar
    16    21    24    1
    17    24    25   ar
    18    25    26   ar
    19    26    27   ar
    20    27    28   ar
    21    21    22   ar
    22    22    23   ar
    23     7     8   ar
    24     8     9   ar
    25    13    14   ar
    26    14    15   ar
    27    15    10   ar
    28     9     1    1
    29     9     5   ar
    30    23    18   ar
    31    28    24   ar
    32    16    17    1
@<TRIPOS>MOLECULE
*****
 28 32 0 0 0
SMALL
GASTEIGER

@<TRIPOS>ATOM
      1 C           3.5403   -1.9537   19.9070 C.3     1  UNL1        0.0627
      2 C           3.6722   -3.0516   18.8935 C.3     1  UNL1        0.0107
      3 C           4.6135   -4.1926   19.1421 C.3     1  UNL1        0.0060
      4 C           5.4231   -4.2357   20.4042 C.3     1  UNL1        0.0343
      5 C           5.2912   -3.1378   21.4177 C.ar    1  UNL1        0.0237
      6 S           5.9541   -2.9112   22.7440 S.2     1  UNL1       -0.0561
      7 C           5.4225   -1.6300   23.3151 C.ar    1  UNL1        0.1629
      8 N           4.4309   -1.0649   22.3417 N.ar    1  UNL1       -0.2284
      9 C           4.3498   -1.9968   21.1691 C.ar    1  UNL1        0.0666
     10 C           0.7160    1.4695   19.1613 C.ar    1  UNL1       -0.0000
     11 C           2.0294    1.4098   18.4391 C.ar    1  UNL1       -0.0003
     12 C           2.9708    0.2687   18.6877 C.ar    1  UNL1       -0.0039
     13 C           2.5989   -0.8126   19.6584 C.ar    1  UNL1       -0.0169
     14 C           1.2855   -0.7530   20.3805 C.ar    1  UNL1       -0.0039
     15 C           0.3441    0.3881   20.1320 C.ar    1  UNL1       -0.0003
     16 N           5.8138   -1.0210   24.6289 N.pl3   1  UNL1       -0.2927
     17 H           6.7645   -0.8815   24.8431 H       1  UNL1        0.1541
     18 C           4.7565   -0.6246   25.6163 C.ar    1  UNL1        0.0498
     19 C           4.4602   -1.5070   26.7926 C.ar    1  UNL1        0.0162
     20 C           3.4030   -1.1106   27.7801 C.ar    1  UNL1        0.0205
     21 C           2.6419    0.1682   27.5912 C.ar    1  UNL1        0.0847
     22 C           2.9381    1.0505   26.4148 C.ar    1  UNL1        0.0205
     23 C           3.9955    0.6541   25.4274 C.ar    1  UNL1        0.0162
     24 N           1.5846    0.5646   28.5786 N.ar    1  UNL1       -0.2079
     25 C           0.3007   -0.1668   28.8367 C.ar    1  UNL1        0.2016
     26 N          -0.4518    0.5786   29.8989 N.ar    1  UNL1       -0.2004
     27 C           0.3671    1.7706   30.2972 C.ar    1  UNL1        0.2214
     28 N           1.6256    1.7619   29.4812 N.ar    1  UNL1       -0.1409
@<TRIPOS>BOND
     1    10    11   ar
     2    11    12   ar
     3    12    13   ar
     4    13     1    1
     5     1     2    1
     6     2     3    1
     7     3     4    1
     8     4     5    1
     9     5     6   ar
    10     6     7   ar
    11     7    16    1
    12    16    18    1
    13    18    19   ar
    14    19    20   ar
    15    20    21   ar
    16    21    24    1
    17    24    25   ar
    18    25    26   ar
    19    26    27   ar
    20    27    28   ar
    21    21    22   ar
    22    22    23   ar
    23     7     8   ar
    24     8     9   ar
    25    13    14   ar
    26    14    15   ar
    27    15    10   ar
    28     9     1    1
    29     9     5   ar
    30    23    18   ar
    31    28    24   ar
    32    16    17    1
@<TRIPOS>MOLECULE
*****
 28 32 0 0 0
SMALL
GASTEIGER

@<TRIPOS>ATOM
      1 C          -3.0434    3.5596   23.9951 C.3     1  UNL1        0.0627
      2 C          -4.5253    3.4890   24.2158 C.3     1  UNL1        0.0107
      3 C          -5.4542    3.3864   23.0425 C.3     1  UNL1        0.0060
      4 C          -4.9011    3.3545   21.6485 C.3     1  UNL1        0.0343
      5 C          -3.4191    3.4251   21.4279 C.ar    1  UNL1        0.0237
      6 S          -2.5886    3.4147   20.1788 S.2     1  UNL1       -0.0561
      7 C          -1.1465    3.5108   20.5802 C.ar    1  UNL1        0.1629
      8 N          -1.0857    3.5806   22.0773 N.ar    1  UNL1       -0.2284
      9 C          -2.4902    3.5277   22.6012 C.ar    1  UNL1        0.0666
     10 C          -0.2566    3.8674   27.5151 C.ar    1  UNL1       -0.0000
     11 C          -0.3007    2.6081   26.7013 C.ar    1  UNL1       -0.0003
     12 C          -1.2297    2.5055   25.5279 C.ar    1  UNL1       -0.0039
     13 C          -2.1144    3.6622   25.1685 C.ar    1  UNL1       -0.0169
     14 C          -2.0703    4.9215   25.9823 C.ar    1  UNL1       -0.0039
     15 C          -1.1415    5.0241   27.1556 C.ar    1  UNL1       -0.0003
     16 N           0.0285    3.5331   19.6479 N.pl3   1  UNL1       -0.2927
     17 H           0.2508    4.3563   19.1558 H       1  UNL1        0.1541
     18 C           0.8647    2.3013   19.4656 C.ar    1  UNL1        0.0498
     19 C           2.1424    2.3713   18.6828 C.ar    1  UNL1        0.0162
     20 C           2.9786    1.1394   18.5005 C.ar    1  UNL1        0.0205
     21 C           2.5372   -0.1624   19.1010 C.ar    1  UNL1        0.0847
     22 C           1.2596   -0.2323   19.8838 C.ar    1  UNL1        0.0205
     23 C           0.4233    0.9996   20.0661 C.ar    1  UNL1        0.0162
     24 N           3.3735   -1.3942   18.9187 N.ar    1  UNL1       -0.2079
     25 C           4.5176   -1.5493   17.9611 C.ar    1  UNL1        0.2016
     26 N           5.0637   -2.9383   18.1126 N.ar    1  UNL1       -0.2004
     27 C           4.2570   -3.6414   19.1637 C.ar    1  UNL1        0.2214
     28 N           3.2124   -2.6872   19.6619 N.ar    1  UNL1       -0.1409
@<TRIPOS>BOND
     1    10    11   ar
     2    11    12   ar
     3    12    13   ar
     4    13     1    1
     5     1     2    1
     6     2     3    1
     7     3     4    1
     8     4     5    1
     9     5     6   ar
    10     6     7   ar
    11     7    16    1
    12    16    18    1
    13    18    19   ar
    14    19    20   ar
    15    20    21   ar
    16    21    24    1
    17    24    25   ar
    18    25    26   ar
    19    26    27   ar
    20    27    28   ar
    21    21    22   ar
    22    22    23   ar
    23     7     8   ar
    24     8     9   ar
    25    13    14   ar
    26    14    15   ar
    27    15    10   ar
    28     9     1    1
    29     9     5   ar
    30    23    18   ar
    31    28    24   ar
    32    16    17    1
@<TRIPOS>MOLECULE
*****
 28 32 0 0 0
SMALL
GASTEIGER

@<TRIPOS>ATOM
      1 C          -2.8109    3.5138   24.3623 C.3     1  UNL1        0.0627
      2 C          -4.2416    3.5902   24.8064 C.3     1  UNL1        0.0107
      3 C          -5.3427    3.6130   23.7882 C.3     1  UNL1        0.0060
      4 C          -5.0132    3.5594   22.3258 C.3     1  UNL1        0.0343
      5 C          -3.5825    3.4831   21.8817 C.ar    1  UNL1        0.0237
      6 S          -2.9562    3.4188   20.5202 S.2     1  UNL1       -0.0561
      7 C          -1.4680    3.3563   20.6970 C.ar    1  UNL1        0.1629
      8 N          -1.1745    3.3819   22.1678 N.ar    1  UNL1       -0.2284
      9 C          -2.4814    3.4603   22.9000 C.ar    1  UNL1        0.0666
     10 C           0.4928    3.4454   27.4171 C.ar    1  UNL1       -0.0000
     11 C          -0.2981    4.7006   27.1957 C.ar    1  UNL1       -0.0003
     12 C          -1.3993    4.7234   26.1774 C.ar    1  UNL1       -0.0039
     13 C          -1.7097    3.4910   25.3806 C.ar    1  UNL1       -0.0169
     14 C          -0.9188    2.2359   25.6020 C.ar    1  UNL1       -0.0039
     15 C           0.1824    2.2130   26.6202 C.ar    1  UNL1       -0.0003
     16 N          -0.4517    3.2812   19.5963 N.pl3   1  UNL1       -0.2927
     17 H          -0.3980    4.0004   18.9261 H       1  UNL1        0.1541
     18 C           0.4827    2.1106   19.5167 C.ar    1  UNL1        0.0498
     19 C           0.1595    0.8419   20.2488 C.ar    1  UNL1        0.0162
     20 C           1.0939   -0.3288   20.1692 C.ar    1  UNL1        0.0205
     21 C           2.3516   -0.2308   19.3575 C.ar    1  UNL1        0.0847
     22 C           2.6748    1.0379   18.6254 C.ar    1  UNL1        0.0205
     23 C           1.7403    2.2086   18.7050 C.ar    1  UNL1        0.0162
     24 N           3.2860   -1.4015   19.2779 N.ar    1  UNL1       -0.2079
     25 C           3.5627   -2.3849   20.3762 C.ar    1  UNL1        0.2016
     26 N           4.5555   -3.3856   19.8631 N.ar    1  UNL1       -0.2004
     27 C           4.8923   -3.0205   18.4477 C.ar    1  UNL1        0.2214
     28 N           4.1077   -1.7943   18.0861 N.ar    1  UNL1       -0.1409
@<TRIPOS>BOND
     1    10    11   ar
     2    11    12   ar
     3    12    13   ar
     4    13     1    1
     5     1     2    1
     6     2     3    1
     7     3     4    1
     8     4     5    1
     9     5     6   ar
    10     6     7   ar
    11     7    16    1
    12    16    18    1
    13    18    19   ar
    14    19    20   ar
    15    20    21   ar
    16    21    24    1
    17    24    25   ar
    18    25    26   ar
    19    26    27   ar
    20    27    28   ar
    21    21    22   ar
    22    22    23   ar
    23     7     8   ar
    24     8     9   ar
    25    13    14   ar
    26    14    15   ar
    27    15    10   ar
    28     9     1    1
    29     9     5   ar
    30    23    18   ar
    31    28    24   ar
    32    16    17    1
