@<TRIPOS>MOLECULE
*****
 34 38 0 0 0
SMALL
GASTEIGER

@<TRIPOS>ATOM
      1 N          -7.4836  -18.7286   21.7528 N.3     1  UNL1       -0.2679
      2 C          -8.8120  -19.1181   22.3306 C.3     1  UNL1        0.0978
      3 C          -8.8897  -20.1918   23.3751 C.3     1  UNL1        0.0224
      4 C         -10.2180  -20.5813   23.9529 C.3     1  UNL1        0.0065
      5 C         -11.4686  -19.8971   23.4862 C.3     1  UNL1        0.0277
      6 C         -11.3909  -18.8235   22.4416 C.ar    1  UNL1       -0.0073
      7 C         -12.6415  -18.1393   21.9747 C.ar    1  UNL1       -0.0015
      8 C         -12.5638  -17.0656   20.9302 C.ar    1  UNL1        0.0203
      9 C         -11.2355  -16.6761   20.3524 C.ar    1  UNL1        0.0985
     10 N          -9.9849  -17.3603   20.8191 N.ar    1  UNL1       -0.2471
     11 C         -10.0625  -18.4340   21.8638 C.ar    1  UNL1        0.0695
     12 C          -6.6052  -19.7691   21.1237 C.3     1  UNL1        0.0724
     13 C          -2.2578  -18.8861   20.3688 C.3     1  UNL1        0.0155
     14 C          -3.2577  -18.7319   19.2614 C.3     1  UNL1        0.0014
     15 C          -4.7068  -19.0262   19.5131 C.3     1  UNL1        0.0014
     16 C          -5.1561  -19.4748   20.8720 C.3     1  UNL1        0.0160
     17 C          -4.1562  -19.6291   21.9795 C.3     1  UNL1        0.0014
     18 C          -2.7070  -19.3347   21.7279 C.3     1  UNL1        0.0014
     19 N          -0.3916  -17.9062   18.8499 N.3     1  UNL1       -0.3211
     20 C          -0.8086  -18.5918   20.1172 C.3     1  UNL1        0.0651
     21 H           0.6214  -17.7866   18.8454 H       1  UNL1        0.1189
     22 H          -0.8420  -16.9927   18.7935 H       1  UNL1        0.1189
     23 C          -7.0337  -17.2986   21.8040 C.3     1  UNL1        0.0886
     24 C          -6.7689  -16.6427   23.1268 C.3     1  UNL1        0.0748
     25 C          -7.8898  -16.4450   24.1038 C.3     1  UNL1        0.0432
     26 C          -7.6249  -15.7891   25.4265 C.ar    1  UNL1       -0.0234
     27 C          -8.7458  -15.5915   26.4035 C.ar    1  UNL1       -0.0045
     28 C          -8.4809  -14.9355   27.7262 C.ar    1  UNL1       -0.0003
     29 C          -7.0951  -14.4772   28.0719 C.ar    1  UNL1       -0.0003
     30 C          -5.9742  -14.6748   27.0950 C.ar    1  UNL1       -0.0032
     31 C          -6.2391  -15.3308   25.7723 C.ar    1  UNL1       -0.0103
     32 C          -5.1182  -15.5284   24.7952 C.3     1  UNL1        0.0953
     33 N          -5.3831  -16.1844   23.4726 N.3     1  UNL1       -0.2934
     34 H          -4.7808  -17.0062   23.4256 H       1  UNL1        0.1236
@<TRIPOS>BOND
     1    19    20    1
     2    13    20    1
     3    13    14    1
     4    14    15    1
     5    15    16    1
     6    16    12    1
     7    12     1    1
     8     1    23    1
     9    24    23    1
    10    24    25    1
    11    25    26    1
    12    26    27   ar
    13    27    28   ar
    14    28    29   ar
    15    29    30   ar
    16    30    31   ar
    17    31    32    1
    18    32    33    1
    19     2     1    1
    20     2     3    1
    21     3     4    1
    22     4     5    1
    23     5     6    1
    24     6     7   ar
    25     7     8   ar
    26     8     9   ar
    27     9    10   ar
    28    10    11   ar
    29    16    17    1
    30    17    18    1
    31    18    13    1
    32    33    24    1
    33    11     2    1
    34    31    26   ar
    35    11     6   ar
    36    19    21    1
    37    19    22    1
    38    33    34    1
@<TRIPOS>MOLECULE
*****
 34 38 0 0 0
SMALL
GASTEIGER

@<TRIPOS>ATOM
      1 N          -8.7482  -17.5265   21.2218 N.3     1  UNL1       -0.2679
      2 C         -10.2350  -17.3305   21.2529 C.3     1  UNL1        0.0978
      3 C         -10.9264  -16.6537   20.1067 C.3     1  UNL1        0.0224
      4 C         -12.4132  -16.4577   20.1378 C.3     1  UNL1        0.0065
      5 C         -13.2086  -16.9385   21.3151 C.3     1  UNL1        0.0277
      6 C         -12.5172  -17.6152   22.4613 C.ar    1  UNL1       -0.0073
      7 C         -13.3126  -18.0960   23.6388 C.ar    1  UNL1       -0.0015
      8 C         -12.6212  -18.7728   24.7850 C.ar    1  UNL1        0.0203
      9 C         -11.1344  -18.9688   24.7539 C.ar    1  UNL1        0.0985
     10 N         -10.3390  -18.4880   23.5766 N.ar    1  UNL1       -0.2471
     11 C         -11.0304  -17.8112   22.4303 C.ar    1  UNL1        0.0695
     12 C          -8.1765  -18.8865   20.9512 C.3     1  UNL1        0.0724
     13 C          -3.7262  -19.5312   21.1214 C.3     1  UNL1        0.0155
     14 C          -4.3990  -19.2889   19.8029 C.3     1  UNL1        0.0014
     15 C          -5.8824  -19.0740   19.7462 C.3     1  UNL1        0.0014
     16 C          -6.6930  -19.1014   21.0079 C.3     1  UNL1        0.0160
     17 C          -6.0202  -19.3437   22.3266 C.3     1  UNL1        0.0014
     18 C          -4.5368  -19.5586   22.3833 C.3     1  UNL1        0.0014
     19 N          -1.3797  -18.8132   21.9751 N.3     1  UNL1       -0.3211
     20 C          -2.2427  -19.7461   21.1782 C.3     1  UNL1        0.0651
     21 H          -0.4053  -19.1061   21.9028 H       1  UNL1        0.1189
     22 H          -1.6693  -18.8339   22.9529 H       1  UNL1        0.1189
     23 C          -7.8331  -16.3624   21.4614 C.3     1  UNL1        0.0886
     24 C          -7.3615  -16.0527   22.8513 C.3     1  UNL1        0.0748
     25 C          -8.3585  -15.8359   23.9507 C.3     1  UNL1        0.0432
     26 C          -7.8869  -15.5262   25.3406 C.ar    1  UNL1       -0.0234
     27 C          -8.8839  -15.3094   26.4401 C.ar    1  UNL1       -0.0045
     28 C          -8.4123  -14.9997   27.8299 C.ar    1  UNL1       -0.0003
     29 C          -6.9436  -14.9068   28.1202 C.ar    1  UNL1       -0.0003
     30 C          -5.9465  -15.1236   27.0208 C.ar    1  UNL1       -0.0032
     31 C          -6.4182  -15.4333   25.6310 C.ar    1  UNL1       -0.0103
     32 C          -5.4211  -15.6501   24.5314 C.3     1  UNL1        0.0953
     33 N          -5.8928  -15.9598   23.1416 N.3     1  UNL1       -0.2934
     34 H          -5.4846  -16.8589   22.8856 H       1  UNL1        0.1236
@<TRIPOS>BOND
     1    19    20    1
     2    13    20    1
     3    13    14    1
     4    14    15    1
     5    15    16    1
     6    16    12    1
     7    12     1    1
     8     1    23    1
     9    24    23    1
    10    24    25    1
    11    25    26    1
    12    26    27   ar
    13    27    28   ar
    14    28    29   ar
    15    29    30   ar
    16    30    31   ar
    17    31    32    1
    18    32    33    1
    19     2     1    1
    20     2     3    1
    21     3     4    1
    22     4     5    1
    23     5     6    1
    24     6     7   ar
    25     7     8   ar
    26     8     9   ar
    27     9    10   ar
    28    10    11   ar
    29    16    17    1
    30    17    18    1
    31    18    13    1
    32    33    24    1
    33    11     2    1
    34    31    26   ar
    35    11     6   ar
    36    19    21    1
    37    19    22    1
    38    33    34    1
@<TRIPOS>MOLECULE
*****
 34 38 0 0 0
SMALL
GASTEIGER

@<TRIPOS>ATOM
      1 N          -7.6526  -18.4793   22.0909 N.3     1  UNL1       -0.2679
      2 C          -9.0351  -18.8273   22.5574 C.3     1  UNL1        0.0978
      3 C          -9.2330  -19.9150   23.5711 C.3     1  UNL1        0.0224
      4 C         -10.6155  -20.2630   24.0375 C.3     1  UNL1        0.0065
      5 C         -11.8001  -19.5233   23.4903 C.3     1  UNL1        0.0277
      6 C         -11.6022  -18.4356   22.4765 C.ar    1  UNL1       -0.0073
      7 C         -12.7868  -17.6959   21.9292 C.ar    1  UNL1       -0.0015
      8 C         -12.5889  -16.6082   20.9155 C.ar    1  UNL1        0.0203
      9 C         -11.2064  -16.2602   20.4490 C.ar    1  UNL1        0.0985
     10 N         -10.0218  -16.9999   20.9963 N.ar    1  UNL1       -0.2471
     11 C         -10.2197  -18.0876   22.0101 C.ar    1  UNL1        0.0695
     12 C          -7.1456  -17.0745   22.2299 C.3     1  UNL1        0.0724
     13 C          -6.7598  -15.2148   26.3094 C.3     1  UNL1        0.0155
     14 C          -8.1182  -15.4974   25.7394 C.3     1  UNL1        0.0014
     15 C          -8.2468  -16.1173   24.3796 C.3     1  UNL1        0.0014
     16 C          -7.0170  -16.4546   23.5897 C.3     1  UNL1        0.0160
     17 C          -5.6586  -16.1719   24.1597 C.3     1  UNL1        0.0014
     18 C          -5.5300  -15.5520   25.5195 C.3     1  UNL1        0.0014
     19 N          -7.8257  -13.9647   28.3222 N.3     1  UNL1       -0.3211
     20 C          -6.6312  -14.5949   27.6693 C.3     1  UNL1        0.0651
     21 H          -7.5591  -13.5962   29.2352 H       1  UNL1        0.1189
     22 H          -8.5583  -14.6648   28.4388 H       1  UNL1        0.1189
     23 C          -6.7771  -19.5361   21.4855 C.3     1  UNL1        0.0886
     24 C          -5.3037  -19.2960   21.3388 C.3     1  UNL1        0.0748
     25 C          -4.7517  -18.7923   20.0382 C.3     1  UNL1        0.0432
     26 C          -3.2783  -18.5522   19.8915 C.ar    1  UNL1       -0.0234
     27 C          -2.7263  -18.0485   18.5909 C.ar    1  UNL1       -0.0045
     28 C          -1.2529  -17.8084   18.4443 C.ar    1  UNL1       -0.0003
     29 C          -0.3316  -18.0720   19.5982 C.ar    1  UNL1       -0.0003
     30 C          -0.8835  -18.5756   20.8988 C.ar    1  UNL1       -0.0032
     31 C          -2.3569  -18.8158   21.0455 C.ar    1  UNL1       -0.0103
     32 C          -2.9089  -19.3194   22.3461 C.3     1  UNL1        0.0953
     33 N          -4.3823  -19.5596   22.4928 N.3     1  UNL1       -0.2934
     34 H          -4.7009  -18.9729   23.2639 H       1  UNL1        0.1236
@<TRIPOS>BOND
     1    19    20    1
     2    13    20    1
     3    13    14    1
     4    14    15    1
     5    15    16    1
     6    16    12    1
     7    12     1    1
     8     1    23    1
     9    24    23    1
    10    24    25    1
    11    25    26    1
    12    26    27   ar
    13    27    28   ar
    14    28    29   ar
    15    29    30   ar
    16    30    31   ar
    17    31    32    1
    18    32    33    1
    19     2     1    1
    20     2     3    1
    21     3     4    1
    22     4     5    1
    23     5     6    1
    24     6     7   ar
    25     7     8   ar
    26     8     9   ar
    27     9    10   ar
    28    10    11   ar
    29    16    17    1
    30    17    18    1
    31    18    13    1
    32    33    24    1
    33    11     2    1
    34    31    26   ar
    35    11     6   ar
    36    19    21    1
    37    19    22    1
    38    33    34    1
@<TRIPOS>MOLECULE
*****
 34 38 0 0 0
SMALL
GASTEIGER

@<TRIPOS>ATOM
      1 N          -7.3829  -19.0418   22.0005 N.3     1  UNL1       -0.2679
      2 C          -6.2494  -19.6572   21.2345 C.3     1  UNL1        0.0978
      3 C          -6.5332  -20.6081   20.1097 C.3     1  UNL1        0.0224
      4 C          -5.3998  -21.2234   19.3438 C.3     1  UNL1        0.0065
      5 C          -3.9826  -20.8879   19.7027 C.3     1  UNL1        0.0277
      6 C          -3.6988  -19.9370   20.8275 C.ar    1  UNL1       -0.0073
      7 C          -2.2815  -19.6014   21.1864 C.ar    1  UNL1       -0.0015
      8 C          -1.9977  -18.6505   22.3112 C.ar    1  UNL1        0.0203
      9 C          -3.1311  -18.0352   23.0772 C.ar    1  UNL1        0.0985
     10 N          -4.5484  -18.3707   22.7183 N.ar    1  UNL1       -0.2471
     11 C          -4.8322  -19.3217   21.5934 C.ar    1  UNL1        0.0695
     12 C          -8.3424  -19.9162   22.7519 C.3     1  UNL1        0.0724
     13 C         -12.4910  -18.4344   23.6704 C.3     1  UNL1        0.0155
     14 C         -11.9994  -18.4575   22.2534 C.3     1  UNL1        0.0014
     15 C         -10.6165  -18.9514   21.9473 C.3     1  UNL1        0.0014
     16 C          -9.7253  -19.4223   23.0580 C.3     1  UNL1        0.0160
     17 C         -10.2168  -19.3992   24.4751 C.3     1  UNL1        0.0014
     18 C         -11.5997  -18.9052   24.7812 C.3     1  UNL1        0.0014
     19 N         -14.6029  -18.4521   25.1834 N.3     1  UNL1       -0.3211
     20 C         -13.8738  -17.9404   23.9765 C.3     1  UNL1        0.0651
     21 H         -15.5220  -18.0131   25.2370 H       1  UNL1        0.1189
     22 H         -14.0695  -18.2278   26.0234 H       1  UNL1        0.1189
     23 C          -7.5568  -17.5520   22.0150 C.3     1  UNL1        0.0886
     24 C          -7.1891  -16.7659   23.2385 C.3     1  UNL1        0.0748
     25 C          -8.1619  -16.6472   24.3741 C.3     1  UNL1        0.0432
     26 C          -7.7942  -15.8611   25.5976 C.ar    1  UNL1       -0.0234
     27 C          -8.7669  -15.7424   26.7332 C.ar    1  UNL1       -0.0045
     28 C          -8.3992  -14.9563   27.9566 C.ar    1  UNL1       -0.0003
     29 C          -7.0588  -14.2889   28.0444 C.ar    1  UNL1       -0.0003
     30 C          -6.0861  -14.4075   26.9088 C.ar    1  UNL1       -0.0032
     31 C          -6.4537  -15.1936   25.6854 C.ar    1  UNL1       -0.0103
     32 C          -5.4810  -15.3123   24.5497 C.3     1  UNL1        0.0953
     33 N          -5.8487  -16.0984   23.3263 N.3     1  UNL1       -0.2934
     34 H          -5.1473  -16.8322   23.2260 H       1  UNL1        0.1236
@<TRIPOS>BOND
     1    19    20    1
     2    13    20    1
     3    13    14    1
     4    14    15    1
     5    15    16    1
     6    16    12    1
     7    12     1    1
     8     1    23    1
     9    24    23    1
    10    24    25    1
    11    25    26    1
    12    26    27   ar
    13    27    28   ar
    14    28    29   ar
    15    29    30   ar
    16    30    31   ar
    17    31    32    1
    18    32    33    1
    19     2     1    1
    20     2     3    1
    21     3     4    1
    22     4     5    1
    23     5     6    1
    24     6     7   ar
    25     7     8   ar
    26     8     9   ar
    27     9    10   ar
    28    10    11   ar
    29    16    17    1
    30    17    18    1
    31    18    13    1
    32    33    24    1
    33    11     2    1
    34    31    26   ar
    35    11     6   ar
    36    19    21    1
    37    19    22    1
    38    33    34    1
@<TRIPOS>MOLECULE
*****
 34 38 0 0 0
SMALL
GASTEIGER

@<TRIPOS>ATOM
      1 N          -5.9964  -19.2744   21.2715 N.3     1  UNL1       -0.2679
      2 C          -5.5201  -18.3696   22.3689 C.3     1  UNL1        0.0978
      3 C          -4.2428  -18.6766   23.0929 C.3     1  UNL1        0.0224
      4 C          -3.7666  -17.7718   24.1904 C.3     1  UNL1        0.0065
      5 C          -4.5677  -16.5599   24.5639 C.3     1  UNL1        0.0277
      6 C          -5.8450  -16.2528   23.8400 C.ar    1  UNL1       -0.0073
      7 C          -6.6461  -15.0409   24.2135 C.ar    1  UNL1       -0.0015
      8 C          -7.9234  -14.7338   23.4895 C.ar    1  UNL1        0.0203
      9 C          -8.3996  -15.6386   22.3920 C.ar    1  UNL1        0.0985
     10 N          -7.5986  -16.8505   22.0185 N.ar    1  UNL1       -0.2471
     11 C          -6.3212  -17.1577   22.7425 C.ar    1  UNL1        0.0695
     12 C          -5.2845  -19.2911   19.9513 C.3     1  UNL1        0.0724
     13 C          -0.9381  -18.1478   19.7240 C.3     1  UNL1        0.0155
     14 C          -1.3610  -19.3288   20.5464 C.3     1  UNL1        0.0014
     15 C          -2.8098  -19.7099   20.6222 C.3     1  UNL1        0.0014
     16 C          -3.8357  -18.9100   19.8755 C.3     1  UNL1        0.0160
     17 C          -3.4129  -17.7290   19.0530 C.3     1  UNL1        0.0014
     18 C          -1.9641  -17.3479   18.9773 C.3     1  UNL1        0.0014
     19 N           1.4099  -17.9991   20.8262 N.3     1  UNL1       -0.3211
     20 C           0.5107  -17.7667   19.6482 C.3     1  UNL1        0.0651
     21 H           2.3534  -17.6837   20.6011 H       1  UNL1        0.1189
     22 H           1.4282  -18.9944   21.0488 H       1  UNL1        0.1189
     23 C          -7.1845  -20.1625   21.4942 C.3     1  UNL1        0.0886
     24 C          -8.5551  -19.5651   21.6162 C.3     1  UNL1        0.0748
     25 C          -9.2854  -19.6249   22.9250 C.3     1  UNL1        0.0432
     26 C         -10.6560  -19.0276   23.0471 C.ar    1  UNL1       -0.0234
     27 C         -11.3864  -19.0874   24.3558 C.ar    1  UNL1       -0.0045
     28 C         -12.7568  -18.4901   24.4779 C.ar    1  UNL1       -0.0003
     29 C         -13.3969  -17.8328   23.2911 C.ar    1  UNL1       -0.0003
     30 C         -12.6665  -17.7730   21.9824 C.ar    1  UNL1       -0.0032
     31 C         -11.2961  -18.3703   21.8603 C.ar    1  UNL1       -0.0103
     32 C         -10.5656  -18.3105   20.5515 C.3     1  UNL1        0.0953
     33 N          -9.1951  -18.9079   20.4295 N.3     1  UNL1       -0.2934
     34 H          -8.5711  -18.1558   20.1372 H       1  UNL1        0.1236
@<TRIPOS>BOND
     1    19    20    1
     2    13    20    1
     3    13    14    1
     4    14    15    1
     5    15    16    1
     6    16    12    1
     7    12     1    1
     8     1    23    1
     9    24    23    1
    10    24    25    1
    11    25    26    1
    12    26    27   ar
    13    27    28   ar
    14    28    29   ar
    15    29    30   ar
    16    30    31   ar
    17    31    32    1
    18    32    33    1
    19     2     1    1
    20     2     3    1
    21     3     4    1
    22     4     5    1
    23     5     6    1
    24     6     7   ar
    25     7     8   ar
    26     8     9   ar
    27     9    10   ar
    28    10    11   ar
    29    16    17    1
    30    17    18    1
    31    18    13    1
    32    33    24    1
    33    11     2    1
    34    31    26   ar
    35    11     6   ar
    36    19    21    1
    37    19    22    1
    38    33    34    1
@<TRIPOS>MOLECULE
*****
 34 38 0 0 0
SMALL
GASTEIGER

@<TRIPOS>ATOM
      1 N          -6.9596  -18.6043   21.3968 N.3     1  UNL1       -0.2679
      2 C          -8.3807  -19.0018   21.1276 C.3     1  UNL1        0.0978
      3 C          -8.8433  -19.2234   19.7180 C.3     1  UNL1        0.0224
      4 C         -10.2644  -19.6209   19.4488 C.3     1  UNL1        0.0065
      5 C         -11.2229  -19.7968   20.5891 C.3     1  UNL1        0.0277
      6 C         -10.7603  -19.5752   21.9986 C.ar    1  UNL1       -0.0073
      7 C         -11.7188  -19.7511   23.1390 C.ar    1  UNL1       -0.0015
      8 C         -11.2562  -19.5295   24.5485 C.ar    1  UNL1        0.0203
      9 C          -9.8351  -19.1320   24.8178 C.ar    1  UNL1        0.0985
     10 N          -8.8766  -18.9561   23.6775 N.ar    1  UNL1       -0.2471
     11 C          -9.3392  -19.1777   22.2679 C.ar    1  UNL1        0.0695
     12 C          -5.8857  -19.6501   21.4509 C.3     1  UNL1        0.0724
     13 C          -1.6748  -18.6154   20.2475 C.3     1  UNL1        0.0155
     14 C          -1.9993  -18.8823   21.6875 C.3     1  UNL1        0.0014
     15 C          -3.4029  -19.2272   22.0886 C.3     1  UNL1        0.0014
     16 C          -4.4821  -19.3052   21.0498 C.3     1  UNL1        0.0160
     17 C          -4.1577  -19.0383   19.6097 C.3     1  UNL1        0.0014
     18 C          -2.7541  -18.6934   19.2086 C.3     1  UNL1        0.0014
     19 N           0.2386  -16.8715   20.0286 N.3     1  UNL1       -0.3211
     20 C          -0.2712  -18.2705   19.8464 C.3     1  UNL1        0.0651
     21 H           1.2045  -16.8169   19.7055 H       1  UNL1        0.1189
     22 H           0.1956  -16.6199   21.0162 H       1  UNL1        0.1189
     23 C          -6.6125  -17.1610   21.6120 C.3     1  UNL1        0.0886
     24 C          -6.4657  -16.6246   23.0052 C.3     1  UNL1        0.0748
     25 C          -7.6846  -16.3430   23.8327 C.3     1  UNL1        0.0432
     26 C          -7.5378  -15.8066   25.2259 C.ar    1  UNL1       -0.0234
     27 C          -8.7568  -15.5250   26.0534 C.ar    1  UNL1       -0.0045
     28 C          -8.6099  -14.9886   27.4465 C.ar    1  UNL1       -0.0003
     29 C          -7.2442  -14.7337   28.0120 C.ar    1  UNL1       -0.0003
     30 C          -6.0253  -15.0153   27.1844 C.ar    1  UNL1       -0.0032
     31 C          -6.1721  -15.5517   25.7914 C.ar    1  UNL1       -0.0103
     32 C          -4.9531  -15.8333   24.9637 C.3     1  UNL1        0.0953
     33 N          -5.0999  -16.3697   23.5707 N.3     1  UNL1       -0.2934
     34 H          -4.5993  -17.2579   23.5429 H       1  UNL1        0.1236
@<TRIPOS>BOND
     1    19    20    1
     2    13    20    1
     3    13    14    1
     4    14    15    1
     5    15    16    1
     6    16    12    1
     7    12     1    1
     8     1    23    1
     9    24    23    1
    10    24    25    1
    11    25    26    1
    12    26    27   ar
    13    27    28   ar
    14    28    29   ar
    15    29    30   ar
    16    30    31   ar
    17    31    32    1
    18    32    33    1
    19     2     1    1
    20     2     3    1
    21     3     4    1
    22     4     5    1
    23     5     6    1
    24     6     7   ar
    25     7     8   ar
    26     8     9   ar
    27     9    10   ar
    28    10    11   ar
    29    16    17    1
    30    17    18    1
    31    18    13    1
    32    33    24    1
    33    11     2    1
    34    31    26   ar
    35    11     6   ar
    36    19    21    1
    37    19    22    1
    38    33    34    1
@<TRIPOS>MOLECULE
*****
 34 38 0 0 0
SMALL
GASTEIGER

@<TRIPOS>ATOM
      1 N          -7.9224  -17.2449   22.6252 N.3     1  UNL1       -0.2679
      2 C          -7.1727  -16.4471   23.6507 C.3     1  UNL1        0.0978
      3 C          -5.9856  -15.6266   23.2415 C.3     1  UNL1        0.0224
      4 C          -5.2359  -14.8289   24.2670 C.3     1  UNL1        0.0065
      5 C          -5.6733  -14.8516   25.7016 C.3     1  UNL1        0.0277
      6 C          -6.8604  -15.6722   26.1107 C.ar    1  UNL1       -0.0073
      7 C          -7.2979  -15.6950   27.5454 C.ar    1  UNL1       -0.0015
      8 C          -8.4850  -16.5156   27.9545 C.ar    1  UNL1        0.0203
      9 C          -9.2347  -17.3133   26.9290 C.ar    1  UNL1        0.0985
     10 N          -8.7973  -17.2905   25.4944 N.ar    1  UNL1       -0.2471
     11 C          -7.6101  -16.4699   25.0852 C.ar    1  UNL1        0.0695
     12 C          -9.2175  -16.7278   22.0727 C.3     1  UNL1        0.0724
     13 C         -13.1163  -17.9532   23.9562 C.3     1  UNL1        0.0155
     14 C         -11.8816  -18.7733   24.1864 C.3     1  UNL1        0.0014
     15 C         -10.5820  -18.3649   23.5586 C.3     1  UNL1        0.0014
     16 C         -10.5171  -17.1363   22.7005 C.3     1  UNL1        0.0160
     17 C         -11.7517  -16.3161   22.4703 C.3     1  UNL1        0.0014
     18 C         -13.0513  -16.7246   23.0981 C.3     1  UNL1        0.0014
     19 N         -14.4716  -18.6906   26.0465 N.3     1  UNL1       -0.3211
     20 C         -14.4159  -18.3617   24.5841 C.3     1  UNL1        0.0651
     21 H         -15.4257  -18.9458   26.3015 H       1  UNL1        0.1189
     22 H         -14.1805  -17.8775   26.5893 H       1  UNL1        0.1189
     23 C          -7.3770  -18.5597   22.1523 C.3     1  UNL1        0.0886
     24 C          -6.0845  -18.6059   21.3923 C.3     1  UNL1        0.0748
     25 C          -4.7790  -18.5774   22.1304 C.3     1  UNL1        0.0432
     26 C          -3.4865  -18.6236   21.3705 C.ar    1  UNL1       -0.0234
     27 C          -2.1811  -18.5951   22.1086 C.ar    1  UNL1       -0.0045
     28 C          -0.8887  -18.6413   21.3487 C.ar    1  UNL1       -0.0003
     29 C          -0.9018  -18.7159   19.8506 C.ar    1  UNL1       -0.0003
     30 C          -2.2072  -18.7444   19.1125 C.ar    1  UNL1       -0.0032
     31 C          -3.4996  -18.6982   19.8724 C.ar    1  UNL1       -0.0103
     32 C          -4.8052  -18.7267   19.1343 C.3     1  UNL1        0.0953
     33 N          -6.0976  -18.6805   19.8942 N.3     1  UNL1       -0.2934
     34 H          -6.6154  -19.5235   19.6459 H       1  UNL1        0.1236
@<TRIPOS>BOND
     1    19    20    1
     2    13    20    1
     3    13    14    1
     4    14    15    1
     5    15    16    1
     6    16    12    1
     7    12     1    1
     8     1    23    1
     9    24    23    1
    10    24    25    1
    11    25    26    1
    12    26    27   ar
    13    27    28   ar
    14    28    29   ar
    15    29    30   ar
    16    30    31   ar
    17    31    32    1
    18    32    33    1
    19     2     1    1
    20     2     3    1
    21     3     4    1
    22     4     5    1
    23     5     6    1
    24     6     7   ar
    25     7     8   ar
    26     8     9   ar
    27     9    10   ar
    28    10    11   ar
    29    16    17    1
    30    17    18    1
    31    18    13    1
    32    33    24    1
    33    11     2    1
    34    31    26   ar
    35    11     6   ar
    36    19    21    1
    37    19    22    1
    38    33    34    1
@<TRIPOS>MOLECULE
*****
 34 38 0 0 0
SMALL
GASTEIGER

@<TRIPOS>ATOM
      1 N          -6.4262  -18.5835   21.9886 N.3     1  UNL1       -0.2679
      2 C          -5.2916  -19.1802   21.2097 C.3     1  UNL1        0.0978
      3 C          -5.5088  -20.4261   20.4034 C.3     1  UNL1        0.0224
      4 C          -4.3742  -21.0228   19.6245 C.3     1  UNL1        0.0065
      5 C          -3.0223  -20.3734   19.6520 C.3     1  UNL1        0.0277
      6 C          -2.8051  -19.1275   20.4584 C.ar    1  UNL1       -0.0073
      7 C          -1.4532  -18.4780   20.4859 C.ar    1  UNL1       -0.0015
      8 C          -1.2360  -17.2321   21.2923 C.ar    1  UNL1        0.0203
      9 C          -2.3706  -16.6354   22.0712 C.ar    1  UNL1        0.0985
     10 N          -3.7224  -17.2848   22.0437 N.ar    1  UNL1       -0.2471
     11 C          -3.9397  -18.5308   21.2372 C.ar    1  UNL1        0.0695
     12 C          -6.5051  -17.0979   22.1801 C.3     1  UNL1        0.0724
     13 C          -7.0386  -15.3864   26.3076 C.3     1  UNL1        0.0155
     14 C          -5.6638  -15.7070   25.8005 C.3     1  UNL1        0.0014
     15 C          -5.4860  -16.2774   24.4247 C.3     1  UNL1        0.0014
     16 C          -6.6829  -16.5274   23.5559 C.3     1  UNL1        0.0160
     17 C          -8.0578  -16.2069   24.0630 C.3     1  UNL1        0.0014
     18 C          -8.2356  -15.6364   25.4388 C.3     1  UNL1        0.0014
     19 N          -8.5626  -14.3199   28.1214 N.3     1  UNL1       -0.3211
     20 C          -7.2164  -14.8159   27.6834 C.3     1  UNL1        0.0651
     21 H          -8.5011  -13.9687   29.0771 H       1  UNL1        0.1189
     22 H          -9.2360  -15.0851   28.0830 H       1  UNL1        0.1189
     23 C          -7.4820  -19.4725   22.5760 C.3     1  UNL1        0.0886
     24 C          -8.9195  -19.0445   22.5552 C.3     1  UNL1        0.0748
     25 C          -9.7670  -19.2029   23.7826 C.3     1  UNL1        0.0432
     26 C         -11.2046  -18.7749   23.7617 C.ar    1  UNL1       -0.0234
     27 C         -12.0521  -18.9332   24.9892 C.ar    1  UNL1       -0.0045
     28 C         -13.4896  -18.5053   24.9683 C.ar    1  UNL1       -0.0003
     29 C         -14.0796  -17.9190   23.7200 C.ar    1  UNL1       -0.0003
     30 C         -13.2320  -17.7607   22.4926 C.ar    1  UNL1       -0.0032
     31 C         -11.7946  -18.1886   22.5134 C.ar    1  UNL1       -0.0103
     32 C         -10.9469  -18.0303   21.2860 C.3     1  UNL1        0.0953
     33 N          -9.5095  -18.4583   21.3069 N.3     1  UNL1       -0.2934
     34 H          -8.9536  -17.6344   21.0773 H       1  UNL1        0.1236
@<TRIPOS>BOND
     1    19    20    1
     2    13    20    1
     3    13    14    1
     4    14    15    1
     5    15    16    1
     6    16    12    1
     7    12     1    1
     8     1    23    1
     9    24    23    1
    10    24    25    1
    11    25    26    1
    12    26    27   ar
    13    27    28   ar
    14    28    29   ar
    15    29    30   ar
    16    30    31   ar
    17    31    32    1
    18    32    33    1
    19     2     1    1
    20     2     3    1
    21     3     4    1
    22     4     5    1
    23     5     6    1
    24     6     7   ar
    25     7     8   ar
    26     8     9   ar
    27     9    10   ar
    28    10    11   ar
    29    16    17    1
    30    17    18    1
    31    18    13    1
    32    33    24    1
    33    11     2    1
    34    31    26   ar
    35    11     6   ar
    36    19    21    1
    37    19    22    1
    38    33    34    1
@<TRIPOS>MOLECULE
*****
 34 38 0 0 0
SMALL
GASTEIGER

@<TRIPOS>ATOM
      1 N          -0.0646    2.3152   20.3729 N.3     1  UNL1       -0.2679
      2 C          -0.8435    3.1294   19.3827 C.3     1  UNL1        0.0978
      3 C          -0.1685    3.6619   18.1535 C.3     1  UNL1        0.0224
      4 C          -0.9473    4.4761   17.1633 C.3     1  UNL1        0.0065
      5 C          -2.4011    4.7577   17.4023 C.3     1  UNL1        0.0277
      6 C          -3.0761    4.2252   18.6314 C.ar    1  UNL1       -0.0073
      7 C          -4.5299    4.5069   18.8704 C.ar    1  UNL1       -0.0015
      8 C          -5.2049    3.9744   20.0995 C.ar    1  UNL1        0.0203
      9 C          -4.4260    3.1602   21.0897 C.ar    1  UNL1        0.0985
     10 N          -2.9723    2.8785   20.8508 N.ar    1  UNL1       -0.2471
     11 C          -2.2972    3.4110   19.6216 C.ar    1  UNL1        0.0695
     12 C           0.0173    0.8253   20.2196 C.3     1  UNL1        0.0724
     13 C           3.7780   -1.0701   18.6340 C.3     1  UNL1        0.0155
     14 C           3.1035    0.0217   17.8575 C.3     1  UNL1        0.0014
     15 C           1.8499    0.6535   18.3861 C.3     1  UNL1        0.0014
     16 C           1.2708    0.1935   19.6910 C.3     1  UNL1        0.0160
     17 C           1.9453   -0.8984   20.4675 C.3     1  UNL1        0.0014
     18 C           3.1989   -1.5302   19.9390 C.3     1  UNL1        0.0014
     19 N           5.0559   -3.1675   17.7865 N.3     1  UNL1       -0.3211
     20 C           5.0316   -1.7019   18.1054 C.3     1  UNL1        0.0651
     21 H           5.9804   -3.4250   17.4410 H       1  UNL1        0.1189
     22 H           4.3570   -3.3716   17.0722 H       1  UNL1        0.1189
     23 C           0.6323    2.9908   21.5164 C.3     1  UNL1        0.0886
     24 C           0.1182    2.8190   22.9151 C.3     1  UNL1        0.0748
     25 C           0.9160    2.0379   23.9168 C.3     1  UNL1        0.0432
     26 C           0.4019    1.8661   25.3154 C.ar    1  UNL1       -0.0234
     27 C           1.1997    1.0851   26.3171 C.ar    1  UNL1       -0.0045
     28 C           0.6855    0.9133   27.7157 C.ar    1  UNL1       -0.0003
     29 C          -0.6264    1.5226   28.1126 C.ar    1  UNL1       -0.0003
     30 C          -1.4242    2.3036   27.1110 C.ar    1  UNL1       -0.0032
     31 C          -0.9101    2.4754   25.7124 C.ar    1  UNL1       -0.0103
     32 C          -1.7079    3.2565   24.7106 C.3     1  UNL1        0.0953
     33 N          -1.1938    3.4283   23.3120 N.3     1  UNL1       -0.2934
     34 H          -1.1136    4.4320   23.1490 H       1  UNL1        0.1236
@<TRIPOS>BOND
     1    19    20    1
     2    13    20    1
     3    13    14    1
     4    14    15    1
     5    15    16    1
     6    16    12    1
     7    12     1    1
     8     1    23    1
     9    24    23    1
    10    24    25    1
    11    25    26    1
    12    26    27   ar
    13    27    28   ar
    14    28    29   ar
    15    29    30   ar
    16    30    31   ar
    17    31    32    1
    18    32    33    1
    19     2     1    1
    20     2     3    1
    21     3     4    1
    22     4     5    1
    23     5     6    1
    24     6     7   ar
    25     7     8   ar
    26     8     9   ar
    27     9    10   ar
    28    10    11   ar
    29    16    17    1
    30    17    18    1
    31    18    13    1
    32    33    24    1
    33    11     2    1
    34    31    26   ar
    35    11     6   ar
    36    19    21    1
    37    19    22    1
    38    33    34    1
