@<TRIPOS>MOLECULE
*****
 18 19 0 0 0
SMALL
GASTEIGER

@<TRIPOS>ATOM
      1 N          -8.3116  -16.9653   22.5492 N.pl3   1  UNL1       -0.2872
      2 C          -9.7139  -16.8413   22.0311 C.ar    1  UNL1        0.1320
      3 C         -10.8178  -16.4101   22.9505 C.ar    1  UNL1        0.0343
      4 C         -12.2199  -16.2861   22.4324 C.ar    1  UNL1        0.0045
      5 C         -12.5182  -16.5934   20.9948 C.ar    1  UNL1        0.0208
      6 C         -11.4143  -17.0246   20.0753 C.ar    1  UNL1        0.1003
      7 N         -10.0122  -17.1486   20.5935 N.ar    1  UNL1       -0.2292
      8 C          -7.6113  -18.2912   22.5079 C.3     1  UNL1        0.1098
      9 C          -6.8488  -18.6988   21.2822 C.3     1  UNL1        0.0939
     10 C          -4.6153  -18.4268   22.5811 C.3     1  UNL1        0.0897
     11 N          -5.3508  -18.7660   21.3186 N.3     1  UNL1       -0.2688
     12 C          -4.5882  -19.1723   20.0925 C.3     1  UNL1        0.0897
     13 C          -7.6097  -15.7635   23.1085 C.3     1  UNL1        0.1254
     14 C          -7.3841  -15.6472   24.5868 C.ar    1  UNL1        0.0272
     15 C          -8.4421  -15.7124   25.6481 C.ar    1  UNL1        0.0044
     16 C          -7.7727  -15.5508   26.9807 C.ar    1  UNL1        0.0072
     17 C          -6.3008  -15.3858   26.7429 C.ar    1  UNL1        0.0352
     18 S          -6.0607  -15.4454   25.2635 S.2     1  UNL1       -0.0891
@<TRIPOS>BOND
     1    10    11    1
     2    11    12    1
     3    11     9    1
     4     9     8    1
     5     8     1    1
     6     1    13    1
     7    13    14    1
     8    14    15   ar
     9    15    16   ar
    10    16    17   ar
    11    17    18   ar
    12     1     2    1
    13     2     3   ar
    14     3     4   ar
    15     4     5   ar
    16     5     6   ar
    17     6     7   ar
    18    18    14   ar
    19     7     2   ar
@<TRIPOS>MOLECULE
*****
 18 19 0 0 0
SMALL
GASTEIGER

@<TRIPOS>ATOM
      1 N          -8.1305  -16.4922   22.6770 N.pl3   1  UNL1       -0.2872
      2 C          -7.2122  -17.6495   22.4170 C.ar    1  UNL1        0.1320
      3 C          -7.7662  -18.9462   21.9055 C.ar    1  UNL1        0.0343
      4 C          -6.8479  -20.1035   21.6456 C.ar    1  UNL1        0.0045
      5 C          -5.3758  -19.9640   21.8972 C.ar    1  UNL1        0.0208
      6 C          -4.8219  -18.6673   22.4087 C.ar    1  UNL1        0.1003
      7 N          -5.7401  -17.5101   22.6686 N.ar    1  UNL1       -0.2292
      8 C          -9.5395  -16.5228   22.1636 C.3     1  UNL1        0.1098
      9 C         -10.6523  -16.9905   23.0542 C.3     1  UNL1        0.0939
     10 C         -12.3318  -16.7685   21.0845 C.3     1  UNL1        0.0897
     11 N         -12.0307  -17.1820   22.4946 N.3     1  UNL1       -0.2688
     12 C         -13.1081  -17.7870   23.3450 C.3     1  UNL1        0.0897
     13 C          -7.6396  -15.3043   23.4502 C.3     1  UNL1        0.1254
     14 C          -7.5149  -15.3806   24.9431 C.ar    1  UNL1        0.0272
     15 C          -8.6472  -15.5262   25.9161 C.ar    1  UNL1        0.0044
     16 C          -8.0682  -15.5602   27.2994 C.ar    1  UNL1        0.0072
     17 C          -6.5780  -15.4356   27.1813 C.ar    1  UNL1        0.0352
     18 S          -6.2361  -15.3246   25.7250 S.2     1  UNL1       -0.0891
@<TRIPOS>BOND
     1    10    11    1
     2    11    12    1
     3    11     9    1
     4     9     8    1
     5     8     1    1
     6     1    13    1
     7    13    14    1
     8    14    15   ar
     9    15    16   ar
    10    16    17   ar
    11    17    18   ar
    12     1     2    1
    13     2     3   ar
    14     3     4   ar
    15     4     5   ar
    16     5     6   ar
    17     6     7   ar
    18    18    14   ar
    19     7     2   ar
@<TRIPOS>MOLECULE
*****
 18 19 0 0 0
SMALL
GASTEIGER

@<TRIPOS>ATOM
      1 N          -7.9814  -16.8606   23.0665 N.pl3   1  UNL1       -0.2872
      2 C          -7.5098  -16.3107   24.3801 C.ar    1  UNL1        0.1320
      3 C          -8.4628  -16.2024   25.5334 C.ar    1  UNL1        0.0343
      4 C          -7.9912  -15.6526   26.8468 C.ar    1  UNL1        0.0045
      5 C          -6.5667  -15.2110   27.0070 C.ar    1  UNL1        0.0208
      6 C          -5.6137  -15.3193   25.8538 C.ar    1  UNL1        0.1003
      7 N          -6.0853  -15.8692   24.5403 N.ar    1  UNL1       -0.2292
      8 C          -7.5943  -18.2493   22.6524 C.3     1  UNL1        0.1098
      9 C          -6.9097  -18.4764   21.3372 C.3     1  UNL1        0.0939
     10 C          -4.6065  -18.6007   22.5328 C.3     1  UNL1        0.0897
     11 N          -5.4403  -18.7753   21.2982 N.3     1  UNL1       -0.2688
     12 C          -4.8048  -19.2490   20.0247 C.3     1  UNL1        0.0897
     13 C          -8.8401  -16.0216   22.1672 C.3     1  UNL1        0.1254
     14 C         -10.2892  -16.3620   21.9823 C.ar    1  UNL1        0.0272
     15 C         -11.1925  -16.9639   23.0176 C.ar    1  UNL1        0.0044
     16 C         -12.5510  -17.1342   22.4049 C.ar    1  UNL1        0.0072
     17 C         -12.4873  -16.6375   20.9909 C.ar    1  UNL1        0.0352
     18 S         -11.0894  -16.1603   20.7298 S.2     1  UNL1       -0.0891
@<TRIPOS>BOND
     1    10    11    1
     2    11    12    1
     3    11     9    1
     4     9     8    1
     5     8     1    1
     6     1    13    1
     7    13    14    1
     8    14    15   ar
     9    15    16   ar
    10    16    17   ar
    11    17    18   ar
    12     1     2    1
    13     2     3   ar
    14     3     4   ar
    15     4     5   ar
    16     5     6   ar
    17     6     7   ar
    18    18    14   ar
    19     7     2   ar
@<TRIPOS>MOLECULE
*****
 18 19 0 0 0
SMALL
GASTEIGER

@<TRIPOS>ATOM
      1 N          -7.9778  -16.7171   22.7085 N.pl3   1  UNL1       -0.2872
      2 C          -7.4511  -16.2802   24.0434 C.ar    1  UNL1        0.1320
      3 C          -8.3924  -16.0913   25.1958 C.ar    1  UNL1        0.0343
      4 C          -7.8657  -15.6544   26.5306 C.ar    1  UNL1        0.0045
      5 C          -6.3976  -15.4064   26.7129 C.ar    1  UNL1        0.0208
      6 C          -5.4563  -15.5953   25.5605 C.ar    1  UNL1        0.1003
      7 N          -5.9830  -16.0322   24.2257 N.ar    1  UNL1       -0.2292
      8 C          -7.5857  -18.0520   22.1479 C.3     1  UNL1        0.1098
      9 C          -8.0394  -19.3119   22.8239 C.3     1  UNL1        0.0939
     10 C         -10.4869  -19.8143   22.1118 C.3     1  UNL1        0.0897
     11 N          -9.4850  -19.4928   23.1808 N.3     1  UNL1       -0.2688
     12 C          -9.9287  -19.3523   24.6067 C.3     1  UNL1        0.0897
     13 C          -8.8966  -15.8191   21.9344 C.3     1  UNL1        0.1254
     14 C         -10.3545  -16.1539   21.8231 C.ar    1  UNL1        0.0272
     15 C         -11.3094  -16.3259   22.9670 C.ar    1  UNL1        0.0044
     16 C         -12.6586  -16.6538   22.3992 C.ar    1  UNL1        0.0072
     17 C         -12.5374  -16.6845   20.9044 C.ar    1  UNL1        0.0352
     18 S         -11.1134  -16.3755   20.5483 S.2     1  UNL1       -0.0891
@<TRIPOS>BOND
     1    10    11    1
     2    11    12    1
     3    11     9    1
     4     9     8    1
     5     8     1    1
     6     1    13    1
     7    13    14    1
     8    14    15   ar
     9    15    16   ar
    10    16    17   ar
    11    17    18   ar
    12     1     2    1
    13     2     3   ar
    14     3     4   ar
    15     4     5   ar
    16     5     6   ar
    17     6     7   ar
    18    18    14   ar
    19     7     2   ar
@<TRIPOS>MOLECULE
*****
 18 19 0 0 0
SMALL
GASTEIGER

@<TRIPOS>ATOM
      1 N          -7.9529  -17.2268   23.1654 N.pl3   1  UNL1       -0.2872
      2 C          -7.1814  -18.1157   22.2354 C.ar    1  UNL1        0.1320
      3 C          -7.8967  -18.8726   21.1558 C.ar    1  UNL1        0.0343
      4 C          -7.1252  -19.7614   20.2259 C.ar    1  UNL1        0.0045
      5 C          -5.6385  -19.8934   20.3755 C.ar    1  UNL1        0.0208
      6 C          -4.9233  -19.1365   21.4551 C.ar    1  UNL1        0.1003
      7 N          -5.6948  -18.2477   22.3850 N.ar    1  UNL1       -0.2292
      8 C          -7.5353  -15.7989   23.3567 C.3     1  UNL1        0.1098
      9 C          -7.8730  -15.0830   24.6309 C.3     1  UNL1        0.0939
     10 C          -5.6466  -15.4313   25.9238 C.3     1  UNL1        0.0897
     11 N          -7.1463  -15.4240   25.8980 N.3     1  UNL1       -0.2688
     12 C          -7.9194  -15.7577   27.1394 C.3     1  UNL1        0.0897
     13 C          -9.1419  -17.7659   23.9040 C.3     1  UNL1        0.1254
     14 C         -10.5255  -17.5186   23.3803 C.ar    1  UNL1        0.0272
     15 C         -11.7749  -18.2200   23.8244 C.ar    1  UNL1        0.0044
     16 C         -12.9243  -17.6613   23.0391 C.ar    1  UNL1        0.0072
     17 C         -12.3853  -16.6145   22.1096 C.ar    1  UNL1        0.0352
     18 S         -10.9028  -16.5263   22.3206 S.2     1  UNL1       -0.0891
@<TRIPOS>BOND
     1    10    11    1
     2    11    12    1
     3    11     9    1
     4     9     8    1
     5     8     1    1
     6     1    13    1
     7    13    14    1
     8    14    15   ar
     9    15    16   ar
    10    16    17   ar
    11    17    18   ar
    12     1     2    1
    13     2     3   ar
    14     3     4   ar
    15     4     5   ar
    16     5     6   ar
    17     6     7   ar
    18    18    14   ar
    19     7     2   ar
@<TRIPOS>MOLECULE
*****
 18 19 0 0 0
SMALL
GASTEIGER

@<TRIPOS>ATOM
      1 N          -8.2078  -18.6396   21.1800 N.pl3   1  UNL1       -0.2872
      2 C          -8.2171  -17.5977   22.2592 C.ar    1  UNL1        0.1320
      3 C          -8.8636  -17.8921   23.5802 C.ar    1  UNL1        0.0343
      4 C          -8.8730  -16.8503   24.6593 C.ar    1  UNL1        0.0045
      5 C          -8.2358  -15.5141   24.4174 C.ar    1  UNL1        0.0208
      6 C          -7.5893  -15.2197   23.0963 C.ar    1  UNL1        0.1003
      7 N          -7.5799  -16.2615   22.0172 N.ar    1  UNL1       -0.2292
      8 C          -6.9481  -19.3961   20.8788 C.3     1  UNL1        0.1098
      9 C          -5.9047  -19.5694   21.9425 C.3     1  UNL1        0.0939
     10 C          -3.7053  -18.8454   20.7644 C.3     1  UNL1        0.0897
     11 N          -4.6602  -18.7326   21.9157 N.3     1  UNL1       -0.2688
     12 C          -4.3704  -17.7831   23.0402 C.3     1  UNL1        0.0897
     13 C          -9.4582  -18.9248   20.4020 C.3     1  UNL1        0.1254
     14 C         -10.7286  -18.1986   20.7316 C.ar    1  UNL1        0.0272
     15 C         -11.7967  -18.6729   21.6719 C.ar    1  UNL1        0.0044
     16 C         -12.8822  -17.6381   21.7002 C.ar    1  UNL1        0.0072
     17 C         -12.4850  -16.5242   20.7774 C.ar    1  UNL1        0.0352
     18 S         -11.1539  -16.8707   20.1788 S.2     1  UNL1       -0.0891
@<TRIPOS>BOND
     1    10    11    1
     2    11    12    1
     3    11     9    1
     4     9     8    1
     5     8     1    1
     6     1    13    1
     7    13    14    1
     8    14    15   ar
     9    15    16   ar
    10    16    17   ar
    11    17    18   ar
    12     1     2    1
    13     2     3   ar
    14     3     4   ar
    15     4     5   ar
    16     5     6   ar
    17     6     7   ar
    18    18    14   ar
    19     7     2   ar
@<TRIPOS>MOLECULE
*****
 18 19 0 0 0
SMALL
GASTEIGER

@<TRIPOS>ATOM
      1 N          -8.7109  -16.9685   23.7605 N.pl3   1  UNL1       -0.2872
      2 C          -7.5992  -16.3394   24.5469 C.ar    1  UNL1        0.1320
      3 C          -6.2982  -16.0116   23.8762 C.ar    1  UNL1        0.0343
      4 C          -5.1866  -15.3825   24.6626 C.ar    1  UNL1        0.0045
      5 C          -5.3760  -15.0812   26.1198 C.ar    1  UNL1        0.0208
      6 C          -6.6769  -15.4090   26.7905 C.ar    1  UNL1        0.1003
      7 N          -7.7885  -16.0381   26.0041 N.ar    1  UNL1       -0.2292
      8 C          -8.4388  -18.1729   22.9088 C.3     1  UNL1        0.1098
      9 C          -7.8746  -18.0041   21.5292 C.3     1  UNL1        0.0939
     10 C          -9.5848  -19.1785   19.9655 C.3     1  UNL1        0.0897
     11 N          -8.1798  -19.0161   20.4650 N.3     1  UNL1       -0.2688
     12 C          -7.0801  -19.8657   19.9004 C.3     1  UNL1        0.0897
     13 C         -10.0946  -16.3932   23.8257 C.3     1  UNL1        0.1254
     14 C         -11.0929  -16.7171   22.7541 C.ar    1  UNL1        0.0272
     15 C         -12.1596  -17.7688   22.8317 C.ar    1  UNL1        0.0044
     16 C         -12.9257  -17.7480   21.5423 C.ar    1  UNL1        0.0072
     17 C         -12.3324  -16.6834   20.6678 C.ar    1  UNL1        0.0352
     18 S         -11.1997  -16.0463   21.4167 S.2     1  UNL1       -0.0891
@<TRIPOS>BOND
     1    10    11    1
     2    11    12    1
     3    11     9    1
     4     9     8    1
     5     8     1    1
     6     1    13    1
     7    13    14    1
     8    14    15   ar
     9    15    16   ar
    10    16    17   ar
    11    17    18   ar
    12     1     2    1
    13     2     3   ar
    14     3     4   ar
    15     4     5   ar
    16     5     6   ar
    17     6     7   ar
    18    18    14   ar
    19     7     2   ar
@<TRIPOS>MOLECULE
*****
 18 19 0 0 0
SMALL
GASTEIGER

@<TRIPOS>ATOM
      1 N          -8.1858  -19.6916   21.7925 N.pl3   1  UNL1       -0.2872
      2 C          -6.7129  -19.6872   21.5082 C.ar    1  UNL1        0.1320
      3 C          -6.1527  -20.5784   20.4396 C.ar    1  UNL1        0.0343
      4 C          -4.6799  -20.5740   20.1554 C.ar    1  UNL1        0.0045
      5 C          -3.7673  -19.6784   20.9397 C.ar    1  UNL1        0.0208
      6 C          -4.3276  -18.7873   22.0083 C.ar    1  UNL1        0.1003
      7 N          -5.8003  -18.7917   22.2926 N.ar    1  UNL1       -0.2292
      8 C          -8.6869  -20.0963   23.1471 C.3     1  UNL1        0.1098
      9 C         -10.1573  -20.0664   23.4426 C.3     1  UNL1        0.0939
     10 C         -12.1494  -18.5928   24.2232 C.3     1  UNL1        0.0897
     11 N         -10.7173  -19.0179   24.3575 N.3     1  UNL1       -0.2688
     12 C          -9.8450  -18.3946   25.4066 C.3     1  UNL1        0.0897
     13 C          -9.1574  -19.2913   20.7221 C.3     1  UNL1        0.1254
     14 C         -10.0794  -18.1289   20.9428 C.ar    1  UNL1        0.0272
     15 C         -11.5213  -18.0575   20.5354 C.ar    1  UNL1        0.0044
     16 C         -12.0544  -16.7183   20.9504 C.ar    1  UNL1        0.0072
     17 C         -10.9420  -15.9620   21.6142 C.ar    1  UNL1        0.0352
     18 S          -9.7214  -16.8338   21.6095 S.2     1  UNL1       -0.0891
@<TRIPOS>BOND
     1    10    11    1
     2    11    12    1
     3    11     9    1
     4     9     8    1
     5     8     1    1
     6     1    13    1
     7    13    14    1
     8    14    15   ar
     9    15    16   ar
    10    16    17   ar
    11    17    18   ar
    12     1     2    1
    13     2     3   ar
    14     3     4   ar
    15     4     5   ar
    16     5     6   ar
    17     6     7   ar
    18    18    14   ar
    19     7     2   ar
@<TRIPOS>MOLECULE
*****
 18 19 0 0 0
SMALL
GASTEIGER

@<TRIPOS>ATOM
      1 N          -8.8113  -18.5091   21.7203 N.pl3   1  UNL1       -0.2872
      2 C         -10.1245  -17.8652   21.3873 C.ar    1  UNL1        0.1320
      3 C         -11.3997  -18.4367   21.9325 C.ar    1  UNL1        0.0343
      4 C         -12.7128  -17.7928   21.5995 C.ar    1  UNL1        0.0045
      5 C         -12.7508  -16.5773   20.7214 C.ar    1  UNL1        0.0208
      6 C         -11.4756  -16.0057   20.1762 C.ar    1  UNL1        0.1003
      7 N         -10.1625  -16.6496   20.5092 N.ar    1  UNL1       -0.2292
      8 C          -8.0272  -19.2102   20.6509 C.3     1  UNL1        0.1098
      9 C          -6.8320  -20.0388   21.0184 C.3     1  UNL1        0.0939
     10 C          -4.7625  -19.1012   19.7584 C.3     1  UNL1        0.0897
     11 N          -5.4674  -19.4166   21.0442 N.3     1  UNL1       -0.2688
     12 C          -4.8077  -19.1098   22.3560 C.3     1  UNL1        0.0897
     13 C          -8.2821  -18.4519   23.1227 C.3     1  UNL1        0.1254
     14 C          -8.1921  -17.1361   23.8372 C.ar    1  UNL1        0.0272
     15 C          -9.0035  -16.7227   25.0291 C.ar    1  UNL1        0.0044
     16 C          -8.5877  -15.3338   25.4138 C.ar    1  UNL1        0.0072
     17 C          -7.5192  -14.8888   24.4597 C.ar    1  UNL1        0.0352
     18 S          -7.2747  -16.0027   23.4853 S.2     1  UNL1       -0.0891
@<TRIPOS>BOND
     1    10    11    1
     2    11    12    1
     3    11     9    1
     4     9     8    1
     5     8     1    1
     6     1    13    1
     7    13    14    1
     8    14    15   ar
     9    15    16   ar
    10    16    17   ar
    11    17    18   ar
    12     1     2    1
    13     2     3   ar
    14     3     4   ar
    15     4     5   ar
    16     5     6   ar
    17     6     7   ar
    18    18    14   ar
    19     7     2   ar
