@<TRIPOS>MOLECULE
*****
 24 27 0 0 0
SMALL
GASTEIGER

@<TRIPOS>ATOM
      1 C          -6.9078  -15.9967   24.1339 C.ar    1  UNL1        0.0390
      2 C          -8.0092  -15.5202   25.0339 C.ar    1  UNL1        0.0032
      3 C          -9.4250  -15.9425   24.7748 C.ar    1  UNL1        0.0001
      4 C          -9.7394  -16.8413   23.6156 C.ar    1  UNL1        0.0000
      5 C         -11.1552  -17.2636   23.3564 C.ar    1  UNL1        0.0000
      6 C         -11.4696  -18.1622   22.1974 C.ar    1  UNL1        0.0000
      7 C         -10.3682  -18.6387   21.2974 C.ar    1  UNL1        0.0000
      8 C         -10.6826  -19.5373   20.1383 C.ar    1  UNL1        0.0000
      9 C          -9.5811  -20.0137   19.2384 C.ar    1  UNL1        0.0000
     10 C          -8.1653  -19.5914   19.4976 C.ar    1  UNL1        0.0000
     11 C          -7.8509  -18.6928   20.6566 C.ar    1  UNL1        0.0000
     12 C          -8.9524  -18.2164   21.5565 C.ar    1  UNL1        0.0000
     13 C          -8.6380  -17.3177   22.7157 C.ar    1  UNL1        0.0001
     14 C          -7.2222  -16.8954   22.9749 C.ar    1  UNL1        0.0032
     15 O          -5.1429  -14.8618   25.6661 O.2     1  UNL1       -0.2866
     16 C          -5.4920  -15.5744   24.3931 C.2     1  UNL1        0.1956
     17 C          -4.4252  -15.8647   23.3793 C.2     1  UNL1        0.0421
     18 C          -3.8663  -17.2510   23.2547 C.2     1  UNL1        0.0048
     19 C          -2.7995  -17.5413   22.2409 C.ar    1  UNL1        0.0193
     20 C          -2.0739  -16.4120   21.5714 C.ar    1  UNL1        0.0031
     21 C          -1.0072  -16.7023   20.5576 C.ar    1  UNL1        0.0207
     22 C          -0.6660  -18.1218   20.2134 C.ar    1  UNL1        0.0989
     23 N          -1.3915  -19.2511   20.8829 N.ar    1  UNL1       -0.2423
     24 C          -2.4583  -18.9608   21.8967 C.ar    1  UNL1        0.0988
@<TRIPOS>BOND
     1    15    16    2
     2    16    17    1
     3    17    18    2
     4    18    19    1
     5    19    20   ar
     6    20    21   ar
     7    21    22   ar
     8    22    23   ar
     9    23    24   ar
    10    16     1    1
    11     1     2   ar
    12     2     3   ar
    13     3     4   ar
    14     4     5   ar
    15     5     6   ar
    16     6     7   ar
    17     7     8   ar
    18     8     9   ar
    19     9    10   ar
    20    10    11   ar
    21    11    12   ar
    22    12    13   ar
    23    13    14   ar
    24    24    19   ar
    25    14     1   ar
    26    13     4   ar
    27    12     7   ar
@<TRIPOS>MOLECULE
*****
 24 27 0 0 0
SMALL
GASTEIGER

@<TRIPOS>ATOM
      1 C         -10.7515   -5.2072   18.0868 C.ar    1  UNL1        0.0390
      2 C          -9.5973   -4.7540   17.2427 C.ar    1  UNL1        0.0032
      3 C          -9.5191   -3.3286   16.7822 C.ar    1  UNL1        0.0001
      4 C         -10.5951   -2.3564   17.1658 C.ar    1  UNL1        0.0000
      5 C         -10.5168   -0.9310   16.7052 C.ar    1  UNL1        0.0000
      6 C         -11.5928    0.0412   17.0888 C.ar    1  UNL1        0.0000
      7 C         -12.7470   -0.4120   17.9329 C.ar    1  UNL1        0.0000
      8 C         -13.8229    0.5602   18.3164 C.ar    1  UNL1        0.0000
      9 C         -14.9771    0.1070   19.1604 C.ar    1  UNL1        0.0000
     10 C         -15.0553   -1.3184   19.6210 C.ar    1  UNL1        0.0000
     11 C         -13.9794   -2.2906   19.2374 C.ar    1  UNL1        0.0000
     12 C         -12.8252   -1.8374   18.3934 C.ar    1  UNL1        0.0000
     13 C         -11.7492   -2.8096   18.0098 C.ar    1  UNL1        0.0001
     14 C         -11.8274   -4.2350   18.4703 C.ar    1  UNL1        0.0032
     15 O          -9.5974   -7.4880   18.5522 O.2     1  UNL1       -0.2866
     16 C         -10.8297   -6.6326   18.5473 C.2     1  UNL1        0.1956
     17 C         -12.1402   -7.2027   19.0030 C.2     1  UNL1        0.0421
     18 C         -13.2341   -7.4566   18.0086 C.2     1  UNL1        0.0048
     19 C         -14.5446   -8.0267   18.4643 C.ar    1  UNL1        0.0193
     20 C         -15.5555   -7.1424   19.1322 C.ar    1  UNL1        0.0031
     21 C         -16.8659   -7.7126   19.5879 C.ar    1  UNL1        0.0207
     22 C         -17.1654   -9.1670   19.3758 C.ar    1  UNL1        0.0989
     23 N         -16.1544  -10.0513   18.7079 N.ar    1  UNL1       -0.2423
     24 C         -14.8440   -9.4811   18.2522 C.ar    1  UNL1        0.0988
@<TRIPOS>BOND
     1    15    16    2
     2    16    17    1
     3    17    18    2
     4    18    19    1
     5    19    20   ar
     6    20    21   ar
     7    21    22   ar
     8    22    23   ar
     9    23    24   ar
    10    16     1    1
    11     1     2   ar
    12     2     3   ar
    13     3     4   ar
    14     4     5   ar
    15     5     6   ar
    16     6     7   ar
    17     7     8   ar
    18     8     9   ar
    19     9    10   ar
    20    10    11   ar
    21    11    12   ar
    22    12    13   ar
    23    13    14   ar
    24    24    19   ar
    25    14     1   ar
    26    13     4   ar
    27    12     7   ar
@<TRIPOS>MOLECULE
*****
 24 27 0 0 0
SMALL
GASTEIGER

@<TRIPOS>ATOM
      1 C          -6.6254  -16.2561   24.4784 C.ar    1  UNL1        0.0390
      2 C          -5.4203  -15.4047   24.7487 C.ar    1  UNL1        0.0032
      3 C          -4.1210  -15.7044   24.0617 C.ar    1  UNL1        0.0001
      4 C          -4.0268  -16.8555   23.1044 C.ar    1  UNL1        0.0000
      5 C          -2.7275  -17.1552   22.4174 C.ar    1  UNL1        0.0000
      6 C          -2.6333  -18.3061   21.4601 C.ar    1  UNL1        0.0000
      7 C          -3.8384  -19.1574   21.1898 C.ar    1  UNL1        0.0000
      8 C          -3.7442  -20.3084   20.2326 C.ar    1  UNL1        0.0000
      9 C          -4.9493  -21.1596   19.9624 C.ar    1  UNL1        0.0000
     10 C          -6.2486  -20.8599   20.6494 C.ar    1  UNL1        0.0000
     11 C          -6.3428  -19.7090   21.6066 C.ar    1  UNL1        0.0000
     12 C          -5.1377  -18.8577   21.8769 C.ar    1  UNL1        0.0000
     13 C          -5.2319  -17.7067   22.8342 C.ar    1  UNL1        0.0001
     14 C          -6.5312  -17.4070   23.5212 C.ar    1  UNL1        0.0032
     15 O          -7.9404  -15.1109   26.4044 O.2     1  UNL1       -0.2866
     16 C          -7.9247  -15.9563   25.1654 C.2     1  UNL1        0.1956
     17 C          -9.2083  -16.5021   24.6135 C.2     1  UNL1        0.0421
     18 C          -9.6518  -16.1228   23.2317 C.2     1  UNL1        0.0048
     19 C         -10.9355  -16.6686   22.6798 C.ar    1  UNL1        0.0193
     20 C         -11.7988  -17.5558   23.5268 C.ar    1  UNL1        0.0031
     21 C         -13.0824  -18.1015   22.9749 C.ar    1  UNL1        0.0207
     22 C         -13.5026  -17.7601   21.5760 C.ar    1  UNL1        0.0989
     23 N         -12.6392  -16.8729   20.7290 N.ar    1  UNL1       -0.2423
     24 C         -11.3556  -16.3272   21.2809 C.ar    1  UNL1        0.0988
@<TRIPOS>BOND
     1    15    16    2
     2    16    17    1
     3    17    18    2
     4    18    19    1
     5    19    20   ar
     6    20    21   ar
     7    21    22   ar
     8    22    23   ar
     9    23    24   ar
    10    16     1    1
    11     1     2   ar
    12     2     3   ar
    13     3     4   ar
    14     4     5   ar
    15     5     6   ar
    16     6     7   ar
    17     7     8   ar
    18     8     9   ar
    19     9    10   ar
    20    10    11   ar
    21    11    12   ar
    22    12    13   ar
    23    13    14   ar
    24    24    19   ar
    25    14     1   ar
    26    13     4   ar
    27    12     7   ar
