@<TRIPOS>MOLECULE
*****
 42 46 0 0 0
SMALL
GASTEIGER

@<TRIPOS>ATOM
      1 C           3.7692   -1.4427   23.8522 C.ar    1  UNL1        0.2167
      2 N           3.1299   -0.3290   24.6273 N.ar    1  UNL1       -0.2182
      3 C           2.2318    0.6501   23.9310 C.ar    1  UNL1        0.0638
      4 C           1.5924    1.7639   24.7062 C.3     1  UNL1        0.0522
      5 C           1.9731    0.5155   22.4596 C.ar    1  UNL1        0.0344
      6 C           1.0750    1.4946   21.7634 C.ar    1  UNL1        0.0029
      7 C           0.8163    1.3601   20.2920 C.ar    1  UNL1        0.0047
      8 C           1.4557    0.2463   19.5169 C.ar    1  UNL1        0.0385
      9 C           2.3538   -0.7328   20.2131 C.ar    1  UNL1        0.1560
     10 C           2.6125   -0.5982   21.6846 C.ar    1  UNL1        0.1191
     11 N           3.5106   -1.5773   22.3808 N.ar    1  UNL1       -0.2107
     12 C          -0.0818    2.3392   19.5958 C.ar    1  UNL1        0.0208
     13 C           0.3501    2.9646   18.3025 C.ar    1  UNL1        0.1021
     14 N          -0.5480    3.9438   17.6063 N.ar    1  UNL1       -0.2090
     15 C          -1.8779    4.2974   18.2032 C.ar    1  UNL1        0.2400
     16 C          -2.3097    3.6720   19.4964 C.ar    1  UNL1        0.1178
     17 C          -1.4116    2.6928   20.1927 C.ar    1  UNL1        0.0221
     18 O          -2.7760    5.2765   17.5070 O.3     1  UNL1       -0.4553
     19 C          -3.8333    4.7847   16.5633 C.3     1  UNL1        0.2543
     20 N          -3.6396    4.0256   20.0933 N.pl3   1  UNL1       -0.2104
     21 H          -4.3941    4.2642   19.5077 H       1  UNL1        0.1739
     22 S          -3.8198    4.0158   21.5825 S.O2    1  UNL1        0.0759
     23 O          -4.4852    2.6745   21.4930 O.2     1  UNL1       -0.1499
     24 O          -3.1543    5.3571   21.6719 O.2     1  UNL1       -0.1499
     25 C          -4.0000    4.0059   23.0715 C.ar    1  UNL1        0.1526
     26 C          -5.3368    4.3342   23.6674 C.ar    1  UNL1        0.0248
     27 C          -5.5170    4.3243   25.1565 C.ar    1  UNL1        0.0312
     28 C          -4.3604    3.9861   26.0497 C.ar    1  UNL1        0.1425
     29 F          -4.5406    3.9762   27.5388 F       1  UNL1       -0.2041
     30 C          -3.0236    3.6578   25.4539 C.ar    1  UNL1        0.0606
     31 C          -2.8433    3.6677   23.9648 C.ar    1  UNL1        0.1611
     32 F          -1.5065    3.3394   23.3689 F       1  UNL1       -0.2027
     33 C           5.6540   -3.2284   23.7573 C.3     1  UNL1        0.1108
     34 N           4.6673   -2.4218   24.5484 N.pl3   1  UNL1       -0.3013
     35 H           4.6092   -2.5351   25.5247 H       1  UNL1        0.1497
     36 O           2.9932   -1.8465   19.4380 O.3     1  UNL1       -0.4775
     37 C           4.2840   -1.6099   18.7114 C.3     1  UNL1        0.1710
     38 C           4.4309   -0.4184   17.8122 C.3     1  UNL1        0.0756
     39 C           5.7217   -0.1818   17.0856 C.3     1  UNL1        0.1459
     40 O           6.8655   -1.1368   17.2582 O.3     1  UNL1       -0.3535
     41 C           6.7185   -2.3283   18.1574 C.3     1  UNL1        0.1459
     42 C           5.4278   -2.5649   18.8840 C.3     1  UNL1        0.0756
@<TRIPOS>BOND
     1    33    34    1
     2    34     1    1
     3     1     2   ar
     4     2     3   ar
     5     3     4    1
     6     3     5   ar
     7     5     6   ar
     8     6     7   ar
     9     7    12    1
    10    12    13   ar
    11    13    14   ar
    12    14    15   ar
    13    15    18    1
    14    18    19    1
    15    15    16   ar
    16    16    20    1
    17    20    22    1
    18    22    23    2
    19    22    24    2
    20    22    25    1
    21    25    26   ar
    22    26    27   ar
    23    27    28   ar
    24    28    29    1
    25    28    30   ar
    26    30    31   ar
    27    31    32    1
    28    16    17   ar
    29     7     8   ar
    30     8     9   ar
    31     9    36    1
    32    36    37    1
    33    37    38    1
    34    38    39    1
    35    39    40    1
    36    40    41    1
    37    41    42    1
    38     9    10   ar
    39    10    11   ar
    40    11     1   ar
    41    10     5   ar
    42    17    12   ar
    43    42    37    1
    44    31    25   ar
    45    34    35    1
    46    20    21    1
@<TRIPOS>MOLECULE
*****
 42 46 0 0 0
SMALL
GASTEIGER

@<TRIPOS>ATOM
      1 C           2.2927   -0.4526   29.6849 C.ar    1  UNL1        0.2167
      2 N           0.8295   -0.1297   29.7551 N.ar    1  UNL1       -0.2182
      3 C           0.1328    0.4565   28.5630 C.ar    1  UNL1        0.0638
      4 C          -1.3304    0.7794   28.6332 C.3     1  UNL1        0.0522
      5 C           0.8993    0.7199   27.3008 C.ar    1  UNL1        0.0344
      6 C           0.2026    1.3061   26.1088 C.ar    1  UNL1        0.0029
      7 C           0.9690    1.5695   24.8466 C.ar    1  UNL1        0.0047
      8 C           2.4322    1.2466   24.7764 C.ar    1  UNL1        0.0385
      9 C           3.1289    0.6603   25.9684 C.ar    1  UNL1        0.1560
     10 C           2.3624    0.3970   27.2307 C.ar    1  UNL1        0.1191
     11 N           3.0591   -0.1893   28.4227 N.ar    1  UNL1       -0.2107
     12 C           0.2723    2.1557   23.6546 C.ar    1  UNL1        0.0208
     13 C          -1.0137    2.9072   23.8320 C.ar    1  UNL1        0.1021
     14 N          -1.7104    3.4935   22.6400 N.ar    1  UNL1       -0.2090
     15 C          -1.1211    3.3282   21.2705 C.ar    1  UNL1        0.2400
     16 C           0.1649    2.5767   21.0931 C.ar    1  UNL1        0.1178
     17 C           0.8616    1.9904   22.2851 C.ar    1  UNL1        0.0221
     18 O          -1.8178    3.9144   20.0785 O.3     1  UNL1       -0.4553
     19 C          -3.2783    3.6517   19.8591 C.3     1  UNL1        0.2543
     20 N           0.7541    2.4114   19.7237 N.pl3   1  UNL1       -0.2104
     21 H           0.5675    3.0781   19.0237 H       1  UNL1        0.1739
     22 S           1.6279    1.2303   19.4206 S.O2    1  UNL1        0.0759
     23 O           2.8448    2.0979   19.5481 O.2     1  UNL1       -0.1499
     24 O           0.4109    0.3627   19.2931 O.2     1  UNL1       -0.1499
     25 C           2.5016    0.0494   19.1176 C.ar    1  UNL1        0.1526
     26 C           3.1538   -0.0757   17.7725 C.ar    1  UNL1        0.0248
     27 C           4.0275   -1.2566   17.4695 C.ar    1  UNL1        0.0312
     28 C           4.2490   -2.3127   18.5115 C.ar    1  UNL1        0.1425
     29 F           5.1228   -3.4936   18.2085 F       1  UNL1       -0.2041
     30 C           3.5969   -2.1877   19.8565 C.ar    1  UNL1        0.0606
     31 C           2.7231   -1.0067   20.1596 C.ar    1  UNL1        0.1611
     32 F           2.0710   -0.8817   21.5046 F       1  UNL1       -0.2027
     33 C           4.4819   -0.9467   30.9937 C.3     1  UNL1        0.1108
     34 N           2.9893   -1.0389   30.8769 N.pl3   1  UNL1       -0.3013
     35 H           2.4670   -1.4841   31.5827 H       1  UNL1        0.1497
     36 O           4.5920    0.3374   25.8983 O.3     1  UNL1       -0.4775
     37 C           5.0412   -1.0021   25.3941 C.3     1  UNL1        0.1710
     38 C           4.4844   -1.5461   24.1119 C.3     1  UNL1        0.0756
     39 C           4.9336   -2.8855   23.6079 C.3     1  UNL1        0.1459
     40 O           5.9395   -3.6809   24.3860 O.3     1  UNL1       -0.3535
     41 C           6.4962   -3.1369   25.6682 C.3     1  UNL1        0.1459
     42 C           6.0471   -1.7975   26.1722 C.3     1  UNL1        0.0756
@<TRIPOS>BOND
     1    33    34    1
     2    34     1    1
     3     1     2   ar
     4     2     3   ar
     5     3     4    1
     6     3     5   ar
     7     5     6   ar
     8     6     7   ar
     9     7    12    1
    10    12    13   ar
    11    13    14   ar
    12    14    15   ar
    13    15    18    1
    14    18    19    1
    15    15    16   ar
    16    16    20    1
    17    20    22    1
    18    22    23    2
    19    22    24    2
    20    22    25    1
    21    25    26   ar
    22    26    27   ar
    23    27    28   ar
    24    28    29    1
    25    28    30   ar
    26    30    31   ar
    27    31    32    1
    28    16    17   ar
    29     7     8   ar
    30     8     9   ar
    31     9    36    1
    32    36    37    1
    33    37    38    1
    34    38    39    1
    35    39    40    1
    36    40    41    1
    37    41    42    1
    38     9    10   ar
    39    10    11   ar
    40    11     1   ar
    41    10     5   ar
    42    17    12   ar
    43    42    37    1
    44    31    25   ar
    45    34    35    1
    46    20    21    1
@<TRIPOS>MOLECULE
*****
 42 46 0 0 0
SMALL
GASTEIGER

@<TRIPOS>ATOM
      1 C           0.8007    1.6122   22.2582 C.ar    1  UNL1        0.2167
      2 N           1.0979    0.6889   21.1141 N.ar    1  UNL1       -0.2182
      3 C           2.1107   -0.4055   21.2772 C.ar    1  UNL1        0.0638
      4 C           2.4079   -1.3289   20.1331 C.3     1  UNL1        0.0522
      5 C           2.8262   -0.5765   22.5844 C.ar    1  UNL1        0.0344
      6 C           3.8390   -1.6709   22.7475 C.ar    1  UNL1        0.0029
      7 C           4.5545   -1.8419   24.0546 C.ar    1  UNL1        0.0047
      8 C           4.2573   -0.9185   25.1988 C.ar    1  UNL1        0.0385
      9 C           3.2445    0.1759   25.0357 C.ar    1  UNL1        0.1560
     10 C           2.5290    0.3469   23.7285 C.ar    1  UNL1        0.1191
     11 N           1.5162    1.4412   23.5654 N.ar    1  UNL1       -0.2107
     12 C           5.5673   -2.9363   24.2177 C.ar    1  UNL1        0.0208
     13 C           5.8869   -3.8404   23.0642 C.ar    1  UNL1        0.1021
     14 N           6.8997   -4.9348   23.2273 N.ar    1  UNL1       -0.2090
     15 C           7.5929   -5.1250   24.5439 C.ar    1  UNL1        0.2400
     16 C           7.2733   -4.2209   25.6973 C.ar    1  UNL1        0.1178
     17 C           6.2605   -3.1266   25.5342 C.ar    1  UNL1        0.0221
     18 O           8.6057   -6.2194   24.7070 O.3     1  UNL1       -0.4553
     19 C           8.1550   -7.6238   24.9805 C.3     1  UNL1        0.2543
     20 N           7.9665   -4.4112   27.0138 N.pl3   1  UNL1       -0.2104
     21 H           8.8309   -4.8808   27.0516 H       1  UNL1        0.1739
     22 S           7.3425   -3.8861   28.2728 S.O2    1  UNL1        0.0759
     23 O           6.3383   -4.9998   28.2396 O.2     1  UNL1       -0.1499
     24 O           8.3468   -2.7724   28.3060 O.2     1  UNL1       -0.1499
     25 C           6.7186   -3.3610   29.5317 C.ar    1  UNL1        0.1526
     26 C           6.9133   -4.0922   30.8269 C.ar    1  UNL1        0.0248
     27 C           6.2894   -3.5671   32.0858 C.ar    1  UNL1        0.0312
     28 C           5.4707   -2.3108   32.0497 C.ar    1  UNL1        0.1425
     29 F           4.8467   -1.7857   33.3086 F       1  UNL1       -0.2041
     30 C           5.2759   -1.5795   30.7546 C.ar    1  UNL1        0.0606
     31 C           5.8999   -2.1046   29.4956 C.ar    1  UNL1        0.1611
     32 F           5.7051   -1.3734   28.2005 F       1  UNL1       -0.2027
     33 C          -0.9793    2.8335   20.8124 C.3     1  UNL1        0.1108
     34 N          -0.2121    2.7066   22.0951 N.pl3   1  UNL1       -0.3013
     35 H          -0.3733    3.3416   22.8300 H       1  UNL1        0.1497
     36 O           2.9473    1.0993   26.1798 O.3     1  UNL1       -0.4775
     37 C           2.0293    0.6578   27.2810 C.3     1  UNL1        0.1710
     38 C           2.5779   -0.0889   28.4606 C.3     1  UNL1        0.0756
     39 C           1.6599   -0.5303   29.5617 C.3     1  UNL1        0.1459
     40 O           0.1934   -0.2251   29.4831 O.3     1  UNL1       -0.3535
     41 C          -0.3552    0.5215   28.3035 C.3     1  UNL1        0.1459
     42 C           0.5628    0.9630   27.2024 C.3     1  UNL1        0.0756
@<TRIPOS>BOND
     1    33    34    1
     2    34     1    1
     3     1     2   ar
     4     2     3   ar
     5     3     4    1
     6     3     5   ar
     7     5     6   ar
     8     6     7   ar
     9     7    12    1
    10    12    13   ar
    11    13    14   ar
    12    14    15   ar
    13    15    18    1
    14    18    19    1
    15    15    16   ar
    16    16    20    1
    17    20    22    1
    18    22    23    2
    19    22    24    2
    20    22    25    1
    21    25    26   ar
    22    26    27   ar
    23    27    28   ar
    24    28    29    1
    25    28    30   ar
    26    30    31   ar
    27    31    32    1
    28    16    17   ar
    29     7     8   ar
    30     8     9   ar
    31     9    36    1
    32    36    37    1
    33    37    38    1
    34    38    39    1
    35    39    40    1
    36    40    41    1
    37    41    42    1
    38     9    10   ar
    39    10    11   ar
    40    11     1   ar
    41    10     5   ar
    42    17    12   ar
    43    42    37    1
    44    31    25   ar
    45    34    35    1
    46    20    21    1
@<TRIPOS>MOLECULE
*****
 42 46 0 0 0
SMALL
GASTEIGER

@<TRIPOS>ATOM
      1 C           1.0975    0.9310   28.2672 C.ar    1  UNL1        0.2167
      2 N           2.1181    0.4511   27.2783 N.ar    1  UNL1       -0.2182
      3 C           1.9565    0.7663   25.8208 C.ar    1  UNL1        0.0638
      4 C           2.9772    0.2863   24.8319 C.3     1  UNL1        0.0522
      5 C           0.7742    1.5616   25.3520 C.ar    1  UNL1        0.0344
      6 C           0.6126    1.8768   23.8945 C.ar    1  UNL1        0.0029
      7 C          -0.5697    2.6721   23.4258 C.ar    1  UNL1        0.0047
      8 C          -1.5905    3.1521   24.4146 C.ar    1  UNL1        0.0385
      9 C          -1.4288    2.8368   25.8722 C.ar    1  UNL1        0.1560
     10 C          -0.2464    2.0415   26.3409 C.ar    1  UNL1        0.1191
     11 N          -0.0848    1.7263   27.7984 N.ar    1  UNL1       -0.2107
     12 C          -0.7314    2.9873   21.9682 C.ar    1  UNL1        0.0208
     13 C          -2.0103    3.5916   21.4689 C.ar    1  UNL1        0.1021
     14 N          -2.1720    3.9069   20.0113 N.ar    1  UNL1       -0.2090
     15 C          -1.0547    3.6178   19.0531 C.ar    1  UNL1        0.2400
     16 C           0.2242    3.0136   19.5524 C.ar    1  UNL1        0.1178
     17 C           0.3858    2.6983   21.0100 C.ar    1  UNL1        0.0221
     18 O          -1.2163    3.9331   17.5955 O.3     1  UNL1       -0.4553
     19 C          -2.5882    4.0280   16.9963 C.3     1  UNL1        0.2543
     20 N           1.3414    2.7246   18.5941 N.pl3   1  UNL1       -0.2104
     21 H           1.6182    3.4068   17.9406 H       1  UNL1        0.1739
     22 S           2.0368    1.3960   18.6316 S.O2    1  UNL1        0.0759
     23 O           0.7892    0.7290   18.1330 O.2     1  UNL1       -0.1499
     24 O           3.2844    2.0630   19.1301 O.2     1  UNL1       -0.1499
     25 C           2.7322    0.0674   18.6690 C.ar    1  UNL1        0.1526
     26 C           3.6891   -0.3093   17.5770 C.ar    1  UNL1        0.0248
     27 C           4.3845   -1.6378   17.6144 C.ar    1  UNL1        0.0312
     28 C           4.1229   -2.5897   18.7438 C.ar    1  UNL1        0.1425
     29 F           4.8183   -3.9182   18.7812 F       1  UNL1       -0.2041
     30 C           3.1660   -2.2130   19.8358 C.ar    1  UNL1        0.0606
     31 C           2.4706   -0.8844   19.7984 C.ar    1  UNL1        0.1611
     32 F           1.5137   -0.5078   20.8904 F       1  UNL1       -0.2027
     33 C           2.2979   -0.3714   30.1678 C.3     1  UNL1        0.1108
     34 N           1.2591    0.6158   29.7247 N.pl3   1  UNL1       -0.3013
     35 H           0.6834    1.0568   30.3905 H       1  UNL1        0.1497
     36 O          -2.4495    3.3168   26.8610 O.3     1  UNL1       -0.4775
     37 C          -3.4308    4.3815   26.4691 C.3     1  UNL1        0.1710
     38 C          -3.0863    5.8280   26.6660 C.3     1  UNL1        0.0756
     39 C          -4.0676    6.8927   26.2741 C.3     1  UNL1        0.1459
     40 O          -5.3933    6.5107   25.6853 O.3     1  UNL1       -0.3535
     41 C          -5.7377    5.0642   25.4884 C.3     1  UNL1        0.1459
     42 C          -4.7564    3.9996   25.8803 C.3     1  UNL1        0.0756
@<TRIPOS>BOND
     1    33    34    1
     2    34     1    1
     3     1     2   ar
     4     2     3   ar
     5     3     4    1
     6     3     5   ar
     7     5     6   ar
     8     6     7   ar
     9     7    12    1
    10    12    13   ar
    11    13    14   ar
    12    14    15   ar
    13    15    18    1
    14    18    19    1
    15    15    16   ar
    16    16    20    1
    17    20    22    1
    18    22    23    2
    19    22    24    2
    20    22    25    1
    21    25    26   ar
    22    26    27   ar
    23    27    28   ar
    24    28    29    1
    25    28    30   ar
    26    30    31   ar
    27    31    32    1
    28    16    17   ar
    29     7     8   ar
    30     8     9   ar
    31     9    36    1
    32    36    37    1
    33    37    38    1
    34    38    39    1
    35    39    40    1
    36    40    41    1
    37    41    42    1
    38     9    10   ar
    39    10    11   ar
    40    11     1   ar
    41    10     5   ar
    42    17    12   ar
    43    42    37    1
    44    31    25   ar
    45    34    35    1
    46    20    21    1
@<TRIPOS>MOLECULE
*****
 42 46 0 0 0
SMALL
GASTEIGER

@<TRIPOS>ATOM
      1 C           7.3909   -6.0349   27.7211 C.ar    1  UNL1        0.2167
      2 N           7.8602   -6.9514   26.6304 N.ar    1  UNL1       -0.2182
      3 C           7.8503   -6.4867   25.2042 C.ar    1  UNL1        0.0638
      4 C           8.3197   -7.4033   24.1135 C.3     1  UNL1        0.0522
      5 C           7.3711   -5.1055   24.8688 C.ar    1  UNL1        0.0344
      6 C           7.3613   -4.6407   23.4426 C.ar    1  UNL1        0.0029
      7 C           6.8821   -3.2595   23.1072 C.ar    1  UNL1        0.0047
      8 C           6.4127   -2.3429   24.1979 C.ar    1  UNL1        0.0385
      9 C           6.4226   -2.8076   25.6241 C.ar    1  UNL1        0.1560
     10 C           6.9018   -4.1889   25.9595 C.ar    1  UNL1        0.1191
     11 N           6.9117   -4.6537   27.3857 N.ar    1  UNL1       -0.2107
     12 C           6.8722   -2.7948   21.6810 C.ar    1  UNL1        0.0208
     13 C           8.1625   -2.6545   20.9290 C.ar    1  UNL1        0.1021
     14 N           8.1526   -2.1898   19.5028 N.ar    1  UNL1       -0.2090
     15 C           6.8524   -1.8654   18.8287 C.ar    1  UNL1        0.2400
     16 C           5.5622   -2.0057   19.5808 C.ar    1  UNL1        0.1178
     17 C           5.5721   -2.4704   21.0069 C.ar    1  UNL1        0.0221
     18 O           6.8425   -1.4007   17.4025 O.3     1  UNL1       -0.4553
     19 C           6.7385    0.0631   17.0914 C.3     1  UNL1        0.2543
     20 N           4.2621   -1.6813   18.9066 N.pl3   1  UNL1       -0.2104
     21 H           4.0747   -2.0296   18.0051 H       1  UNL1        0.1739
     22 S           3.2473   -0.8263   19.6062 S.O2    1  UNL1        0.0759
     23 O           2.3620   -2.0238   19.7854 O.2     1  UNL1       -0.1499
     24 O           4.1327    0.3711   19.4270 O.2     1  UNL1       -0.1499
     25 C           2.2326    0.0286   20.3058 C.ar    1  UNL1        0.1526
     26 C           2.3221    0.2375   21.7885 C.ar    1  UNL1        0.0248
     27 C           1.3074    1.0925   22.4880 C.ar    1  UNL1        0.0312
     28 C           0.2031    1.7385   21.7049 C.ar    1  UNL1        0.1425
     29 F          -0.8116    2.5934   22.4045 F       1  UNL1       -0.2041
     30 C           0.1136    1.5296   20.2223 C.ar    1  UNL1        0.0606
     31 C           1.1284    0.6746   19.5227 C.ar    1  UNL1        0.1611
     32 F           1.0388    0.4658   18.0400 F       1  UNL1       -0.2027
     33 C           6.9318   -5.5830   30.2380 C.3     1  UNL1        0.1108
     34 N           7.4008   -6.4996   29.1473 N.pl3   1  UNL1       -0.3013
     35 H           7.7152   -7.4062   29.3674 H       1  UNL1        0.1497
     36 O           5.9533   -1.8911   26.7148 O.3     1  UNL1       -0.4775
     37 C           5.1548   -0.6677   26.3747 C.3     1  UNL1        0.1710
     38 C           3.6910   -0.7881   26.0702 C.3     1  UNL1        0.0756
     39 C           2.8926    0.4353   25.7301 C.3     1  UNL1        0.1459
     40 O           3.5580    1.7792   25.6944 O.3     1  UNL1       -0.3535
     41 C           5.0218    1.8996   25.9989 C.3     1  UNL1        0.1459
     42 C           5.8202    0.6762   26.3390 C.3     1  UNL1        0.0756
@<TRIPOS>BOND
     1    33    34    1
     2    34     1    1
     3     1     2   ar
     4     2     3   ar
     5     3     4    1
     6     3     5   ar
     7     5     6   ar
     8     6     7   ar
     9     7    12    1
    10    12    13   ar
    11    13    14   ar
    12    14    15   ar
    13    15    18    1
    14    18    19    1
    15    15    16   ar
    16    16    20    1
    17    20    22    1
    18    22    23    2
    19    22    24    2
    20    22    25    1
    21    25    26   ar
    22    26    27   ar
    23    27    28   ar
    24    28    29    1
    25    28    30   ar
    26    30    31   ar
    27    31    32    1
    28    16    17   ar
    29     7     8   ar
    30     8     9   ar
    31     9    36    1
    32    36    37    1
    33    37    38    1
    34    38    39    1
    35    39    40    1
    36    40    41    1
    37    41    42    1
    38     9    10   ar
    39    10    11   ar
    40    11     1   ar
    41    10     5   ar
    42    17    12   ar
    43    42    37    1
    44    31    25   ar
    45    34    35    1
    46    20    21    1
@<TRIPOS>MOLECULE
*****
 42 46 0 0 0
SMALL
GASTEIGER

@<TRIPOS>ATOM
      1 C           4.5300   -2.0568   23.7836 C.ar    1  UNL1        0.2167
      2 N           4.3189   -2.5810   22.3942 N.ar    1  UNL1       -0.2182
      3 C           3.4422   -1.8316   21.4351 C.ar    1  UNL1        0.0638
      4 C           3.2310   -2.3558   20.0455 C.3     1  UNL1        0.0522
      5 C           2.7766   -0.5581   21.8654 C.ar    1  UNL1        0.0344
      6 C           1.9000    0.1912   20.9063 C.ar    1  UNL1        0.0029
      7 C           1.2344    1.4647   21.3367 C.ar    1  UNL1        0.0047
      8 C           1.4456    1.9889   22.7262 C.ar    1  UNL1        0.0385
      9 C           2.3222    1.2395   23.6853 C.ar    1  UNL1        0.1560
     10 C           2.9878   -0.0340   23.2549 C.ar    1  UNL1        0.1191
     11 N           3.8645   -0.7834   24.2140 N.ar    1  UNL1       -0.2107
     12 C           0.3577    2.2141   20.3776 C.ar    1  UNL1        0.0208
     13 C           0.8725    2.5742   19.0155 C.ar    1  UNL1        0.1021
     14 N          -0.0042    3.3236   18.0564 N.ar    1  UNL1       -0.2090
     15 C          -1.3957    3.7128   18.4594 C.ar    1  UNL1        0.2400
     16 C          -1.9104    3.3526   19.8215 C.ar    1  UNL1        0.1178
     17 C          -1.0337    2.6033   20.7806 C.ar    1  UNL1        0.0221
     18 O          -2.2724    4.4622   17.5003 O.3     1  UNL1       -0.4553
     19 C          -2.9951    3.7250   16.4120 C.3     1  UNL1        0.2543
     20 N          -3.3018    3.7419   20.2245 N.pl3   1  UNL1       -0.2104
     21 H          -3.9836    3.9148   19.5356 H       1  UNL1        0.1739
     22 S          -3.6545    3.8676   21.6770 S.O2    1  UNL1        0.0759
     23 O          -4.3763    2.5542   21.6155 O.2     1  UNL1       -0.1499
     24 O          -2.9327    5.1811   21.7386 O.2     1  UNL1       -0.1499
     25 C          -4.0072    3.9933   23.1295 C.ar    1  UNL1        0.1526
     26 C          -5.3819    4.4390   23.5317 C.ar    1  UNL1        0.0248
     27 C          -5.7346    4.5647   24.9842 C.ar    1  UNL1        0.0312
     28 C          -4.7126    4.2447   26.0346 C.ar    1  UNL1        0.1425
     29 F          -5.0653    4.3704   27.4870 F       1  UNL1       -0.2041
     30 C          -3.3380    3.7991   25.6324 C.ar    1  UNL1        0.0606
     31 C          -2.9852    3.6734   24.1799 C.ar    1  UNL1        0.1611
     32 F          -1.6106    3.2278   23.7778 F       1  UNL1       -0.2027
     33 C           6.3181   -3.8858   24.2391 C.3     1  UNL1        0.1108
     34 N           5.4067   -2.8062   24.7427 N.pl3   1  UNL1       -0.3013
     35 H           5.3839   -2.5894   25.7028 H       1  UNL1        0.1497
     36 O           2.5334    1.7637   25.0748 O.3     1  UNL1       -0.4775
     37 C           1.6176    1.3383   26.1841 C.3     1  UNL1        0.1710
     38 C           0.1696    1.7284   26.1525 C.3     1  UNL1        0.0756
     39 C          -0.7461    1.3030   27.2618 C.3     1  UNL1        0.1459
     40 O          -0.2138    0.4876   28.4026 O.3     1  UNL1       -0.3535
     41 C           1.2342    0.0974   28.4343 C.3     1  UNL1        0.1459
     42 C           2.1499    0.5228   27.3250 C.3     1  UNL1        0.0756
@<TRIPOS>BOND
     1    33    34    1
     2    34     1    1
     3     1     2   ar
     4     2     3   ar
     5     3     4    1
     6     3     5   ar
     7     5     6   ar
     8     6     7   ar
     9     7    12    1
    10    12    13   ar
    11    13    14   ar
    12    14    15   ar
    13    15    18    1
    14    18    19    1
    15    15    16   ar
    16    16    20    1
    17    20    22    1
    18    22    23    2
    19    22    24    2
    20    22    25    1
    21    25    26   ar
    22    26    27   ar
    23    27    28   ar
    24    28    29    1
    25    28    30   ar
    26    30    31   ar
    27    31    32    1
    28    16    17   ar
    29     7     8   ar
    30     8     9   ar
    31     9    36    1
    32    36    37    1
    33    37    38    1
    34    38    39    1
    35    39    40    1
    36    40    41    1
    37    41    42    1
    38     9    10   ar
    39    10    11   ar
    40    11     1   ar
    41    10     5   ar
    42    17    12   ar
    43    42    37    1
    44    31    25   ar
    45    34    35    1
    46    20    21    1
@<TRIPOS>MOLECULE
*****
 42 46 0 0 0
SMALL
GASTEIGER

@<TRIPOS>ATOM
      1 C           1.3098    1.4627   24.8268 C.ar    1  UNL1        0.2167
      2 N           1.9352    1.2296   26.1701 N.ar    1  UNL1       -0.2182
      3 C           3.0044    0.1897   26.3295 C.ar    1  UNL1        0.0638
      4 C           3.6298   -0.0434   27.6729 C.3     1  UNL1        0.0522
      5 C           3.4481   -0.6173   25.1455 C.ar    1  UNL1        0.0344
      6 C           4.5173   -1.6573   25.3048 C.ar    1  UNL1        0.0029
      7 C           4.9610   -2.4642   24.1208 C.ar    1  UNL1        0.0047
      8 C           4.3356   -2.2312   22.7774 C.ar    1  UNL1        0.0385
      9 C           3.2665   -1.1912   22.6181 C.ar    1  UNL1        0.1560
     10 C           2.8227   -0.3842   23.8022 C.ar    1  UNL1        0.1191
     11 N           1.7536    0.6557   23.6428 N.ar    1  UNL1       -0.2107
     12 C           6.0302   -3.5042   24.2801 C.ar    1  UNL1        0.0208
     13 C           6.5782   -4.2073   23.0737 C.ar    1  UNL1        0.1021
     14 N           7.6474   -5.2473   23.2331 N.ar    1  UNL1       -0.2090
     15 C           8.1684   -5.5842   24.5988 C.ar    1  UNL1        0.2400
     16 C           7.6203   -4.8810   25.8051 C.ar    1  UNL1        0.1178
     17 C           6.5512   -3.8411   25.6457 C.ar    1  UNL1        0.0221
     18 O           9.2376   -6.6241   24.7581 O.3     1  UNL1       -0.4553
     19 C           9.5344   -7.5728   23.6347 C.3     1  UNL1        0.2543
     20 N           8.1414   -5.2179   27.1707 N.pl3   1  UNL1       -0.2104
     21 H           8.8631   -5.8797   27.2727 H       1  UNL1        0.1739
     22 S           7.5629   -4.5464   28.3809 S.O2    1  UNL1        0.0759
     23 O           8.7020   -3.5705   28.3839 O.2     1  UNL1       -0.1499
     24 O           6.4238   -5.5223   28.3779 O.2     1  UNL1       -0.1499
     25 C           6.9845   -3.8749   29.5910 C.ar    1  UNL1        0.1526
     26 C           6.3037   -2.5450   29.4573 C.ar    1  UNL1        0.0248
     27 C           5.7252   -1.8735   30.6674 C.ar    1  UNL1        0.0312
     28 C           5.8275   -2.5319   32.0113 C.ar    1  UNL1        0.1425
     29 F           5.2491   -1.8604   33.2215 F       1  UNL1       -0.2041
     30 C           6.5082   -3.8618   32.1451 C.ar    1  UNL1        0.0606
     31 C           7.0867   -4.5334   30.9349 C.ar    1  UNL1        0.1611
     32 F           7.7674   -5.8633   31.0687 F       1  UNL1       -0.2027
     33 C          -1.0398    2.3864   25.4400 C.3     1  UNL1        0.1108
     34 N           0.2407    2.5027   24.6675 N.pl3   1  UNL1       -0.3013
     35 H           0.3794    3.2615   24.0559 H       1  UNL1        0.1497
     36 O           2.6411   -0.9582   21.2748 O.3     1  UNL1       -0.4775
     37 C           3.4300   -1.2160   20.0252 C.3     1  UNL1        0.1710
     38 C           4.1211   -0.0823   19.3273 C.3     1  UNL1        0.0756
     39 C           4.9099   -0.3401   18.0779 C.3     1  UNL1        0.1459
     40 O           5.0078   -1.7316   17.5264 O.3     1  UNL1       -0.3535
     41 C           4.3167   -2.8653   18.2243 C.3     1  UNL1        0.1459
     42 C           3.5278   -2.6075   19.4737 C.3     1  UNL1        0.0756
@<TRIPOS>BOND
     1    33    34    1
     2    34     1    1
     3     1     2   ar
     4     2     3   ar
     5     3     4    1
     6     3     5   ar
     7     5     6   ar
     8     6     7   ar
     9     7    12    1
    10    12    13   ar
    11    13    14   ar
    12    14    15   ar
    13    15    18    1
    14    18    19    1
    15    15    16   ar
    16    16    20    1
    17    20    22    1
    18    22    23    2
    19    22    24    2
    20    22    25    1
    21    25    26   ar
    22    26    27   ar
    23    27    28   ar
    24    28    29    1
    25    28    30   ar
    26    30    31   ar
    27    31    32    1
    28    16    17   ar
    29     7     8   ar
    30     8     9   ar
    31     9    36    1
    32    36    37    1
    33    37    38    1
    34    38    39    1
    35    39    40    1
    36    40    41    1
    37    41    42    1
    38     9    10   ar
    39    10    11   ar
    40    11     1   ar
    41    10     5   ar
    42    17    12   ar
    43    42    37    1
    44    31    25   ar
    45    34    35    1
    46    20    21    1
@<TRIPOS>MOLECULE
*****
 42 46 0 0 0
SMALL
GASTEIGER

@<TRIPOS>ATOM
      1 C           3.0797    0.1712   31.6730 C.ar    1  UNL1        0.2167
      2 N           1.8636    0.6314   30.9252 N.ar    1  UNL1       -0.2182
      3 C           1.8101    0.5069   29.4313 C.ar    1  UNL1        0.0638
      4 C           0.5939    0.9671   28.6834 C.3     1  UNL1        0.0522
      5 C           2.9727   -0.0776   28.6853 C.ar    1  UNL1        0.0344
      6 C           2.9192   -0.2020   27.1914 C.ar    1  UNL1        0.0029
      7 C           4.0818   -0.7866   26.4454 C.ar    1  UNL1        0.0047
      8 C           5.2980   -1.2468   27.1932 C.ar    1  UNL1        0.0385
      9 C           5.3515   -1.1224   28.6871 C.ar    1  UNL1        0.1560
     10 C           4.1888   -0.5378   29.4331 C.ar    1  UNL1        0.1191
     11 N           4.2423   -0.4133   30.9270 N.ar    1  UNL1       -0.2107
     12 C           4.0283   -0.9110   24.9515 C.ar    1  UNL1        0.0208
     13 C           2.9085   -0.2714   24.1853 C.ar    1  UNL1        0.1021
     14 N           2.8550   -0.3959   22.6914 N.ar    1  UNL1       -0.2090
     15 C           3.9213   -1.1599   21.9638 C.ar    1  UNL1        0.2400
     16 C           5.0410   -1.7994   22.7300 C.ar    1  UNL1        0.1178
     17 C           5.0945   -1.6750   24.2239 C.ar    1  UNL1        0.0221
     18 O           3.8678   -1.2843   20.4699 O.3     1  UNL1       -0.4553
     19 C           4.6034   -0.3008   19.6086 C.3     1  UNL1        0.2543
     20 N           6.1072   -2.5634   22.0024 N.pl3   1  UNL1       -0.2104
     21 H           6.3572   -2.3074   21.0852 H       1  UNL1        0.1739
     22 S           6.7926   -3.7174   22.6722 S.O2    1  UNL1        0.0759
     23 O           8.0450   -2.9013   22.7966 O.2     1  UNL1       -0.1499
     24 O           5.5403   -4.5335   22.5478 O.2     1  UNL1       -0.1499
     25 C           7.4780   -4.8713   23.3420 C.ar    1  UNL1        0.1526
     26 C           8.4125   -5.7456   22.5593 C.ar    1  UNL1        0.0248
     27 C           9.0979   -6.8995   23.2290 C.ar    1  UNL1        0.0312
     28 C           8.8489   -7.1792   24.6815 C.ar    1  UNL1        0.1425
     29 F           9.5343   -8.3331   25.3513 F       1  UNL1       -0.2041
     30 C           7.9145   -6.3050   25.4643 C.ar    1  UNL1        0.0606
     31 C           7.2291   -5.1510   24.7945 C.ar    1  UNL1        0.1611
     32 F           6.2947   -4.2769   25.5772 F       1  UNL1       -0.2027
     33 C           4.4158    0.0263   33.8965 C.3     1  UNL1        0.1108
     34 N           3.1332    0.2957   33.1669 N.pl3   1  UNL1       -0.3013
     35 H           2.3264    0.5541   33.6685 H       1  UNL1        0.1497
     36 O           6.5676   -1.5825   29.4350 O.3     1  UNL1       -0.4775
     37 C           6.6449   -2.9902   29.9475 C.3     1  UNL1        0.1710
     38 C           6.6778   -3.2498   31.4245 C.3     1  UNL1        0.0756
     39 C           6.7551   -4.6574   31.9369 C.3     1  UNL1        0.1459
     40 O           6.7994   -5.8054   30.9724 O.3     1  UNL1       -0.3535
     41 C           6.7665   -5.5457   29.4955 C.3     1  UNL1        0.1459
     42 C           6.6892   -4.1381   28.9830 C.3     1  UNL1        0.0756
@<TRIPOS>BOND
     1    33    34    1
     2    34     1    1
     3     1     2   ar
     4     2     3   ar
     5     3     4    1
     6     3     5   ar
     7     5     6   ar
     8     6     7   ar
     9     7    12    1
    10    12    13   ar
    11    13    14   ar
    12    14    15   ar
    13    15    18    1
    14    18    19    1
    15    15    16   ar
    16    16    20    1
    17    20    22    1
    18    22    23    2
    19    22    24    2
    20    22    25    1
    21    25    26   ar
    22    26    27   ar
    23    27    28   ar
    24    28    29    1
    25    28    30   ar
    26    30    31   ar
    27    31    32    1
    28    16    17   ar
    29     7     8   ar
    30     8     9   ar
    31     9    36    1
    32    36    37    1
    33    37    38    1
    34    38    39    1
    35    39    40    1
    36    40    41    1
    37    41    42    1
    38     9    10   ar
    39    10    11   ar
    40    11     1   ar
    41    10     5   ar
    42    17    12   ar
    43    42    37    1
    44    31    25   ar
    45    34    35    1
    46    20    21    1
@<TRIPOS>MOLECULE
*****
 42 46 0 0 0
SMALL
GASTEIGER

@<TRIPOS>ATOM
      1 C           6.4301   -3.9172   23.5412 C.ar    1  UNL1        0.2167
      2 N           6.3416   -3.2705   24.8917 N.ar    1  UNL1       -0.2182
      3 C           5.3360   -2.1855   25.1392 C.ar    1  UNL1        0.0638
      4 C           5.2475   -1.5388   26.4899 C.3     1  UNL1        0.0522
      5 C           4.4188   -1.7471   24.0363 C.ar    1  UNL1        0.0344
      6 C           3.4131   -0.6620   24.2839 C.ar    1  UNL1        0.0029
      7 C           2.4959   -0.2237   23.1809 C.ar    1  UNL1        0.0047
      8 C           2.5843   -0.8703   21.8303 C.ar    1  UNL1        0.0385
      9 C           3.5900   -1.9554   21.5828 C.ar    1  UNL1        0.1560
     10 C           4.5072   -2.3937   22.6858 C.ar    1  UNL1        0.1191
     11 N           5.5129   -3.4788   22.4382 N.ar    1  UNL1       -0.2107
     12 C           1.4902    0.8614   23.4285 C.ar    1  UNL1        0.0208
     13 C           1.1681    1.8470   22.3445 C.ar    1  UNL1        0.1021
     14 N           0.1624    2.9320   22.5921 N.ar    1  UNL1       -0.2090
     15 C          -0.5211    3.0315   23.9237 C.ar    1  UNL1        0.2400
     16 C          -0.1990    2.0459   25.0076 C.ar    1  UNL1        0.1178
     17 C           0.8067    0.9609   24.7600 C.ar    1  UNL1        0.0221
     18 O          -1.5268    4.1165   24.1712 O.3     1  UNL1       -0.4553
     19 C          -1.0667    5.4951   24.5426 C.3     1  UNL1        0.2543
     20 N          -0.8825    2.1454   26.3390 N.pl3   1  UNL1       -0.2104
     21 H          -1.8309    2.4050   26.3873 H       1  UNL1        0.1739
     22 S          -0.1209    1.8495   27.5970 S.O2    1  UNL1        0.0759
     23 O           0.7221    3.0698   27.3738 O.2     1  UNL1       -0.1499
     24 O          -0.9640    0.6291   27.8203 O.2     1  UNL1       -0.1499
     25 C           0.6406    1.5535   28.8550 C.ar    1  UNL1        0.1526
     26 C           0.2945    2.2690   30.1272 C.ar    1  UNL1        0.0248
     27 C           1.0561    1.9731   31.3851 C.ar    1  UNL1        0.0312
     28 C           2.1637    0.9617   31.3709 C.ar    1  UNL1        0.1425
     29 F           2.9252    0.6657   32.6289 F       1  UNL1       -0.2041
     30 C           2.5097    0.2462   30.0989 C.ar    1  UNL1        0.0606
     31 C           1.7482    0.5421   28.8408 C.ar    1  UNL1        0.1611
     32 F           2.0943   -0.1734   27.5688 F       1  UNL1       -0.2027
     33 C           7.8707   -5.8928   24.4194 C.3     1  UNL1        0.1108
     34 N           7.4358   -5.0022   23.2936 N.pl3   1  UNL1       -0.3013
     35 H           7.8104   -5.1298   22.3921 H       1  UNL1        0.1497
     36 O           3.6785   -2.6020   20.2322 O.3     1  UNL1       -0.4775
     37 C           4.5998   -2.0399   19.1904 C.3     1  UNL1        0.1710
     38 C           5.9895   -2.5853   19.0452 C.3     1  UNL1        0.0756
     39 C           6.9107   -2.0232   18.0034 C.3     1  UNL1        0.1459
     40 O           6.4422   -0.9157   17.1068 O.3     1  UNL1       -0.3535
     41 C           5.0525   -0.3703   17.2520 C.3     1  UNL1        0.1459
     42 C           4.1313   -0.9324   18.2938 C.3     1  UNL1        0.0756
@<TRIPOS>BOND
     1    33    34    1
     2    34     1    1
     3     1     2   ar
     4     2     3   ar
     5     3     4    1
     6     3     5   ar
     7     5     6   ar
     8     6     7   ar
     9     7    12    1
    10    12    13   ar
    11    13    14   ar
    12    14    15   ar
    13    15    18    1
    14    18    19    1
    15    15    16   ar
    16    16    20    1
    17    20    22    1
    18    22    23    2
    19    22    24    2
    20    22    25    1
    21    25    26   ar
    22    26    27   ar
    23    27    28   ar
    24    28    29    1
    25    28    30   ar
    26    30    31   ar
    27    31    32    1
    28    16    17   ar
    29     7     8   ar
    30     8     9   ar
    31     9    36    1
    32    36    37    1
    33    37    38    1
    34    38    39    1
    35    39    40    1
    36    40    41    1
    37    41    42    1
    38     9    10   ar
    39    10    11   ar
    40    11     1   ar
    41    10     5   ar
    42    17    12   ar
    43    42    37    1
    44    31    25   ar
    45    34    35    1
    46    20    21    1
