@<TRIPOS>MOLECULE
*****
 30 33 0 0 0
SMALL
GASTEIGER

@<TRIPOS>ATOM
      1 C          -9.1505  -18.9522   21.4743 C.2     1  UNL1        0.2685
      2 O          -8.9267  -20.3557   20.9945 O.2     1  UNL1       -0.2682
      3 N          -7.9800  -18.0433   21.7063 N.am    1  UNL1       -0.2723
      4 C          -6.5858  -18.5379   21.4586 C.3     1  UNL1        0.0761
      5 C          -6.0145  -18.9363   20.1301 C.3     1  UNL1        0.0213
      6 C          -4.5936  -19.3655   20.3463 C.3     1  UNL1        0.0188
      7 C          -3.3625  -19.8770   19.6588 C.3     1  UNL1        0.0686
      8 N          -2.2946  -20.0600   20.6962 N.3     1  UNL1       -0.2975
      9 C          -2.8657  -19.6617   22.0248 C.3     1  UNL1        0.0686
     10 C          -4.2866  -19.2324   21.8085 C.3     1  UNL1        0.0188
     11 C          -5.5178  -18.7209   22.4960 C.3     1  UNL1        0.0213
     12 H          -1.4917  -19.4714   20.4740 H       1  UNL1        0.1232
     13 C         -13.7643  -17.9027   23.8178 C.3     1  UNL1        0.1321
     14 N         -12.6655  -17.9753   22.7992 N.ar    1  UNL1       -0.3057
     15 C         -12.7153  -17.4182   21.4075 C.ar    1  UNL1        0.1787
     16 N         -11.4046  -17.7163   20.7417 N.ar    1  UNL1       -0.2192
     17 C         -10.5448  -18.4577   21.7220 C.ar    1  UNL1        0.1535
     18 C         -11.3241  -18.6177   22.9937 C.ar    1  UNL1        0.1012
     19 C          -8.2038  -16.6398   22.1862 C.3     1  UNL1        0.1204
     20 C          -7.6189  -16.1917   23.4927 C.ar    1  UNL1       -0.0022
     21 C          -6.2673  -15.5419   23.5258 C.ar    1  UNL1       -0.0003
     22 C          -5.6824  -15.0937   24.8324 C.ar    1  UNL1        0.0293
     23 C          -6.4491  -15.2954   26.1057 C.ar    1  UNL1        0.1440
     24 F          -5.8642  -14.8473   27.4124 F       1  UNL1       -0.2042
     25 C          -7.8006  -15.9452   26.0726 C.ar    1  UNL1        0.0985
     26 C          -8.3855  -16.3933   24.7661 C.ar    1  UNL1        0.0035
     27 C          -8.5673  -16.1469   27.3461 C.3     1  UNL1        0.4207
     28 F          -9.3339  -16.3487   28.6194 F       1  UNL1       -0.1658
     29 F          -8.6377  -17.6197   27.0703 F       1  UNL1       -0.1658
     30 F          -8.4969  -14.6742   27.6217 F       1  UNL1       -0.1658
@<TRIPOS>BOND
     1    13    14    1
     2    14    15   ar
     3    15    16   ar
     4    16    17   ar
     5    17     1    1
     6     1     2    2
     7     1     3   am
     8     3    19    1
     9    19    20    1
    10    20    21   ar
    11    21    22   ar
    12    22    23   ar
    13    23    24    1
    14    23    25   ar
    15    25    27    1
    16    27    28    1
    17    27    29    1
    18    27    30    1
    19    25    26   ar
    20     4     3    1
    21     4     5    1
    22     6     5    1
    23     6     7    1
    24     7     8    1
    25     8     9    1
    26    10     9    1
    27    10    11    1
    28    17    18   ar
    29    18    14   ar
    30    26    20   ar
    31    11     4    1
    32    10     6    1
    33     8    12    1
@<TRIPOS>MOLECULE
*****
 30 33 0 0 0
SMALL
GASTEIGER

@<TRIPOS>ATOM
      1 C          -7.7830  -19.1639   21.7694 C.2     1  UNL1        0.2685
      2 O          -8.5790  -20.4312   21.6679 O.2     1  UNL1       -0.2682
      3 N          -8.4102  -17.9282   22.3435 N.am    1  UNL1       -0.2723
      4 C          -9.8334  -17.9598   22.8160 C.3     1  UNL1        0.0761
      5 C         -10.3465  -18.6917   24.0206 C.3     1  UNL1        0.0213
      6 C         -11.8237  -18.4493   24.1161 C.3     1  UNL1        0.0188
      7 C         -13.0537  -18.7518   24.9195 C.3     1  UNL1        0.0686
      8 N         -14.2138  -18.0570   24.2705 N.3     1  UNL1       -0.2975
      9 C         -13.7008  -17.3250   23.0659 C.3     1  UNL1        0.0686
     10 C         -12.2236  -17.5674   22.9704 C.3     1  UNL1        0.0188
     11 C         -10.9936  -17.2649   22.1670 C.3     1  UNL1        0.0213
     12 H         -14.6317  -17.3959   24.9253 H       1  UNL1        0.1232
     13 C          -2.5089  -19.4087   21.6975 C.3     1  UNL1        0.1321
     14 N          -3.9355  -19.2449   21.2638 N.ar    1  UNL1       -0.3057
     15 C          -4.4035  -18.9229   19.8756 C.ar    1  UNL1        0.1787
     16 N          -5.9018  -18.8533   19.8960 N.ar    1  UNL1       -0.2192
     17 C          -6.3597  -19.1324   21.2968 C.ar    1  UNL1        0.1535
     18 C          -5.1445  -19.3744   22.1422 C.ar    1  UNL1        0.1012
     19 C          -7.6142  -16.6608   22.4449 C.3     1  UNL1        0.1204
     20 C          -7.1708  -16.1592   23.7872 C.ar    1  UNL1       -0.0022
     21 C          -5.8285  -15.5068   23.9381 C.ar    1  UNL1       -0.0003
     22 C          -5.3851  -15.0051   25.2805 C.ar    1  UNL1        0.0293
     23 C          -6.2840  -15.1560   26.4718 C.ar    1  UNL1        0.1440
     24 F          -5.8406  -14.6543   27.8142 F       1  UNL1       -0.2042
     25 C          -7.6262  -15.8083   26.3208 C.ar    1  UNL1        0.0985
     26 C          -8.0696  -16.3100   24.9786 C.ar    1  UNL1        0.0035
     27 C          -8.5251  -15.9591   27.5122 C.3     1  UNL1        0.4207
     28 F          -9.4240  -16.1100   28.7035 F       1  UNL1       -0.1658
     29 F          -8.6103  -17.4355   27.2610 F       1  UNL1       -0.1658
     30 F          -8.4399  -14.4828   27.7634 F       1  UNL1       -0.1658
@<TRIPOS>BOND
     1    13    14    1
     2    14    15   ar
     3    15    16   ar
     4    16    17   ar
     5    17     1    1
     6     1     2    2
     7     1     3   am
     8     3    19    1
     9    19    20    1
    10    20    21   ar
    11    21    22   ar
    12    22    23   ar
    13    23    24    1
    14    23    25   ar
    15    25    27    1
    16    27    28    1
    17    27    29    1
    18    27    30    1
    19    25    26   ar
    20     4     3    1
    21     4     5    1
    22     6     5    1
    23     6     7    1
    24     7     8    1
    25     8     9    1
    26    10     9    1
    27    10    11    1
    28    17    18   ar
    29    18    14   ar
    30    26    20   ar
    31    11     4    1
    32    10     6    1
    33     8    12    1
@<TRIPOS>MOLECULE
*****
 30 33 0 0 0
SMALL
GASTEIGER

@<TRIPOS>ATOM
      1 C          -9.3819  -19.0847   21.5268 C.2     1  UNL1        0.2685
      2 O          -9.1557  -20.5262   21.1791 O.2     1  UNL1       -0.2682
      3 N          -8.2186  -18.1412   21.6076 N.am    1  UNL1       -0.2723
      4 C          -6.8291  -18.6392   21.3407 C.3     1  UNL1        0.0761
      5 C          -5.7420  -18.8083   22.3604 C.3     1  UNL1        0.0213
      6 C          -4.5238  -19.3292   21.6571 C.3     1  UNL1        0.0188
      7 C          -3.0990  -19.7556   21.8528 C.3     1  UNL1        0.0686
      8 N          -2.5526  -20.1719   20.5193 N.3     1  UNL1       -0.2975
      9 C          -3.6396  -20.0028   19.4996 C.3     1  UNL1        0.0686
     10 C          -4.8579  -19.4819   20.2028 C.3     1  UNL1        0.0188
     11 C          -6.2826  -19.0555   20.0072 C.3     1  UNL1        0.0213
     12 H          -2.2601  -21.1484   20.5547 H       1  UNL1        0.1232
     13 C         -13.9365  -17.9679   23.9534 C.3     1  UNL1        0.1321
     14 N         -12.8650  -18.0734   22.9090 N.ar    1  UNL1       -0.3057
     15 C         -12.9544  -17.5676   21.4998 C.ar    1  UNL1        0.1787
     16 N         -11.6605  -17.8848   20.8105 N.ar    1  UNL1       -0.2192
     17 C         -10.7715  -18.5867   21.7936 C.ar    1  UNL1        0.1535
     18 C         -11.5158  -18.7033   23.0907 C.ar    1  UNL1        0.1012
     19 C          -8.4448  -16.6996   21.9552 C.3     1  UNL1        0.1204
     20 C          -8.2798  -16.2351   23.3719 C.ar    1  UNL1       -0.0022
     21 C          -9.4865  -15.8902   24.1935 C.ar    1  UNL1       -0.0003
     22 C          -9.3214  -15.4256   25.6103 C.ar    1  UNL1        0.0293
     23 C          -7.9496  -15.3059   26.2052 C.ar    1  UNL1        0.1440
     24 F          -7.7845  -14.8413   27.6219 F       1  UNL1       -0.2042
     25 C          -6.7430  -15.6508   25.3836 C.ar    1  UNL1        0.0985
     26 C          -6.9081  -16.1153   23.9669 C.ar    1  UNL1        0.0035
     27 C          -5.3712  -15.5311   25.9786 C.3     1  UNL1        0.4207
     28 F          -3.9995  -15.4114   26.5736 F       1  UNL1       -0.1658
     29 F          -5.8225  -16.3134   27.1762 F       1  UNL1       -0.1658
     30 F          -4.9201  -14.7487   24.7810 F       1  UNL1       -0.1658
@<TRIPOS>BOND
     1    13    14    1
     2    14    15   ar
     3    15    16   ar
     4    16    17   ar
     5    17     1    1
     6     1     2    2
     7     1     3   am
     8     3    19    1
     9    19    20    1
    10    20    21   ar
    11    21    22   ar
    12    22    23   ar
    13    23    24    1
    14    23    25   ar
    15    25    27    1
    16    27    28    1
    17    27    29    1
    18    27    30    1
    19    25    26   ar
    20     4     3    1
    21     4     5    1
    22     6     5    1
    23     6     7    1
    24     7     8    1
    25     8     9    1
    26    10     9    1
    27    10    11    1
    28    17    18   ar
    29    18    14   ar
    30    26    20   ar
    31    11     4    1
    32    10     6    1
    33     8    12    1
@<TRIPOS>MOLECULE
*****
 30 33 0 0 0
SMALL
GASTEIGER

@<TRIPOS>ATOM
      1 C          -3.5453  -16.0285   22.3538 C.2     1  UNL1        0.2685
      2 O          -3.7598  -14.5501   22.4885 O.2     1  UNL1       -0.2682
      3 N          -4.3027  -16.9794   23.2325 N.am    1  UNL1       -0.2723
      4 C          -5.2746  -16.4519   24.2458 C.3     1  UNL1        0.0761
      5 C          -4.9497  -16.0531   25.6549 C.3     1  UNL1        0.0213
      6 C          -6.2164  -15.5853   26.3081 C.3     1  UNL1        0.0188
      7 C          -6.7984  -15.0497   27.5826 C.3     1  UNL1        0.0686
      8 N          -8.2659  -14.8284   27.3649 N.3     1  UNL1       -0.2975
      9 C          -8.5909  -15.2271   25.9558 C.3     1  UNL1        0.0686
     10 C          -7.3242  -15.6949   25.3027 C.3     1  UNL1        0.0188
     11 C          -6.7422  -16.2305   24.0282 C.3     1  UNL1        0.0213
     12 H          -8.4923  -13.8440   27.5070 H       1  UNL1        0.1232
     13 C           0.9390  -17.5169   19.9965 C.3     1  UNL1        0.1321
     14 N          -0.5121  -17.2401   20.2568 N.ar    1  UNL1       -0.3057
     15 C          -1.6429  -17.4952   19.3050 C.ar    1  UNL1        0.1787
     16 N          -2.9168  -17.0724   19.9746 N.ar    1  UNL1       -0.2192
     17 C          -2.5733  -16.5560   21.3403 C.ar    1  UNL1        0.1535
     18 C          -1.0871  -16.6597   21.5148 C.ar    1  UNL1        0.1012
     19 C          -4.0881  -18.4579   23.0977 C.3     1  UNL1        0.1204
     20 C          -4.8578  -19.2370   22.0727 C.ar    1  UNL1       -0.0022
     21 C          -4.1507  -20.2308   21.1995 C.ar    1  UNL1       -0.0003
     22 C          -4.9204  -21.0099   20.1744 C.ar    1  UNL1        0.0293
     23 C          -6.3972  -20.7951   20.0228 C.ar    1  UNL1        0.1440
     24 F          -7.1670  -21.5743   18.9977 F       1  UNL1       -0.2042
     25 C          -7.1042  -19.8015   20.8960 C.ar    1  UNL1        0.0985
     26 C          -6.3346  -19.0224   21.9209 C.ar    1  UNL1        0.0035
     27 C          -8.5811  -19.5867   20.7442 C.3     1  UNL1        0.4207
     28 F         -10.0579  -19.3721   20.5926 F       1  UNL1       -0.1658
     29 F          -8.7837  -19.9650   22.1815 F       1  UNL1       -0.1658
     30 F          -8.3784  -19.2085   19.3070 F       1  UNL1       -0.1658
@<TRIPOS>BOND
     1    13    14    1
     2    14    15   ar
     3    15    16   ar
     4    16    17   ar
     5    17     1    1
     6     1     2    2
     7     1     3   am
     8     3    19    1
     9    19    20    1
    10    20    21   ar
    11    21    22   ar
    12    22    23   ar
    13    23    24    1
    14    23    25   ar
    15    25    27    1
    16    27    28    1
    17    27    29    1
    18    27    30    1
    19    25    26   ar
    20     4     3    1
    21     4     5    1
    22     6     5    1
    23     6     7    1
    24     7     8    1
    25     8     9    1
    26    10     9    1
    27    10    11    1
    28    17    18   ar
    29    18    14   ar
    30    26    20   ar
    31    11     4    1
    32    10     6    1
    33     8    12    1
@<TRIPOS>MOLECULE
*****
 30 33 0 0 0
SMALL
GASTEIGER

@<TRIPOS>ATOM
      1 C          -5.2535  -15.9498   23.2008 C.2     1  UNL1        0.2685
      2 O          -4.4047  -14.7565   22.8758 O.2     1  UNL1       -0.2682
      3 N          -4.9217  -17.2889   22.6120 N.am    1  UNL1       -0.2723
      4 C          -3.7412  -17.4347   21.6983 C.3     1  UNL1        0.0761
      5 C          -3.7762  -17.9403   20.2864 C.3     1  UNL1        0.0213
      6 C          -2.3750  -17.9187   19.7515 C.3     1  UNL1        0.0188
      7 C          -1.5307  -18.2177   18.5483 C.3     1  UNL1        0.0686
      8 N          -0.1079  -17.8836   18.8858 N.3     1  UNL1       -0.2975
      9 C          -0.0728  -17.3781   20.2976 C.3     1  UNL1        0.0686
     10 C          -1.4740  -17.3997   20.8326 C.3     1  UNL1        0.0188
     11 C          -2.3183  -17.1006   22.0358 C.3     1  UNL1        0.0213
     12 H           0.2384  -17.1637   18.2517 H       1  UNL1        0.1232
     13 C          -8.2224  -15.6099   27.5540 C.3     1  UNL1        0.1321
     14 N          -7.7987  -15.6476   26.1156 N.ar    1  UNL1       -0.3057
     15 C          -8.7025  -15.5111   24.9263 C.ar    1  UNL1        0.1787
     16 N          -7.8590  -15.6076   23.6897 N.ar    1  UNL1       -0.2192
     17 C          -6.4341  -15.8039   24.1147 C.ar    1  UNL1        0.1535
     18 C          -6.3967  -15.8286   25.6140 C.ar    1  UNL1        0.1012
     19 C          -5.7705  -18.4822   22.9371 C.3     1  UNL1        0.1204
     20 C          -6.9852  -18.7859   22.1111 C.ar    1  UNL1       -0.0022
     21 C          -6.8351  -19.1617   20.6667 C.ar    1  UNL1       -0.0003
     22 C          -8.0499  -19.4655   19.8406 C.ar    1  UNL1        0.0293
     23 C          -9.4145  -19.3933   20.4591 C.ar    1  UNL1        0.1440
     24 F         -10.6292  -19.6971   19.6330 F       1  UNL1       -0.2042
     25 C          -9.5645  -19.0176   21.9034 C.ar    1  UNL1        0.0985
     26 C          -8.3499  -18.7139   22.7295 C.ar    1  UNL1        0.0035
     27 C         -10.9293  -18.9455   22.5219 C.3     1  UNL1        0.4207
     28 F         -12.2939  -18.8735   23.1403 F       1  UNL1       -0.1658
     29 F         -11.0642  -20.4342   22.3974 F       1  UNL1       -0.1658
     30 F         -10.7942  -17.4569   22.6463 F       1  UNL1       -0.1658
@<TRIPOS>BOND
     1    13    14    1
     2    14    15   ar
     3    15    16   ar
     4    16    17   ar
     5    17     1    1
     6     1     2    2
     7     1     3   am
     8     3    19    1
     9    19    20    1
    10    20    21   ar
    11    21    22   ar
    12    22    23   ar
    13    23    24    1
    14    23    25   ar
    15    25    27    1
    16    27    28    1
    17    27    29    1
    18    27    30    1
    19    25    26   ar
    20     4     3    1
    21     4     5    1
    22     6     5    1
    23     6     7    1
    24     7     8    1
    25     8     9    1
    26    10     9    1
    27    10    11    1
    28    17    18   ar
    29    18    14   ar
    30    26    20   ar
    31    11     4    1
    32    10     6    1
    33     8    12    1
@<TRIPOS>MOLECULE
*****
 30 33 0 0 0
SMALL
GASTEIGER

@<TRIPOS>ATOM
      1 C          -3.3706  -16.6571   22.1252 C.2     1  UNL1        0.2685
      2 O          -3.0513  -15.2696   22.5973 O.2     1  UNL1       -0.2682
      3 N          -4.5209  -17.4081   22.7275 N.am    1  UNL1       -0.2723
      4 C          -5.3520  -16.7716   23.8017 C.3     1  UNL1        0.0761
      5 C          -6.7812  -16.3360   23.6690 C.3     1  UNL1        0.0213
      6 C          -7.2123  -15.7541   24.9826 C.3     1  UNL1        0.0188
      7 C          -8.3621  -15.1252   25.7124 C.3     1  UNL1        0.0686
      8 N          -7.9099  -14.8126   27.1080 N.3     1  UNL1       -0.2975
      9 C          -6.4807  -15.2482   27.2408 C.3     1  UNL1        0.0686
     10 C          -6.0496  -15.8301   25.9272 C.3     1  UNL1        0.0188
     11 C          -4.8998  -16.4589   25.1974 C.3     1  UNL1        0.0213
     12 H          -8.4890  -15.3156   27.7803 H       1  UNL1        0.1232
     13 C          -1.3746  -17.9102   17.4001 C.3     1  UNL1        0.1321
     14 N          -1.6220  -17.8696   18.8791 N.ar    1  UNL1       -0.3057
     15 C          -0.8989  -18.6764   19.9164 C.ar    1  UNL1        0.1787
     16 N          -1.4659  -18.3204   21.2587 N.ar    1  UNL1       -0.2192
     17 C          -2.5394  -17.2936   21.0509 C.ar    1  UNL1        0.1535
     18 C          -2.6359  -17.0149   19.5802 C.ar    1  UNL1        0.1012
     19 C          -4.8401  -18.7957   22.2554 C.3     1  UNL1        0.1204
     20 C          -6.1547  -19.0778   21.5905 C.ar    1  UNL1       -0.0022
     21 C          -6.2208  -19.2487   20.1017 C.ar    1  UNL1       -0.0003
     22 C          -7.5356  -19.5308   19.4368 C.ar    1  UNL1        0.0293
     23 C          -8.7841  -19.6419   20.2607 C.ar    1  UNL1        0.1440
     24 F         -10.0988  -19.9239   19.5958 F       1  UNL1       -0.2042
     25 C          -8.7179  -19.4709   21.7494 C.ar    1  UNL1        0.0985
     26 C          -7.4033  -19.1889   22.4143 C.ar    1  UNL1        0.0035
     27 C          -9.9665  -19.5821   22.5733 C.3     1  UNL1        0.4207
     28 F         -11.2150  -19.6932   23.3973 F       1  UNL1       -0.1658
     29 F          -9.3854  -20.7619   23.2947 F       1  UNL1       -0.1658
     30 F         -10.5475  -18.4023   21.8520 F       1  UNL1       -0.1658
@<TRIPOS>BOND
     1    13    14    1
     2    14    15   ar
     3    15    16   ar
     4    16    17   ar
     5    17     1    1
     6     1     2    2
     7     1     3   am
     8     3    19    1
     9    19    20    1
    10    20    21   ar
    11    21    22   ar
    12    22    23   ar
    13    23    24    1
    14    23    25   ar
    15    25    27    1
    16    27    28    1
    17    27    29    1
    18    27    30    1
    19    25    26   ar
    20     4     3    1
    21     4     5    1
    22     6     5    1
    23     6     7    1
    24     7     8    1
    25     8     9    1
    26    10     9    1
    27    10    11    1
    28    17    18   ar
    29    18    14   ar
    30    26    20   ar
    31    11     4    1
    32    10     6    1
    33     8    12    1
@<TRIPOS>MOLECULE
*****
 30 33 0 0 0
SMALL
GASTEIGER

@<TRIPOS>ATOM
      1 C           1.8602    2.9551   19.9259 C.2     1  UNL1        0.2685
      2 O           2.5307    4.1839   19.3870 O.2     1  UNL1       -0.2682
      3 N           2.5527    1.6269   19.8466 N.am    1  UNL1       -0.2723
      4 C           3.9158    1.5275   19.2285 C.3     1  UNL1        0.0761
      5 C           5.2115    1.8997   19.8862 C.3     1  UNL1        0.0213
      6 C           6.3190    1.6407   18.9083 C.3     1  UNL1        0.0188
      7 C           7.8042    1.7107   18.7104 C.3     1  UNL1        0.0686
      8 N           8.1109    1.2216   17.3260 N.3     1  UNL1       -0.2975
      9 C           6.8153    0.8494   16.6682 C.3     1  UNL1        0.0686
     10 C           5.7078    1.1084   17.6461 C.3     1  UNL1        0.0188
     11 C           4.2225    1.0384   17.8440 C.3     1  UNL1        0.0213
     12 H           8.7214    0.4059   17.3744 H       1  UNL1        0.1232
     13 C          -3.3807    3.2182   20.5124 C.3     1  UNL1        0.1321
     14 N          -1.9119    3.1755   20.8136 N.ar    1  UNL1       -0.3057
     15 C          -1.2892    3.2396   22.1766 C.ar    1  UNL1        0.1787
     16 N           0.1997    3.1649   22.0100 N.ar    1  UNL1       -0.2192
     17 C           0.4971    3.0545   20.5440 C.ar    1  UNL1        0.1535
     18 C          -0.8080    3.0611   19.8045 C.ar    1  UNL1        0.1012
     19 C           1.8821    0.3981   20.3855 C.3     1  UNL1        0.1204
     20 C           2.7067   -0.7789   20.8152 C.ar    1  UNL1       -0.0022
     21 C           3.1637   -0.8947   22.2392 C.ar    1  UNL1       -0.0003
     22 C           3.9884   -2.0718   22.6689 C.ar    1  UNL1        0.0293
     23 C           4.3559   -3.1330   21.6745 C.ar    1  UNL1        0.1440
     24 F           5.1806   -4.3101   22.1043 F       1  UNL1       -0.2042
     25 C           3.8989   -3.0172   20.2506 C.ar    1  UNL1        0.0985
     26 C           3.0743   -1.8402   19.8209 C.ar    1  UNL1        0.0035
     27 C           4.2665   -4.0784   19.2562 C.3     1  UNL1        0.4207
     28 F           4.6342   -5.1396   18.2619 F       1  UNL1       -0.1658
     29 F           5.6927   -3.6147   19.2887 F       1  UNL1       -0.1658
     30 F           2.8404   -4.5421   19.2239 F       1  UNL1       -0.1658
@<TRIPOS>BOND
     1    13    14    1
     2    14    15   ar
     3    15    16   ar
     4    16    17   ar
     5    17     1    1
     6     1     2    2
     7     1     3   am
     8     3    19    1
     9    19    20    1
    10    20    21   ar
    11    21    22   ar
    12    22    23   ar
    13    23    24    1
    14    23    25   ar
    15    25    27    1
    16    27    28    1
    17    27    29    1
    18    27    30    1
    19    25    26   ar
    20     4     3    1
    21     4     5    1
    22     6     5    1
    23     6     7    1
    24     7     8    1
    25     8     9    1
    26    10     9    1
    27    10    11    1
    28    17    18   ar
    29    18    14   ar
    30    26    20   ar
    31    11     4    1
    32    10     6    1
    33     8    12    1
@<TRIPOS>MOLECULE
*****
 30 33 0 0 0
SMALL
GASTEIGER

@<TRIPOS>ATOM
      1 C          -7.9322  -17.4395   22.1808 C.2     1  UNL1        0.2685
      2 O          -9.1830  -17.0696   21.4401 O.2     1  UNL1       -0.2682
      3 N          -7.1352  -18.6370   21.7558 N.am    1  UNL1       -0.2723
      4 C          -7.5890  -19.4646   20.5901 C.3     1  UNL1        0.0761
      5 C          -8.7841  -19.1904   19.7260 C.3     1  UNL1        0.0213
      6 C          -8.8611  -20.2681   18.6856 C.3     1  UNL1        0.0188
      7 C          -9.6473  -20.7647   17.5086 C.3     1  UNL1        0.0686
      8 N          -8.9857  -22.0120   17.0022 N.3     1  UNL1       -0.2975
      9 C          -7.7906  -22.2863   17.8662 C.3     1  UNL1        0.0686
     10 C          -7.7136  -21.2085   18.9066 C.3     1  UNL1        0.0188
     11 C          -6.9274  -20.7120   20.0836 C.3     1  UNL1        0.0213
     12 H          -8.6903  -21.8789   16.0350 H       1  UNL1        0.1232
     13 C          -7.5115  -15.4088   27.0368 C.3     1  UNL1        0.1321
     14 N          -7.2851  -15.6783   25.5786 N.ar    1  UNL1       -0.3057
     15 C          -6.2755  -14.9978   24.7026 C.ar    1  UNL1        0.1787
     16 N          -6.3951  -15.5747   23.3231 N.ar    1  UNL1       -0.2192
     17 C          -7.4784  -16.6117   23.3466 C.ar    1  UNL1        0.1535
     18 C          -8.0286  -16.6758   24.7406 C.ar    1  UNL1        0.1012
     19 C          -5.8844  -19.0068   22.4966 C.3     1  UNL1        0.1204
     20 C          -4.5770  -18.3729   22.1240 C.ar    1  UNL1       -0.0022
     21 C          -3.7843  -17.6267   23.1559 C.ar    1  UNL1       -0.0003
     22 C          -2.4768  -16.9927   22.7832 C.ar    1  UNL1        0.0293
     23 C          -1.9622  -17.1051   21.3788 C.ar    1  UNL1        0.1440
     24 F          -0.6547  -16.4712   21.0061 F       1  UNL1       -0.2042
     25 C          -2.7549  -17.8513   20.3470 C.ar    1  UNL1        0.0985
     26 C          -4.0623  -18.4852   20.7196 C.ar    1  UNL1        0.0035
     27 C          -2.2402  -17.9637   18.9424 C.3     1  UNL1        0.4207
     28 F          -1.7257  -18.0760   17.5380 F       1  UNL1       -0.1658
     29 F          -3.3978  -17.1449   18.4529 F       1  UNL1       -0.1658
     30 F          -1.0828  -18.7824   19.4321 F       1  UNL1       -0.1658
@<TRIPOS>BOND
     1    13    14    1
     2    14    15   ar
     3    15    16   ar
     4    16    17   ar
     5    17     1    1
     6     1     2    2
     7     1     3   am
     8     3    19    1
     9    19    20    1
    10    20    21   ar
    11    21    22   ar
    12    22    23   ar
    13    23    24    1
    14    23    25   ar
    15    25    27    1
    16    27    28    1
    17    27    29    1
    18    27    30    1
    19    25    26   ar
    20     4     3    1
    21     4     5    1
    22     6     5    1
    23     6     7    1
    24     7     8    1
    25     8     9    1
    26    10     9    1
    27    10    11    1
    28    17    18   ar
    29    18    14   ar
    30    26    20   ar
    31    11     4    1
    32    10     6    1
    33     8    12    1
@<TRIPOS>MOLECULE
*****
 30 33 0 0 0
SMALL
GASTEIGER

@<TRIPOS>ATOM
      1 C          -8.8372  -18.8285   20.6463 C.2     1  UNL1        0.2685
      2 O          -8.5414  -20.0872   19.8859 O.2     1  UNL1       -0.2682
      3 N          -7.7277  -18.0896   21.3342 N.am    1  UNL1       -0.2723
      4 C          -6.3226  -18.6094   21.2617 C.3     1  UNL1        0.0761
      5 C          -5.6486  -19.1614   20.0406 C.3     1  UNL1        0.0213
      6 C          -4.2541  -19.5616   20.4218 C.3     1  UNL1        0.0188
      7 C          -2.9758  -20.1501   19.9026 C.3     1  UNL1        0.0686
      8 N          -1.9979  -20.2091   21.0385 N.3     1  UNL1       -0.2975
      9 C          -2.6718  -19.6571   22.2596 C.3     1  UNL1        0.0686
     10 C          -4.0663  -19.2569   21.8784 C.3     1  UNL1        0.0188
     11 C          -5.3446  -18.6684   22.3976 C.3     1  UNL1        0.0213
     12 H          -1.1741  -19.6505   20.8154 H       1  UNL1        0.1232
     13 C         -13.1253  -15.8303   19.9369 C.3     1  UNL1        0.1321
     14 N         -12.2134  -16.9307   20.3927 N.ar    1  UNL1       -0.3057
     15 C         -12.5961  -18.0871   21.2679 C.ar    1  UNL1        0.1787
     16 N         -11.3779  -18.9389   21.4694 N.ar    1  UNL1       -0.2192
     17 C         -10.2424  -18.3088   20.7188 C.ar    1  UNL1        0.1535
     18 C         -10.7588  -17.0676   20.0534 C.ar    1  UNL1        0.1012
     19 C          -8.0236  -16.8309   22.0947 C.3     1  UNL1        0.1204
     20 C          -8.2867  -16.8905   23.5702 C.ar    1  UNL1       -0.0022
     21 C          -9.3701  -17.7802   24.1035 C.ar    1  UNL1       -0.0003
     22 C          -9.6332  -17.8398   25.5792 C.ar    1  UNL1        0.0293
     23 C          -8.8128  -17.0095   26.5212 C.ar    1  UNL1        0.1440
     24 F          -9.0759  -17.0690   27.9969 F       1  UNL1       -0.2042
     25 C          -7.7294  -16.1198   25.9879 C.ar    1  UNL1        0.0985
     26 C          -7.4663  -16.0602   24.5124 C.ar    1  UNL1        0.0035
     27 C          -6.9090  -15.2895   26.9301 C.3     1  UNL1        0.4207
     28 F          -6.0886  -14.4592   27.8722 F       1  UNL1       -0.1658
     29 F          -6.8352  -14.1980   25.9038 F       1  UNL1       -0.1658
     30 F          -6.9829  -16.3809   27.9562 F       1  UNL1       -0.1658
@<TRIPOS>BOND
     1    13    14    1
     2    14    15   ar
     3    15    16   ar
     4    16    17   ar
     5    17     1    1
     6     1     2    2
     7     1     3   am
     8     3    19    1
     9    19    20    1
    10    20    21   ar
    11    21    22   ar
    12    22    23   ar
    13    23    24    1
    14    23    25   ar
    15    25    27    1
    16    27    28    1
    17    27    29    1
    18    27    30    1
    19    25    26   ar
    20     4     3    1
    21     4     5    1
    22     6     5    1
    23     6     7    1
    24     7     8    1
    25     8     9    1
    26    10     9    1
    27    10    11    1
    28    17    18   ar
    29    18    14   ar
    30    26    20   ar
    31    11     4    1
    32    10     6    1
    33     8    12    1
