@<TRIPOS>MOLECULE
*****
 42 47 0 0 0
SMALL
GASTEIGER

@<TRIPOS>ATOM
      1 N          -0.2192    3.8100   19.9171 N.pl3   1  UNL1       -0.2801
      2 H           0.2140    4.6747   20.1013 H       1  UNL1        0.1552
      3 C           1.4401    2.0706   20.9027 C.ar    1  UNL1        0.1477
      4 C           0.6137    2.5730   19.7560 C.ar    1  UNL1        0.0846
      5 C           0.6204    1.8384   18.4482 C.ar    1  UNL1        0.0174
      6 C           1.4533    0.6013   18.2871 C.ar    1  UNL1       -0.0031
      7 C           2.2796    0.0989   19.4338 C.ar    1  UNL1       -0.0231
      8 C           2.2730    0.8336   20.7415 C.ar    1  UNL1        0.0091
      9 C           3.0178    0.5065   22.0018 C.3     1  UNL1        0.0305
     10 C           3.9533   -0.6361   22.2655 C.3     1  UNL1        0.0207
     11 C           4.3749   -1.7337   21.3342 C.3     1  UNL1        0.0583
     12 C           3.9652   -1.9599   19.9090 C.3     1  UNL1        0.0206
     13 C           3.0327   -1.1443   19.0633 C.3     1  UNL1        0.0275
     14 N           5.3328   -2.7379   21.9032 N.3     1  UNL1       -0.2697
     15 C           6.4652   -3.2530   21.0650 C.3     1  UNL1        0.1046
     16 C           7.4232   -4.2572   21.6340 C.3     1  UNL1        0.1595
     17 O           7.2488   -4.7465   23.0412 O.3     1  UNL1       -0.3508
     18 C           6.1164   -4.2315   23.8794 C.3     1  UNL1        0.1595
     19 C           5.1585   -3.2272   23.3104 C.3     1  UNL1        0.1046
     20 C           0.3000    2.6117   23.1736 C.3     1  UNL1        0.2525
     21 O           1.4334    2.8052   22.2105 O.3     1  UNL1       -0.4705
     22 C          -1.7123    3.7296   19.7974 C.ar    1  UNL1        0.2219
     23 N          -2.3889    4.1777   18.5358 N.ar    1  UNL1       -0.2110
     24 C          -3.8819    4.0973   18.4162 C.ar    1  UNL1        0.1160
     25 C          -4.6984    3.5687   19.5581 C.ar    1  UNL1        0.1082
     26 CL         -6.1915    3.4883   19.4384 Cl      1  UNL1       -0.0777
     27 C          -4.0219    3.1206   20.8197 C.ar    1  UNL1        0.1435
     28 N          -2.5289    3.2010   20.9393 N.ar    1  UNL1       -0.1979
     29 N          -4.8384    2.5921   21.9616 N.pl3   1  UNL1       -0.3181
     30 H          -5.3493    1.7571   21.8564 H       1  UNL1        0.1482
     31 C          -4.8764    3.3356   23.2637 C.3     1  UNL1        0.0832
     32 C          -6.0285    4.1424   23.7851 C.3     1  UNL1        0.0984
     33 C          -5.6331    4.7083   25.1168 C.3     1  UNL1        0.0323
     34 C          -4.5257    4.7756   26.1263 C.2     1  UNL1       -0.0304
     35 C          -3.3736    3.9688   25.6050 C.2     1  UNL1       -0.0294
     36 C          -3.7690    3.4029   24.2732 C.3     1  UNL1        0.0404
     37 C          -5.1655    3.8599   23.9716 C.3     1  UNL1        0.0109
     38 C          -7.3449    4.3473   23.0957 C.2     1  UNL1        0.2208
     39 N          -8.5566    3.5905   23.5527 N.am    1  UNL1       -0.3288
     40 O          -7.4495    5.3091   21.9494 O.2     1  UNL1       -0.2753
     41 H          -8.4880    2.9592   24.3051 H       1  UNL1        0.1449
     42 H          -9.4206    3.7250   23.1003 H       1  UNL1        0.1449
@<TRIPOS>BOND
     1    20    21    1
     2    21     3    1
     3     3     4   ar
     4     4     1    1
     5     1    22    1
     6    22    23   ar
     7    23    24   ar
     8    24    25   ar
     9    25    26    1
    10    25    27   ar
    11    27    29    1
    12    31    29    1
    13    31    32    1
    14    32    38    1
    15    38    39   am
    16    38    40    2
    17    32    33    1
    18    33    34    1
    19    34    35    2
    20    36    35    1
    21    36    37    1
    22    27    28   ar
    23     4     5   ar
    24     5     6   ar
    25     6     7   ar
    26     7     8   ar
    27     8     9    1
    28     9    10    1
    29    10    11    1
    30    11    14    1
    31    14    15    1
    32    15    16    1
    33    16    17    1
    34    17    18    1
    35    18    19    1
    36    11    12    1
    37    12    13    1
    38     8     3   ar
    39    19    14    1
    40    28    22   ar
    41    13     7    1
    42    36    31    1
    43    37    33    1
    44     1     2    1
    45    29    30    1
    46    39    41    1
    47    39    42    1
@<TRIPOS>MOLECULE
*****
 42 47 0 0 0
SMALL
GASTEIGER

@<TRIPOS>ATOM
      1 N           8.5723   -2.7189   20.2771 N.pl3   1  UNL1       -0.2801
      2 H           9.4799   -2.5350   19.9431 H       1  UNL1        0.1552
      3 C           8.1227   -2.7772   22.8354 C.ar    1  UNL1        0.1477
      4 C           8.3832   -3.4971   21.5454 C.ar    1  UNL1        0.0846
      5 C           8.4547   -4.9952   21.5238 C.ar    1  UNL1        0.0174
      6 C           8.2656   -5.7735   22.7921 C.ar    1  UNL1       -0.0031
      7 C           8.0050   -5.0535   24.0821 C.ar    1  UNL1       -0.0231
      8 C           7.9336   -3.5555   24.1036 C.ar    1  UNL1        0.0091
      9 C           7.6861   -2.6477   25.2719 C.3     1  UNL1        0.0305
     10 C           7.4489   -3.0140   26.7071 C.3     1  UNL1        0.0207
     11 C           7.4007   -4.3783   27.3283 C.3     1  UNL1        0.0583
     12 C           7.5777   -5.7135   26.6681 C.3     1  UNL1        0.0206
     13 C           7.8467   -6.0140   25.2233 C.3     1  UNL1        0.0275
     14 N           7.1411   -4.4120   28.8053 N.3     1  UNL1       -0.2697
     15 C           7.3377   -5.6859   29.5726 C.3     1  UNL1        0.1046
     16 C           7.0781   -5.7196   31.0496 C.3     1  UNL1        0.1595
     17 O           6.6219   -4.4794   31.7593 O.3     1  UNL1       -0.3508
     18 C           6.4252   -3.2055   30.9921 C.3     1  UNL1        0.1595
     19 C           6.6848   -3.1718   29.5152 C.3     1  UNL1        0.1046
     20 C           9.3108   -0.4693   22.9434 C.3     1  UNL1        0.2525
     21 O           8.0512   -1.2791   22.8570 O.3     1  UNL1       -0.4705
     22 C           7.3784   -2.2209   19.5177 C.ar    1  UNL1        0.2219
     23 N           7.5678   -1.4096   18.2703 N.ar    1  UNL1       -0.2110
     24 C           6.3740   -0.9116   17.5110 C.ar    1  UNL1        0.1160
     25 C           4.9906   -1.2249   17.9990 C.ar    1  UNL1        0.1082
     26 CL          3.7967   -0.7269   17.2397 Cl      1  UNL1       -0.0777
     27 C           4.8011   -2.0362   19.2464 C.ar    1  UNL1        0.1435
     28 N           5.9950   -2.5342   20.0058 N.ar    1  UNL1       -0.1979
     29 N           3.4178   -2.3495   19.7345 N.pl3   1  UNL1       -0.3181
     30 H           3.0255   -3.2367   19.5661 H       1  UNL1        0.1482
     31 C           2.6321   -1.3113   20.4791 C.3     1  UNL1        0.0832
     32 C           3.0013   -0.7062   21.8011 C.3     1  UNL1        0.0984
     33 C           1.9365    0.2833   22.1715 C.3     1  UNL1        0.0323
     34 C           0.6436    0.8988   21.7250 C.2     1  UNL1       -0.0304
     35 C           0.2744    0.2937   20.4031 C.2     1  UNL1       -0.0294
     36 C           1.3391   -0.6958   20.0326 C.3     1  UNL1        0.0404
     37 C           2.3664   -0.7022   21.1256 C.3     1  UNL1        0.0109
     38 C           4.2212   -1.0332   22.6105 C.2     1  UNL1        0.2208
     39 N           5.4819   -0.2433   22.4194 N.am    1  UNL1       -0.3288
     40 O           4.1802   -2.1500   23.6110 O.2     1  UNL1       -0.2753
     41 H           5.5088    0.4897   21.7627 H       1  UNL1        0.1449
     42 H           6.2825   -0.4579   22.9506 H       1  UNL1        0.1449
@<TRIPOS>BOND
     1    20    21    1
     2    21     3    1
     3     3     4   ar
     4     4     1    1
     5     1    22    1
     6    22    23   ar
     7    23    24   ar
     8    24    25   ar
     9    25    26    1
    10    25    27   ar
    11    27    29    1
    12    31    29    1
    13    31    32    1
    14    32    38    1
    15    38    39   am
    16    38    40    2
    17    32    33    1
    18    33    34    1
    19    34    35    2
    20    36    35    1
    21    36    37    1
    22    27    28   ar
    23     4     5   ar
    24     5     6   ar
    25     6     7   ar
    26     7     8   ar
    27     8     9    1
    28     9    10    1
    29    10    11    1
    30    11    14    1
    31    14    15    1
    32    15    16    1
    33    16    17    1
    34    17    18    1
    35    18    19    1
    36    11    12    1
    37    12    13    1
    38     8     3   ar
    39    19    14    1
    40    28    22   ar
    41    13     7    1
    42    36    31    1
    43    37    33    1
    44     1     2    1
    45    29    30    1
    46    39    41    1
    47    39    42    1
@<TRIPOS>MOLECULE
*****
 42 47 0 0 0
SMALL
GASTEIGER

@<TRIPOS>ATOM
      1 N           0.4839    2.3394   31.9164 N.pl3   1  UNL1       -0.2801
      2 H          -0.3655    2.4324   32.4054 H       1  UNL1        0.1552
      3 C           0.2257    1.8999   29.3688 C.ar    1  UNL1        0.1477
      4 C           0.5893    2.8173   30.4985 C.ar    1  UNL1        0.0846
      5 C           1.0583    4.2127   30.2104 C.ar    1  UNL1        0.0174
      6 C           1.1637    4.6907   28.7924 C.ar    1  UNL1       -0.0031
      7 C           0.8001    3.7732   27.6627 C.ar    1  UNL1       -0.0231
      8 C           0.3311    2.3780   27.9509 C.ar    1  UNL1        0.0091
      9 C          -0.0779    1.3096   26.9807 C.3     1  UNL1        0.0305
     10 C          -0.1188    1.3728   25.4825 C.3     1  UNL1        0.0207
     11 C           0.2390    2.5199   24.5848 C.3     1  UNL1        0.0583
     12 C           0.7263    3.8871   24.9632 C.3     1  UNL1        0.0206
     13 C           0.9760    4.4449   26.3331 C.3     1  UNL1        0.0275
     14 N           0.0900    2.2662   23.1139 N.3     1  UNL1       -0.2697
     15 C          -0.8307    3.1215   22.2947 C.3     1  UNL1        0.1046
     16 C          -0.9798    2.8678   20.8239 C.3     1  UNL1        0.1595
     17 O          -0.2081    1.7588   20.1721 O.3     1  UNL1       -0.3508
     18 C           0.7126    0.9035   20.9912 C.3     1  UNL1        0.1595
     19 C           0.8616    1.1572   22.4621 C.3     1  UNL1        0.1046
     20 C          -1.6950    0.1563   29.5118 C.3     1  UNL1        0.2525
     21 O          -0.2433    0.5046   29.6570 O.3     1  UNL1       -0.4705
     22 C           1.6727    1.7198   32.5893 C.ar    1  UNL1        0.2219
     23 N           2.4032    0.5882   31.9288 N.ar    1  UNL1       -0.2110
     24 C           3.5920   -0.0314   32.6017 C.ar    1  UNL1        0.1160
     25 C           4.0504    0.4805   33.9350 C.ar    1  UNL1        0.1082
     26 CL          5.2392   -0.1391   34.6079 Cl      1  UNL1       -0.0777
     27 C           3.3200    1.6120   34.5956 C.ar    1  UNL1        0.1435
     28 N           2.1312    2.2317   33.9227 N.ar    1  UNL1       -0.1979
     29 N           3.7784    2.1240   35.9289 N.pl3   1  UNL1       -0.3181
     30 H           4.7036    2.4405   36.0430 H       1  UNL1        0.1482
     31 C           2.8272    2.1536   37.0883 C.3     1  UNL1        0.0832
     32 C           1.9819    3.3203   37.5056 C.3     1  UNL1        0.0984
     33 C           1.1866    2.9095   38.7092 C.3     1  UNL1        0.0323
     34 C           0.9137    1.7776   39.6549 C.2     1  UNL1       -0.0304
     35 C           1.7589    0.6109   39.2375 C.2     1  UNL1       -0.0294
     36 C           2.5543    1.0217   38.0339 C.3     1  UNL1        0.0404
     37 C           2.2005    2.4424   37.7074 C.3     1  UNL1        0.0109
     38 C           1.9394    4.6624   36.8368 C.2     1  UNL1        0.2208
     39 N           1.2789    4.8128   35.4985 N.am    1  UNL1       -0.3288
     40 O           2.5574    5.8539   37.5064 O.2     1  UNL1       -0.2753
     41 H           0.8733    4.0307   35.0591 H       1  UNL1        0.1449
     42 H           1.2510    5.6936   35.0595 H       1  UNL1        0.1449
@<TRIPOS>BOND
     1    20    21    1
     2    21     3    1
     3     3     4   ar
     4     4     1    1
     5     1    22    1
     6    22    23   ar
     7    23    24   ar
     8    24    25   ar
     9    25    26    1
    10    25    27   ar
    11    27    29    1
    12    31    29    1
    13    31    32    1
    14    32    38    1
    15    38    39   am
    16    38    40    2
    17    32    33    1
    18    33    34    1
    19    34    35    2
    20    36    35    1
    21    36    37    1
    22    27    28   ar
    23     4     5   ar
    24     5     6   ar
    25     6     7   ar
    26     7     8   ar
    27     8     9    1
    28     9    10    1
    29    10    11    1
    30    11    14    1
    31    14    15    1
    32    15    16    1
    33    16    17    1
    34    17    18    1
    35    18    19    1
    36    11    12    1
    37    12    13    1
    38     8     3   ar
    39    19    14    1
    40    28    22   ar
    41    13     7    1
    42    36    31    1
    43    37    33    1
    44     1     2    1
    45    29    30    1
    46    39    41    1
    47    39    42    1
@<TRIPOS>MOLECULE
*****
 42 47 0 0 0
SMALL
GASTEIGER

@<TRIPOS>ATOM
      1 N           8.5711   -2.8262   20.2909 N.pl3   1  UNL1       -0.2801
      2 H           9.4682   -2.6769   19.9139 H       1  UNL1        0.1552
      3 C           8.0996   -2.8703   22.8455 C.ar    1  UNL1        0.1477
      4 C           8.4132   -3.5941   21.5697 C.ar    1  UNL1        0.0846
      5 C           8.5688   -5.0860   21.5726 C.ar    1  UNL1        0.0174
      6 C           8.4109   -5.8541   22.8514 C.ar    1  UNL1       -0.0031
      7 C           8.0974   -5.1301   24.1272 C.ar    1  UNL1       -0.0231
      8 C           7.9417   -3.6383   24.1242 C.ar    1  UNL1        0.0091
      9 C           7.6318   -2.7280   25.2755 C.3     1  UNL1        0.0305
     10 C           7.4011   -3.0849   26.7141 C.3     1  UNL1        0.0207
     11 C           7.4233   -4.4400   27.3566 C.3     1  UNL1        0.0583
     12 C           7.6816   -5.7731   26.7194 C.3     1  UNL1        0.0206
     13 C           7.9816   -6.0803   25.2821 C.3     1  UNL1        0.0275
     14 N           7.1511   -4.4655   28.8315 N.3     1  UNL1       -0.2697
     15 C           6.7021   -3.2179   29.5331 C.3     1  UNL1        0.1046
     16 C           6.4299   -3.2434   31.0079 C.3     1  UNL1        0.1595
     17 O           6.6067   -4.5165   31.7813 O.3     1  UNL1       -0.3508
     18 C           7.0556   -5.7641   31.0798 C.3     1  UNL1        0.1595
     19 C           7.3278   -5.7386   29.6049 C.3     1  UNL1        0.1046
     20 C           9.1580   -0.4976   22.8540 C.3     1  UNL1        0.2525
     21 O           7.9439   -1.3784   22.8426 O.3     1  UNL1       -0.4705
     22 C           7.3620   -2.2856   19.5865 C.ar    1  UNL1        0.2219
     23 N           7.5074   -1.6214   18.2495 N.ar    1  UNL1       -0.2110
     24 C           6.2984   -1.0809   17.5451 C.ar    1  UNL1        0.1160
     25 C           4.9440   -1.2046   18.1778 C.ar    1  UNL1        0.1082
     26 CL          3.7349   -0.6641   17.4735 Cl      1  UNL1       -0.0777
     27 C           4.7986   -1.8689   19.5149 C.ar    1  UNL1        0.1435
     28 N           6.0076   -2.4094   20.2192 N.ar    1  UNL1       -0.1979
     29 N           3.4442   -1.9926   20.1476 N.pl3   1  UNL1       -0.3181
     30 H           2.7422   -2.5245   19.7078 H       1  UNL1        0.1482
     31 C           3.1594   -1.3060   21.4504 C.3     1  UNL1        0.0832
     32 C           2.1958   -0.1757   21.6591 C.3     1  UNL1        0.0984
     33 C           2.2290    0.1998   23.1110 C.3     1  UNL1        0.0323
     34 C           2.8580   -0.1234   24.4339 C.2     1  UNL1       -0.0304
     35 C           3.8216   -1.2538   24.2252 C.2     1  UNL1       -0.0294
     36 C           3.7883   -1.6292   22.7733 C.3     1  UNL1        0.0404
     37 C           2.8040   -0.7308   22.0847 C.3     1  UNL1        0.0109
     38 C           1.3476    0.4666   20.6016 C.2     1  UNL1        0.2208
     39 N          -0.1085    0.1221   20.4964 N.am    1  UNL1       -0.3288
     40 O           1.9556    1.4533   19.6494 O.2     1  UNL1       -0.2753
     41 H          -0.5075   -0.5255   21.1214 H       1  UNL1        0.1449
     42 H          -0.6651    0.5436   19.8023 H       1  UNL1        0.1449
@<TRIPOS>BOND
     1    20    21    1
     2    21     3    1
     3     3     4   ar
     4     4     1    1
     5     1    22    1
     6    22    23   ar
     7    23    24   ar
     8    24    25   ar
     9    25    26    1
    10    25    27   ar
    11    27    29    1
    12    31    29    1
    13    31    32    1
    14    32    38    1
    15    38    39   am
    16    38    40    2
    17    32    33    1
    18    33    34    1
    19    34    35    2
    20    36    35    1
    21    36    37    1
    22    27    28   ar
    23     4     5   ar
    24     5     6   ar
    25     6     7   ar
    26     7     8   ar
    27     8     9    1
    28     9    10    1
    29    10    11    1
    30    11    14    1
    31    14    15    1
    32    15    16    1
    33    16    17    1
    34    17    18    1
    35    18    19    1
    36    11    12    1
    37    12    13    1
    38     8     3   ar
    39    19    14    1
    40    28    22   ar
    41    13     7    1
    42    36    31    1
    43    37    33    1
    44     1     2    1
    45    29    30    1
    46    39    41    1
    47    39    42    1
@<TRIPOS>MOLECULE
*****
 42 47 0 0 0
SMALL
GASTEIGER

@<TRIPOS>ATOM
      1 N           1.6758    0.8798   25.7209 N.pl3   1  UNL1       -0.2801
      2 H           1.6965    0.5445   26.6463 H       1  UNL1        0.1552
      3 C          -0.5656    2.1012   26.2055 C.ar    1  UNL1        0.1477
      4 C           0.5031    1.6821   25.2399 C.ar    1  UNL1        0.0846
      5 C           0.3992    2.0652   23.7934 C.ar    1  UNL1        0.0174
      6 C          -0.7735    2.8674   23.3124 C.ar    1  UNL1       -0.0031
      7 C          -1.8422    3.2865   24.2780 C.ar    1  UNL1       -0.0231
      8 C          -1.7382    2.9034   25.7244 C.ar    1  UNL1        0.0091
      9 C          -2.6852    3.2157   26.8451 C.3     1  UNL1        0.0305
     10 C          -3.9700    3.9885   26.7959 C.3     1  UNL1        0.0207
     11 C          -4.6250    4.6396   25.6140 C.3     1  UNL1        0.0583
     12 C          -4.1572    4.6789   24.1894 C.3     1  UNL1        0.0206
     13 C          -2.9187    4.0767   23.5948 C.3     1  UNL1        0.0275
     14 N          -5.9190    5.3447   25.8938 N.3     1  UNL1       -0.2697
     15 C          -6.9598    5.4566   24.8193 C.3     1  UNL1        0.1046
     16 C          -8.2539    6.1617   25.0990 C.3     1  UNL1        0.1595
     17 O          -8.5071    6.7549   26.4532 O.3     1  UNL1       -0.3508
     18 C          -7.4665    6.6431   27.5277 C.3     1  UNL1        0.1595
     19 C          -6.1724    5.9380   27.2480 C.3     1  UNL1        0.1046
     20 C          -0.8722    0.3452   28.0956 C.3     1  UNL1        0.2525
     21 O          -0.4617    1.7180   27.6520 O.3     1  UNL1       -0.4705
     22 C           2.8168    0.5886   24.7918 C.ar    1  UNL1        0.2219
     23 N           4.0554    1.4336   24.8371 N.ar    1  UNL1       -0.2110
     24 C           5.1964    1.1423   23.9081 C.ar    1  UNL1        0.1160
     25 C           5.0990    0.0061   22.9337 C.ar    1  UNL1        0.1082
     26 CL          6.2400   -0.2852   22.0046 Cl      1  UNL1       -0.0777
     27 C           3.8604   -0.8390   22.8883 C.ar    1  UNL1        0.1435
     28 N           2.7194   -0.5477   23.8174 N.ar    1  UNL1       -0.1979
     29 N           3.7629   -1.9752   21.9139 N.pl3   1  UNL1       -0.3181
     30 H           3.6699   -2.8986   22.2424 H       1  UNL1        0.1482
     31 C           3.8070   -1.7046   20.4393 C.3     1  UNL1        0.0832
     32 C           4.5848   -2.4861   19.4223 C.3     1  UNL1        0.0984
     33 C           4.3395   -1.8694   18.0771 C.3     1  UNL1        0.0323
     34 C           3.6136   -0.7697   17.3605 C.2     1  UNL1       -0.0304
     35 C           2.8358    0.0119   18.3774 C.2     1  UNL1       -0.0294
     36 C           3.0810   -0.6048   19.7226 C.3     1  UNL1        0.0404
     37 C           4.0104   -1.7675   19.5370 C.3     1  UNL1        0.0109
     38 C           5.4551   -3.6755   19.7015 C.2     1  UNL1        0.2208
     39 N           6.8573   -3.4792   20.1967 N.am    1  UNL1       -0.3288
     40 O           4.9231   -5.0613   19.4854 O.2     1  UNL1       -0.2753
     41 H           7.2064   -2.5696   20.3386 H       1  UNL1        0.1449
     42 H           7.4284   -4.2598   20.3800 H       1  UNL1        0.1449
@<TRIPOS>BOND
     1    20    21    1
     2    21     3    1
     3     3     4   ar
     4     4     1    1
     5     1    22    1
     6    22    23   ar
     7    23    24   ar
     8    24    25   ar
     9    25    26    1
    10    25    27   ar
    11    27    29    1
    12    31    29    1
    13    31    32    1
    14    32    38    1
    15    38    39   am
    16    38    40    2
    17    32    33    1
    18    33    34    1
    19    34    35    2
    20    36    35    1
    21    36    37    1
    22    27    28   ar
    23     4     5   ar
    24     5     6   ar
    25     6     7   ar
    26     7     8   ar
    27     8     9    1
    28     9    10    1
    29    10    11    1
    30    11    14    1
    31    14    15    1
    32    15    16    1
    33    16    17    1
    34    17    18    1
    35    18    19    1
    36    11    12    1
    37    12    13    1
    38     8     3   ar
    39    19    14    1
    40    28    22   ar
    41    13     7    1
    42    36    31    1
    43    37    33    1
    44     1     2    1
    45    29    30    1
    46    39    41    1
    47    39    42    1
@<TRIPOS>MOLECULE
*****
 42 47 0 0 0
SMALL
GASTEIGER

@<TRIPOS>ATOM
      1 N           1.4041    1.7584   32.8115 N.pl3   1  UNL1       -0.2801
      2 H           0.4873    1.4006   32.7847 H       1  UNL1        0.1552
      3 C           2.2139    0.5586   30.6540 C.ar    1  UNL1        0.1477
      4 C           2.4941    1.0877   32.0293 C.ar    1  UNL1        0.0846
      5 C           3.8646    0.9461   32.6225 C.ar    1  UNL1        0.0174
      6 C           4.9548    0.2754   31.8403 C.ar    1  UNL1       -0.0031
      7 C           4.6744   -0.2537   30.4650 C.ar    1  UNL1       -0.0231
      8 C           3.3040   -0.1121   29.8719 C.ar    1  UNL1        0.0091
      9 C           2.8150   -0.5654   28.5282 C.3     1  UNL1        0.0305
     10 C           3.5758   -1.2723   27.4457 C.3     1  UNL1        0.0207
     11 C           5.0133   -1.7004   27.4397 C.3     1  UNL1        0.0583
     12 C           6.0453   -1.5275   28.5146 C.3     1  UNL1        0.0206
     13 C           5.8944   -0.8836   29.8610 C.3     1  UNL1        0.0275
     14 N           5.4809   -2.3931   26.1941 N.3     1  UNL1       -0.2697
     15 C           6.5574   -3.4347   26.2742 C.3     1  UNL1        0.1046
     16 C           7.0249   -4.1274   25.0285 C.3     1  UNL1        0.1595
     17 O           6.4160   -3.7786   23.7029 O.3     1  UNL1       -0.3508
     18 C           5.3395   -2.7370   23.6227 C.3     1  UNL1        0.1595
     19 C           4.8719   -2.0443   24.8684 C.3     1  UNL1        0.1046
     20 C           0.4209    2.0041   29.4517 C.3     1  UNL1        0.2525
     21 O           0.8434    0.7002   30.0608 O.3     1  UNL1       -0.4705
     22 C           1.7109    2.9743   33.6346 C.ar    1  UNL1        0.2219
     23 N           1.6293    4.3387   33.0165 N.ar    1  UNL1       -0.2110
     24 C           1.9361    5.5545   33.8395 C.ar    1  UNL1        0.1160
     25 C           2.3245    5.4061   35.2808 C.ar    1  UNL1        0.1082
     26 CL          2.6314    6.6220   36.1039 Cl      1  UNL1       -0.0777
     27 C           2.4061    4.0418   35.8990 C.ar    1  UNL1        0.1435
     28 N           2.0993    2.8259   35.0759 N.ar    1  UNL1       -0.1979
     29 N           2.7945    3.8934   37.3402 N.pl3   1  UNL1       -0.3181
     30 H           3.3158    4.6004   37.7848 H       1  UNL1        0.1482
     31 C           2.3888    2.6679   38.1039 C.3     1  UNL1        0.0832
     32 C           3.1136    1.3546   38.1133 C.3     1  UNL1        0.0984
     33 C           2.3597    0.4155   39.0076 C.3     1  UNL1        0.0323
     34 C           1.1579    0.2880   39.8960 C.2     1  UNL1       -0.0304
     35 C           0.4331    1.6012   39.8866 C.2     1  UNL1       -0.0294
     36 C           1.1869    2.5403   38.9923 C.3     1  UNL1        0.0404
     37 C           2.3777    1.8075   38.4491 C.3     1  UNL1        0.0109
     38 C           4.3715    1.0364   37.3606 C.2     1  UNL1        0.2208
     39 N           4.4991   -0.2678   36.6307 N.am    1  UNL1       -0.3288
     40 O           5.5017    2.0223   37.3379 O.2     1  UNL1       -0.2753
     41 H           3.7573   -0.9149   36.6457 H       1  UNL1        0.1449
     42 H           5.3247   -0.4767   36.1367 H       1  UNL1        0.1449
@<TRIPOS>BOND
     1    20    21    1
     2    21     3    1
     3     3     4   ar
     4     4     1    1
     5     1    22    1
     6    22    23   ar
     7    23    24   ar
     8    24    25   ar
     9    25    26    1
    10    25    27   ar
    11    27    29    1
    12    31    29    1
    13    31    32    1
    14    32    38    1
    15    38    39   am
    16    38    40    2
    17    32    33    1
    18    33    34    1
    19    34    35    2
    20    36    35    1
    21    36    37    1
    22    27    28   ar
    23     4     5   ar
    24     5     6   ar
    25     6     7   ar
    26     7     8   ar
    27     8     9    1
    28     9    10    1
    29    10    11    1
    30    11    14    1
    31    14    15    1
    32    15    16    1
    33    16    17    1
    34    17    18    1
    35    18    19    1
    36    11    12    1
    37    12    13    1
    38     8     3   ar
    39    19    14    1
    40    28    22   ar
    41    13     7    1
    42    36    31    1
    43    37    33    1
    44     1     2    1
    45    29    30    1
    46    39    41    1
    47    39    42    1
@<TRIPOS>MOLECULE
*****
 42 47 0 0 0
SMALL
GASTEIGER

@<TRIPOS>ATOM
      1 N         -11.0462   -3.3237   19.2201 N.pl3   1  UNL1       -0.2801
      2 H         -10.3493   -3.3038   19.9152 H       1  UNL1        0.1552
      3 C         -13.2961   -4.6228   19.2368 C.ar    1  UNL1        0.1477
      4 C         -11.8205   -4.5838   18.9702 C.ar    1  UNL1        0.0846
      5 C         -11.1192   -5.8050   18.4537 C.ar    1  UNL1        0.0174
      6 C         -11.8934   -7.0652   18.2038 C.ar    1  UNL1       -0.0031
      7 C         -13.3691   -7.1042   18.4704 C.ar    1  UNL1       -0.0231
      8 C         -14.0703   -5.8830   18.9869 C.ar    1  UNL1        0.0091
      9 C         -15.5232   -5.7080   19.3165 C.3     1  UNL1        0.0305
     10 C         -16.6336   -6.7111   19.2110 C.3     1  UNL1        0.0207
     11 C         -16.5653   -8.1367   18.7498 C.3     1  UNL1        0.0583
     12 C         -15.3698   -8.9116   18.2802 C.3     1  UNL1        0.0206
     13 C         -13.9473   -8.4521   18.1559 C.3     1  UNL1        0.0275
     14 N         -17.8642   -8.8868   18.7595 N.3     1  UNL1       -0.2697
     15 C         -18.7825   -8.7814   19.9410 C.3     1  UNL1        0.1046
     16 C         -20.0814   -9.5315   19.9506 C.3     1  UNL1        0.1595
     17 O         -20.4621  -10.3870   18.7788 O.3     1  UNL1       -0.3508
     18 C         -19.5440  -10.4924   17.5973 C.3     1  UNL1        0.1595
     19 C         -18.2450   -9.7423   17.5876 C.3     1  UNL1        0.1046
     20 C         -14.0781   -3.1513   21.2300 C.3     1  UNL1        0.2525
     21 O         -13.9975   -3.4016   19.7533 O.3     1  UNL1       -0.4705
     22 C         -11.3337   -2.0939   18.4108 C.ar    1  UNL1        0.2219
     23 N         -10.6724   -1.9013   17.0782 N.ar    1  UNL1       -0.2110
     24 C         -10.9599   -0.6715   16.2690 C.ar    1  UNL1        0.1160
     25 C         -11.9088    0.3658   16.7922 C.ar    1  UNL1        0.1082
     26 CL        -12.1963    1.5956   15.9829 Cl      1  UNL1       -0.0777
     27 C         -12.5701    0.1733   18.1248 C.ar    1  UNL1        0.1435
     28 N         -12.2826   -1.0566   18.9340 N.ar    1  UNL1       -0.1979
     29 N         -13.5189    1.2105   18.6481 N.pl3   1  UNL1       -0.3181
     30 H         -13.2134    2.1377   18.7752 H       1  UNL1        0.1482
     31 C         -14.9332    0.8351   18.9776 C.3     1  UNL1        0.0832
     32 C         -16.0047    1.7693   19.4563 C.3     1  UNL1        0.0984
     33 C         -17.2581    0.9711   19.6609 C.3     1  UNL1        0.0323
     34 C         -17.8493   -0.4044   19.5698 C.2     1  UNL1       -0.0304
     35 C         -16.7778   -1.3386   19.0911 C.2     1  UNL1       -0.0294
     36 C         -15.5244   -0.5405   18.8865 C.3     1  UNL1        0.0404
     37 C         -15.8213    0.8871   19.2387 C.3     1  UNL1        0.0109
     38 C         -15.8500    3.2430   19.6894 C.2     1  UNL1        0.2208
     39 N         -15.5778    3.7593   21.0712 N.am    1  UNL1       -0.3288
     40 O         -15.9675    4.2004   18.5406 O.2     1  UNL1       -0.2753
     41 H         -15.5007    3.1309   21.8251 H       1  UNL1        0.1449
     42 H         -15.4763    4.7265   21.2242 H       1  UNL1        0.1449
@<TRIPOS>BOND
     1    20    21    1
     2    21     3    1
     3     3     4   ar
     4     4     1    1
     5     1    22    1
     6    22    23   ar
     7    23    24   ar
     8    24    25   ar
     9    25    26    1
    10    25    27   ar
    11    27    29    1
    12    31    29    1
    13    31    32    1
    14    32    38    1
    15    38    39   am
    16    38    40    2
    17    32    33    1
    18    33    34    1
    19    34    35    2
    20    36    35    1
    21    36    37    1
    22    27    28   ar
    23     4     5   ar
    24     5     6   ar
    25     6     7   ar
    26     7     8   ar
    27     8     9    1
    28     9    10    1
    29    10    11    1
    30    11    14    1
    31    14    15    1
    32    15    16    1
    33    16    17    1
    34    17    18    1
    35    18    19    1
    36    11    12    1
    37    12    13    1
    38     8     3   ar
    39    19    14    1
    40    28    22   ar
    41    13     7    1
    42    36    31    1
    43    37    33    1
    44     1     2    1
    45    29    30    1
    46    39    41    1
    47    39    42    1
@<TRIPOS>MOLECULE
*****
 42 47 0 0 0
SMALL
GASTEIGER

@<TRIPOS>ATOM
      1 N           5.2156   -0.8191   27.3823 N.pl3   1  UNL1       -0.2801
      2 H           5.5876   -0.3635   26.5927 H       1  UNL1        0.1552
      3 C           4.3056    0.8984   29.1063 C.ar    1  UNL1        0.1477
      4 C           4.0637   -0.2108   28.1259 C.ar    1  UNL1        0.0846
      5 C           2.6698   -0.7118   27.8891 C.ar    1  UNL1        0.0174
      6 C           1.5178   -0.1035   28.6327 C.ar    1  UNL1       -0.0031
      7 C           1.7597    1.0057   29.6131 C.ar    1  UNL1       -0.0231
      8 C           3.1536    1.5066   29.8498 C.ar    1  UNL1        0.0091
      9 C           3.6119    2.5942   30.7757 C.3     1  UNL1        0.0305
     10 C           2.7894    3.4495   31.6934 C.3     1  UNL1        0.0207
     11 C           1.3057    3.4283   31.9119 C.3     1  UNL1        0.0583
     12 C           0.2777    2.5468   31.2667 C.3     1  UNL1        0.0206
     13 C           0.4798    1.4686   30.2436 C.3     1  UNL1        0.0275
     14 N           0.7803    4.4199   32.9072 N.3     1  UNL1       -0.2697
     15 C           1.6005    4.7821   34.1098 C.3     1  UNL1        0.1046
     16 C           1.0750    5.7737   35.1052 C.3     1  UNL1        0.1595
     17 O          -0.2706    6.4031   34.8979 O.3     1  UNL1       -0.3508
     18 C          -1.0909    6.0409   33.6954 C.3     1  UNL1        0.1595
     19 C          -0.5655    5.0494   32.7001 C.3     1  UNL1        0.1046
     20 C           6.5646    0.7474   30.3806 C.3     1  UNL1        0.2525
     21 O           5.6995    1.3993   29.3431 O.3     1  UNL1       -0.4705
     22 C           5.8009   -2.1216   27.8416 C.ar    1  UNL1        0.2219
     23 N           6.2602   -3.1342   26.8347 N.ar    1  UNL1       -0.2110
     24 C           6.8454   -4.4366   27.2940 C.ar    1  UNL1        0.1160
     25 C           6.9714   -4.7266   28.7604 C.ar    1  UNL1        0.1082
     26 CL          7.5567   -6.0291   29.2197 Cl      1  UNL1       -0.0777
     27 C           6.5122   -3.7141   29.7673 C.ar    1  UNL1        0.1435
     28 N           5.9270   -2.4116   29.3080 N.ar    1  UNL1       -0.1979
     29 N           6.6382   -4.0040   31.2336 N.pl3   1  UNL1       -0.3181
     30 H           6.5029   -4.9201   31.5677 H       1  UNL1        0.1482
     31 C           6.9705   -2.8981   32.1910 C.3     1  UNL1        0.0832
     32 C           5.9825   -2.0350   32.9183 C.3     1  UNL1        0.0984
     33 C           6.7505   -1.0646   33.7659 C.3     1  UNL1        0.0323
     34 C           8.1291   -0.6277   34.1641 C.2     1  UNL1       -0.0304
     35 C           9.1170   -1.4908   33.4368 C.2     1  UNL1       -0.0294
     36 C           8.3491   -2.4612   32.5891 C.3     1  UNL1        0.0404
     37 C           6.8864   -2.1978   32.7926 C.3     1  UNL1        0.0109
     38 C           4.4887   -2.1263   32.8159 C.2     1  UNL1        0.2208
     39 N           3.7689   -1.4229   31.7037 N.am    1  UNL1       -0.3288
     40 O           3.7149   -2.9209   33.8257 O.2     1  UNL1       -0.2753
     41 H           4.2768   -0.9014   31.0409 H       1  UNL1        0.1449
     42 H           2.7885   -1.4828   31.6365 H       1  UNL1        0.1449
@<TRIPOS>BOND
     1    20    21    1
     2    21     3    1
     3     3     4   ar
     4     4     1    1
     5     1    22    1
     6    22    23   ar
     7    23    24   ar
     8    24    25   ar
     9    25    26    1
    10    25    27   ar
    11    27    29    1
    12    31    29    1
    13    31    32    1
    14    32    38    1
    15    38    39   am
    16    38    40    2
    17    32    33    1
    18    33    34    1
    19    34    35    2
    20    36    35    1
    21    36    37    1
    22    27    28   ar
    23     4     5   ar
    24     5     6   ar
    25     6     7   ar
    26     7     8   ar
    27     8     9    1
    28     9    10    1
    29    10    11    1
    30    11    14    1
    31    14    15    1
    32    15    16    1
    33    16    17    1
    34    17    18    1
    35    18    19    1
    36    11    12    1
    37    12    13    1
    38     8     3   ar
    39    19    14    1
    40    28    22   ar
    41    13     7    1
    42    36    31    1
    43    37    33    1
    44     1     2    1
    45    29    30    1
    46    39    41    1
    47    39    42    1
@<TRIPOS>MOLECULE
*****
 42 47 0 0 0
SMALL
GASTEIGER

@<TRIPOS>ATOM
      1 N         -12.0437   -1.0238   18.3802 N.pl3   1  UNL1       -0.2801
      2 H         -11.2750   -1.0061   18.9951 H       1  UNL1        0.1552
      3 C         -13.5969   -3.0991   18.5561 C.ar    1  UNL1        0.1477
      4 C         -12.5336   -2.3301   17.8294 C.ar    1  UNL1        0.0846
      5 C         -11.9602   -2.8676   16.5517 C.ar    1  UNL1        0.0174
      6 C         -12.4501   -4.1739   16.0008 C.ar    1  UNL1       -0.0031
      7 C         -13.5134   -4.9428   16.7276 C.ar    1  UNL1       -0.0231
      8 C         -14.0867   -4.4054   18.0052 C.ar    1  UNL1        0.0091
      9 C         -15.1454   -5.0071   18.8812 C.3     1  UNL1        0.0305
     10 C         -15.8921   -6.2948   18.6959 C.3     1  UNL1        0.0207
     11 C         -15.7645   -7.2988   17.5889 C.3     1  UNL1        0.0583
     12 C         -14.8588   -7.2632   16.3937 C.3     1  UNL1        0.0206
     13 C         -13.8570   -6.2147   16.0104 C.3     1  UNL1        0.0275
     14 N         -16.6612   -8.4970   17.6904 N.3     1  UNL1       -0.2697
     15 C         -16.2004   -9.7183   18.4295 C.3     1  UNL1        0.1046
     16 C         -17.0972  -10.9164   18.5310 C.3     1  UNL1        0.1595
     17 O         -18.4547  -10.8933   17.8935 O.3     1  UNL1       -0.3508
     18 C         -18.9156   -9.6720   17.1544 C.3     1  UNL1        0.1595
     19 C         -18.0188   -8.4739   17.0529 C.3     1  UNL1        0.1046
     20 C         -13.7458   -3.1434   21.1495 C.3     1  UNL1        0.2525
     21 O         -14.1703   -2.5617   19.8338 O.3     1  UNL1       -0.4705
     22 C         -12.7249    0.2556   17.9941 C.ar    1  UNL1        0.2219
     23 N         -12.0049    1.2628   17.1472 N.ar    1  UNL1       -0.2110
     24 C         -12.6861    2.5422   16.7611 C.ar    1  UNL1        0.1160
     25 C         -14.0874    2.8144   17.2219 C.ar    1  UNL1        0.1082
     26 CL        -14.7686    4.0938   16.8358 Cl      1  UNL1       -0.0777
     27 C         -14.8075    1.8073   18.0688 C.ar    1  UNL1        0.1435
     28 N         -14.1262    0.5278   18.4549 N.ar    1  UNL1       -0.1979
     29 N         -16.2087    2.0794   18.5296 N.pl3   1  UNL1       -0.3181
     30 H         -16.9445    2.1103   17.8762 H       1  UNL1        0.1482
     31 C         -16.4890    2.3046   19.9858 C.3     1  UNL1        0.0832
     32 C         -17.1134    1.3170   20.9265 C.3     1  UNL1        0.0984
     33 C         -17.2044    1.9589   22.2792 C.3     1  UNL1        0.0323
     34 C         -16.9094    3.2111   23.0505 C.2     1  UNL1       -0.0304
     35 C         -16.2850    4.1986   22.1098 C.2     1  UNL1       -0.0294
     36 C         -16.1940    3.5568   20.7571 C.3     1  UNL1        0.0404
     37 C         -16.7623    2.1725   20.8618 C.3     1  UNL1        0.0109
     38 C         -17.5672   -0.0691   20.5760 C.2     1  UNL1        0.2208
     39 N         -16.5743   -1.0830   20.0901 N.am    1  UNL1       -0.3288
     40 O         -19.0140   -0.4413   20.7115 O.2     1  UNL1       -0.2753
     41 H         -15.6247   -0.8387   20.0012 H       1  UNL1        0.1449
     42 H         -16.8721   -1.9927   19.8601 H       1  UNL1        0.1449
@<TRIPOS>BOND
     1    20    21    1
     2    21     3    1
     3     3     4   ar
     4     4     1    1
     5     1    22    1
     6    22    23   ar
     7    23    24   ar
     8    24    25   ar
     9    25    26    1
    10    25    27   ar
    11    27    29    1
    12    31    29    1
    13    31    32    1
    14    32    38    1
    15    38    39   am
    16    38    40    2
    17    32    33    1
    18    33    34    1
    19    34    35    2
    20    36    35    1
    21    36    37    1
    22    27    28   ar
    23     4     5   ar
    24     5     6   ar
    25     6     7   ar
    26     7     8   ar
    27     8     9    1
    28     9    10    1
    29    10    11    1
    30    11    14    1
    31    14    15    1
    32    15    16    1
    33    16    17    1
    34    17    18    1
    35    18    19    1
    36    11    12    1
    37    12    13    1
    38     8     3   ar
    39    19    14    1
    40    28    22   ar
    41    13     7    1
    42    36    31    1
    43    37    33    1
    44     1     2    1
    45    29    30    1
    46    39    41    1
    47    39    42    1
