@<TRIPOS>MOLECULE
*****
 37 40 0 0 0
SMALL
GASTEIGER

@<TRIPOS>ATOM
      1 C           6.8861   -4.2796   31.1149 C.3     1  UNL1        0.0334
      2 C           7.0282   -4.5713   29.6504 C.ar    1  UNL1        0.0071
      3 C           6.5378   -3.5800   28.6372 C.ar    1  UNL1        0.0156
      4 C           6.6799   -3.8717   27.1727 C.ar    1  UNL1        0.0673
      5 C           7.3124   -5.1548   26.7215 C.ar    1  UNL1        0.0295
      6 C           7.8027   -6.1462   27.7348 C.ar    1  UNL1        0.0315
      7 C           7.6606   -5.8544   29.1992 C.ar    1  UNL1        0.1363
      8 F           8.1510   -6.8458   30.2125 F       1  UNL1       -0.2045
      9 C           7.3166   -5.1672   25.2216 C.ar    1  UNL1        0.0875
     10 C           6.6867   -3.8917   24.7457 C.ar    1  UNL1        0.0939
     11 N           6.2932   -3.0910   25.9516 N.ar    1  UNL1       -0.2745
     12 C           5.6296   -1.7459   25.9387 C.ar    1  UNL1        0.2371
     13 N           4.1960   -1.6209   25.5154 N.ar    1  UNL1       -0.2072
     14 C           3.5323   -0.2758   25.5025 C.ar    1  UNL1        0.1332
     15 C           4.3022    0.9443   25.9129 C.ar    1  UNL1        0.1784
     16 F           3.6386    2.2895   25.9000 F       1  UNL1       -0.2009
     17 C           5.7358    0.8193   26.3362 C.ar    1  UNL1        0.1332
     18 N           6.3995   -0.5257   26.3491 N.ar    1  UNL1       -0.2072
     19 C           6.4856   -3.4877   23.3151 C.ar    1  UNL1        0.0982
     20 C           5.1587   -3.7108   22.6522 C.ar    1  UNL1        0.0220
     21 C           4.9577   -3.3069   21.2217 C.ar    1  UNL1        0.0231
     22 C           6.0836   -2.6799   20.4541 C.ar    1  UNL1        0.1410
     23 C           7.4105   -2.4568   21.1170 C.ar    1  UNL1        0.1187
     24 N           7.6115   -2.8607   22.5475 N.ar    1  UNL1       -0.2409
     25 S           5.8825   -2.2760   19.0235 S.O2    1  UNL1        0.0619
     26 O           7.1762   -1.5173   19.0559 O.2     1  UNL1       -0.1529
     27 O           4.5889   -3.0347   18.9912 O.2     1  UNL1       -0.1529
     28 N           5.6814   -1.8722   17.5930 N.3     1  UNL1       -0.1723
     29 H           5.0385   -2.5498   17.1834 H       1  UNL1        0.1491
     30 C           5.1418   -0.5111   17.2667 C.3     1  UNL1        0.1701
     31 C           6.0530    0.5440   16.7133 C.3     1  UNL1        0.0278
     32 C           3.6910   -0.2053   17.4938 C.3     1  UNL1        0.4118
     33 F           2.2402    0.1006   17.7209 F       1  UNL1       -0.1685
     34 F           4.0535    0.6277   18.6875 F       1  UNL1       -0.1685
     35 F           3.3286   -1.0382   16.3001 F       1  UNL1       -0.1685
     36 C           7.8559   -6.2627   24.3504 C.1     1  UNL1        0.1020
     37 N           8.3953   -7.3583   23.4793 N.1     1  UNL1       -0.1908
@<TRIPOS>BOND
     1     1     2    1
     2     2     3   ar
     3     3     4   ar
     4     4     5   ar
     5     5     6   ar
     6     6     7   ar
     7     7     8    1
     8     5     9   ar
     9     9    36    1
    10    36    37    3
    11     9    10   ar
    12    10    19    1
    13    19    20   ar
    14    20    21   ar
    15    21    22   ar
    16    22    25    1
    17    25    26    2
    18    25    27    2
    19    25    28    1
    20    28    30    1
    21    30    31    1
    22    30    32    1
    23    32    33    1
    24    32    34    1
    25    32    35    1
    26    22    23   ar
    27    23    24   ar
    28    10    11   ar
    29    11    12    1
    30    12    13   ar
    31    13    14   ar
    32    14    15   ar
    33    15    16    1
    34    15    17   ar
    35    17    18   ar
    36     7     2   ar
    37    24    19   ar
    38    18    12   ar
    39    11     4   ar
    40    28    29    1
@<TRIPOS>MOLECULE
*****
 37 40 0 0 0
SMALL
GASTEIGER

@<TRIPOS>ATOM
      1 C           4.6731    1.8893   38.6192 C.3     1  UNL1        0.0334
      2 C           3.8827    2.2701   37.4026 C.ar    1  UNL1        0.0071
      3 C           4.0388    1.4885   36.1319 C.ar    1  UNL1        0.0156
      4 C           3.2484    1.8693   34.9152 C.ar    1  UNL1        0.0673
      5 C           2.3019    3.0317   34.9693 C.ar    1  UNL1        0.0295
      6 C           2.1457    3.8132   36.2400 C.ar    1  UNL1        0.0315
      7 C           2.9362    3.4324   37.4567 C.ar    1  UNL1        0.1363
      8 F           2.7800    4.2140   38.7274 F       1  UNL1       -0.2045
      9 C           1.6611    3.1708   33.6202 C.ar    1  UNL1        0.0875
     10 C           2.2116    2.0944   32.7323 C.ar    1  UNL1        0.0939
     11 N           3.1926    1.2900   33.5327 N.ar    1  UNL1       -0.2745
     12 C           3.9797    0.1130   33.0375 C.ar    1  UNL1        0.2371
     13 N           3.6592   -1.2658   33.5335 N.ar    1  UNL1       -0.2072
     14 C           4.4462   -2.4428   33.0384 C.ar    1  UNL1        0.1332
     15 C           5.5538   -2.2410   32.0472 C.ar    1  UNL1        0.1784
     16 F           6.3409   -3.4179   31.5520 F       1  UNL1       -0.2009
     17 C           5.8744   -0.8621   31.5512 C.ar    1  UNL1        0.1332
     18 N           5.0873    0.3149   32.0463 N.ar    1  UNL1       -0.2072
     19 C           1.8454    1.8630   31.2962 C.ar    1  UNL1        0.0982
     20 C           2.8208    2.2044   30.2091 C.ar    1  UNL1        0.0220
     21 C           2.4546    1.9730   28.7730 C.ar    1  UNL1        0.0231
     22 C           1.1129    1.4002   28.4241 C.ar    1  UNL1        0.1410
     23 C           0.1374    1.0589   29.5112 C.ar    1  UNL1        0.1187
     24 N           0.5037    1.2903   30.9473 N.ar    1  UNL1       -0.2409
     25 S           0.7466    1.1689   26.9880 S.O2    1  UNL1        0.0619
     26 O          -0.5775    0.6088   27.4159 O.2     1  UNL1       -0.1529
     27 O           2.0707    1.7289   26.5601 O.2     1  UNL1       -0.1529
     28 N           0.3804    0.9375   25.5519 N.3     1  UNL1       -0.1723
     29 H          -0.4336    0.3229   25.5509 H       1  UNL1        0.1491
     30 C           0.0456    2.1011   24.6665 C.3     1  UNL1        0.1701
     31 C           0.4615    2.0910   23.2253 C.3     1  UNL1        0.0278
     32 C          -0.7052    3.2747   25.2221 C.3     1  UNL1        0.4118
     33 F          -1.4559    4.4485   25.7779 F       1  UNL1       -0.1685
     34 F           0.5468    4.0994   25.1716 F       1  UNL1       -0.1685
     35 F          -1.9571    2.4500   25.2726 F       1  UNL1       -0.1685
     36 C           0.6477    4.2047   33.2279 C.1     1  UNL1        0.1020
     37 N          -0.3657    5.2388   32.8355 N.1     1  UNL1       -0.1908
@<TRIPOS>BOND
     1     1     2    1
     2     2     3   ar
     3     3     4   ar
     4     4     5   ar
     5     5     6   ar
     6     6     7   ar
     7     7     8    1
     8     5     9   ar
     9     9    36    1
    10    36    37    3
    11     9    10   ar
    12    10    19    1
    13    19    20   ar
    14    20    21   ar
    15    21    22   ar
    16    22    25    1
    17    25    26    2
    18    25    27    2
    19    25    28    1
    20    28    30    1
    21    30    31    1
    22    30    32    1
    23    32    33    1
    24    32    34    1
    25    32    35    1
    26    22    23   ar
    27    23    24   ar
    28    10    11   ar
    29    11    12    1
    30    12    13   ar
    31    13    14   ar
    32    14    15   ar
    33    15    16    1
    34    15    17   ar
    35    17    18   ar
    36     7     2   ar
    37    24    19   ar
    38    18    12   ar
    39    11     4   ar
    40    28    29    1
@<TRIPOS>MOLECULE
*****
 37 40 0 0 0
SMALL
GASTEIGER

@<TRIPOS>ATOM
      1 C           1.8182    0.0028   19.4566 C.3     1  UNL1        0.0334
      2 C           2.4760   -0.4287   20.7338 C.ar    1  UNL1        0.0071
      3 C           2.0665    0.1935   22.0358 C.ar    1  UNL1        0.0156
      4 C           2.7243   -0.2381   23.3129 C.ar    1  UNL1        0.0673
      5 C           3.7915   -1.2918   23.2881 C.ar    1  UNL1        0.0295
      6 C           4.2009   -1.9140   21.9862 C.ar    1  UNL1        0.0315
      7 C           3.5432   -1.4825   20.7090 C.ar    1  UNL1        0.1363
      8 F           3.9527   -2.1047   19.4070 F       1  UNL1       -0.2045
      9 C           4.2575   -1.5127   24.6967 C.ar    1  UNL1        0.0875
     10 C           3.4784   -0.5955   25.5920 C.ar    1  UNL1        0.0939
     11 N           2.5307    0.1923   24.7369 N.ar    1  UNL1       -0.2745
     12 C           1.5600    1.2285   25.2206 C.ar    1  UNL1        0.2371
     13 N           2.0601    2.4499   25.9333 N.ar    1  UNL1       -0.2072
     14 C           1.0895    3.4861   26.4171 C.ar    1  UNL1        0.1332
     15 C          -0.3813    3.3009   26.1880 C.ar    1  UNL1        0.1784
     16 F          -1.3520    4.3371   26.6718 F       1  UNL1       -0.2009
     17 C          -0.8814    2.0795   25.4753 C.ar    1  UNL1        0.1332
     18 N           0.0892    1.0433   24.9915 N.ar    1  UNL1       -0.2072
     19 C           3.6217   -0.4854   27.0811 C.ar    1  UNL1        0.0982
     20 C           4.9091    0.0023   27.6767 C.ar    1  UNL1        0.0220
     21 C           5.0524    0.1124   29.1657 C.ar    1  UNL1        0.0231
     22 C           3.9083   -0.2654   30.0592 C.ar    1  UNL1        0.1410
     23 C           2.6209   -0.7531   29.4637 C.ar    1  UNL1        0.1187
     24 N           2.4776   -0.8632   27.9747 N.ar    1  UNL1       -0.2409
     25 S           4.0517   -0.1553   31.5484 S.O2    1  UNL1        0.0619
     26 O           2.7463   -0.8724   31.7270 O.2     1  UNL1       -0.1529
     27 O           5.3570    0.5618   31.3696 O.2     1  UNL1       -0.1529
     28 N           4.1951   -0.0452   33.0374 N.3     1  UNL1       -0.1723
     29 H           3.2687   -0.2012   33.4347 H       1  UNL1        0.1491
     30 C           5.1386   -0.9531   33.7692 C.3     1  UNL1        0.1701
     31 C           5.7972   -0.4882   35.0341 C.3     1  UNL1        0.0278
     32 C           5.4236   -2.3258   33.2360 C.3     1  UNL1        0.4118
     33 F           5.7087   -3.6986   32.7028 F       1  UNL1       -0.1685
     34 F           6.7440   -1.8470   32.7092 F       1  UNL1       -0.1685
     35 F           4.1033   -2.8045   33.7627 F       1  UNL1       -0.1685
     36 C           5.3168   -2.4809   25.1332 C.1     1  UNL1        0.1020
     37 N           6.3761   -3.4491   25.5698 N.1     1  UNL1       -0.1908
@<TRIPOS>BOND
     1     1     2    1
     2     2     3   ar
     3     3     4   ar
     4     4     5   ar
     5     5     6   ar
     6     6     7   ar
     7     7     8    1
     8     5     9   ar
     9     9    36    1
    10    36    37    3
    11     9    10   ar
    12    10    19    1
    13    19    20   ar
    14    20    21   ar
    15    21    22   ar
    16    22    25    1
    17    25    26    2
    18    25    27    2
    19    25    28    1
    20    28    30    1
    21    30    31    1
    22    30    32    1
    23    32    33    1
    24    32    34    1
    25    32    35    1
    26    22    23   ar
    27    23    24   ar
    28    10    11   ar
    29    11    12    1
    30    12    13   ar
    31    13    14   ar
    32    14    15   ar
    33    15    16    1
    34    15    17   ar
    35    17    18   ar
    36     7     2   ar
    37    24    19   ar
    38    18    12   ar
    39    11     4   ar
    40    28    29    1
@<TRIPOS>MOLECULE
*****
 37 40 0 0 0
SMALL
GASTEIGER

@<TRIPOS>ATOM
      1 C          -6.8404    5.4110   24.9961 C.3     1  UNL1        0.0334
      2 C          -5.4629    4.8483   24.8073 C.ar    1  UNL1        0.0071
      3 C          -4.9459    4.5784   23.4253 C.ar    1  UNL1        0.0156
      4 C          -3.5683    4.0157   23.2365 C.ar    1  UNL1        0.0673
      5 C          -2.7077    3.7228   24.4296 C.ar    1  UNL1        0.0295
      6 C          -3.2247    3.9927   25.8115 C.ar    1  UNL1        0.0315
      7 C          -4.6023    4.5554   26.0004 C.ar    1  UNL1        0.1363
      8 F          -5.1192    4.8253   27.3824 F       1  UNL1       -0.2045
      9 C          -1.4015    3.1752   23.9357 C.ar    1  UNL1        0.0875
     10 C          -1.4549    3.1296   22.4373 C.ar    1  UNL1        0.0939
     11 N          -2.7940    3.6490   22.0051 N.ar    1  UNL1       -0.2745
     12 C          -3.2745    3.7790   20.5901 C.ar    1  UNL1        0.2371
     13 N          -2.3726    4.3608   19.5423 N.ar    1  UNL1       -0.2072
     14 C          -2.8530    4.4908   18.1273 C.ar    1  UNL1        0.1332
     15 C          -4.2354    4.0391   17.7602 C.ar    1  UNL1        0.1784
     16 F          -4.7159    4.1691   16.3452 F       1  UNL1       -0.2009
     17 C          -5.1374    3.4573   18.8080 C.ar    1  UNL1        0.1332
     18 N          -4.6569    3.3273   20.2230 N.ar    1  UNL1       -0.2072
     19 C          -0.3610    2.6488   21.5304 C.ar    1  UNL1        0.0982
     20 C           0.8767    3.4755   21.3445 C.ar    1  UNL1        0.0220
     21 C           1.9705    2.9948   20.4376 C.ar    1  UNL1        0.0231
     22 C           1.8266    1.6874   19.7166 C.ar    1  UNL1        0.1410
     23 C           0.5888    0.8607   19.9024 C.ar    1  UNL1        0.1187
     24 N          -0.5049    1.3414   20.8093 N.ar    1  UNL1       -0.2409
     25 S           2.9204    1.2067   18.8096 S.O2    1  UNL1        0.0619
     26 O           3.9331    1.9286   19.6484 O.2     1  UNL1       -0.1529
     27 O           1.9078    0.4848   17.9710 O.2     1  UNL1       -0.1529
     28 N           4.0142    0.7260   17.9027 N.3     1  UNL1       -0.1723
     29 H           4.5885    1.5383   17.6778 H       1  UNL1        0.1491
     30 C           4.9502   -0.3522   18.3626 C.3     1  UNL1        0.1701
     31 C           6.4178   -0.2456   18.0718 C.3     1  UNL1        0.0278
     32 C           4.4185   -1.5370   19.1133 C.3     1  UNL1        0.4118
     33 F           3.8869   -2.7219   19.8639 F       1  UNL1       -0.1685
     34 F           3.7870   -2.0516   17.8537 F       1  UNL1       -0.1685
     35 F           5.0501   -1.0224   20.3727 F       1  UNL1       -0.1685
     36 C          -0.2451    2.7481   24.7902 C.1     1  UNL1        0.1020
     37 N           0.9115    2.3211   25.6448 N.1     1  UNL1       -0.1908
@<TRIPOS>BOND
     1     1     2    1
     2     2     3   ar
     3     3     4   ar
     4     4     5   ar
     5     5     6   ar
     6     6     7   ar
     7     7     8    1
     8     5     9   ar
     9     9    36    1
    10    36    37    3
    11     9    10   ar
    12    10    19    1
    13    19    20   ar
    14    20    21   ar
    15    21    22   ar
    16    22    25    1
    17    25    26    2
    18    25    27    2
    19    25    28    1
    20    28    30    1
    21    30    31    1
    22    30    32    1
    23    32    33    1
    24    32    34    1
    25    32    35    1
    26    22    23   ar
    27    23    24   ar
    28    10    11   ar
    29    11    12    1
    30    12    13   ar
    31    13    14   ar
    32    14    15   ar
    33    15    16    1
    34    15    17   ar
    35    17    18   ar
    36     7     2   ar
    37    24    19   ar
    38    18    12   ar
    39    11     4   ar
    40    28    29    1
@<TRIPOS>MOLECULE
*****
 37 40 0 0 0
SMALL
GASTEIGER

@<TRIPOS>ATOM
      1 C           7.4364   -5.7820   31.0955 C.3     1  UNL1        0.0334
      2 C           7.3368   -5.4642   29.6329 C.ar    1  UNL1        0.0071
      3 C           6.5825   -4.2498   29.1790 C.ar    1  UNL1        0.0156
      4 C           6.4829   -3.9319   27.7165 C.ar    1  UNL1        0.0673
      5 C           7.1377   -4.8285   26.7078 C.ar    1  UNL1        0.0295
      6 C           7.8921   -6.0429   27.1617 C.ar    1  UNL1        0.0315
      7 C           7.9916   -6.3608   28.6243 C.ar    1  UNL1        0.1363
      8 F           8.7460   -7.5753   29.0782 F       1  UNL1       -0.2045
      9 C           6.8711   -4.2642   25.3439 C.ar    1  UNL1        0.0875
     10 C           6.0516   -3.0188   25.5095 C.ar    1  UNL1        0.0939
     11 N           5.8117   -2.8134   26.9758 N.ar    1  UNL1       -0.2745
     12 C           5.0366   -1.6873   27.5932 C.ar    1  UNL1        0.2371
     13 N           3.5444   -1.6362   27.4489 N.ar    1  UNL1       -0.2072
     14 C           2.7693   -0.5102   28.0662 C.ar    1  UNL1        0.1332
     15 C           3.4863    0.5648   28.8279 C.ar    1  UNL1        0.1784
     16 F           2.7112    1.6908   29.4453 F       1  UNL1       -0.2009
     17 C           4.9785    0.5137   28.9723 C.ar    1  UNL1        0.1332
     18 N           5.7536   -0.6123   28.3549 N.ar    1  UNL1       -0.2072
     19 C           5.5586   -2.1341   24.4030 C.ar    1  UNL1        0.0982
     20 C           4.4278   -2.5872   23.5278 C.ar    1  UNL1        0.0220
     21 C           3.9349   -1.7026   22.4213 C.ar    1  UNL1        0.0231
     22 C           4.5727   -0.3647   22.1900 C.ar    1  UNL1        0.1410
     23 C           5.7034    0.0884   23.0652 C.ar    1  UNL1        0.1187
     24 N           6.1964   -0.7963   24.1717 N.ar    1  UNL1       -0.2409
     25 S           4.0796    0.5199   21.0835 S.O2    1  UNL1        0.0619
     26 O           5.4763    1.0199   20.8610 O.2     1  UNL1       -0.1529
     27 O           2.6831    0.0200   21.3061 O.2     1  UNL1       -0.1529
     28 N           3.5866    1.4046   19.9770 N.3     1  UNL1       -0.1723
     29 H           4.3482    2.0438   19.7496 H       1  UNL1        0.1491
     30 C           3.1265    0.8014   18.6831 C.3     1  UNL1        0.1701
     31 C           1.6649    0.7722   18.3470 C.3     1  UNL1        0.0278
     32 C           4.1278    0.2273   17.7251 C.3     1  UNL1        0.4118
     33 F           5.1293   -0.3467   16.7672 F       1  UNL1       -0.1685
     34 F           4.8891    1.5197   17.7465 F       1  UNL1       -0.1685
     35 F           3.3666   -1.0650   17.7038 F       1  UNL1       -0.1685
     36 C           7.3415   -4.8435   24.0427 C.1     1  UNL1        0.1020
     37 N           7.8119   -5.4229   22.7414 N.1     1  UNL1       -0.1908
@<TRIPOS>BOND
     1     1     2    1
     2     2     3   ar
     3     3     4   ar
     4     4     5   ar
     5     5     6   ar
     6     6     7   ar
     7     7     8    1
     8     5     9   ar
     9     9    36    1
    10    36    37    3
    11     9    10   ar
    12    10    19    1
    13    19    20   ar
    14    20    21   ar
    15    21    22   ar
    16    22    25    1
    17    25    26    2
    18    25    27    2
    19    25    28    1
    20    28    30    1
    21    30    31    1
    22    30    32    1
    23    32    33    1
    24    32    34    1
    25    32    35    1
    26    22    23   ar
    27    23    24   ar
    28    10    11   ar
    29    11    12    1
    30    12    13   ar
    31    13    14   ar
    32    14    15   ar
    33    15    16    1
    34    15    17   ar
    35    17    18   ar
    36     7     2   ar
    37    24    19   ar
    38    18    12   ar
    39    11     4   ar
    40    28    29    1
@<TRIPOS>MOLECULE
*****
 37 40 0 0 0
SMALL
GASTEIGER

@<TRIPOS>ATOM
      1 C           6.4583   -3.5868   32.5749 C.3     1  UNL1        0.0334
      2 C           6.7560   -3.7699   31.1161 C.ar    1  UNL1        0.0071
      3 C           6.1063   -2.8777   30.1004 C.ar    1  UNL1        0.0156
      4 C           6.4040   -3.0607   28.6416 C.ar    1  UNL1        0.0673
      5 C           7.3514   -4.1360   28.1987 C.ar    1  UNL1        0.0295
      6 C           8.0011   -5.0282   29.2144 C.ar    1  UNL1        0.0315
      7 C           7.7034   -4.8451   30.6732 C.ar    1  UNL1        0.1363
      8 F           8.3531   -5.7374   31.6889 F       1  UNL1       -0.2045
      9 C           7.4508   -4.0788   26.7031 C.ar    1  UNL1        0.0875
     10 C           6.5648   -2.9682   26.2217 C.ar    1  UNL1        0.0939
     11 N           5.9179   -2.3390   27.4198 N.ar    1  UNL1       -0.2745
     12 C           4.9540   -1.1898   27.3996 C.ar    1  UNL1        0.2371
     13 N           3.4973   -1.4280   27.6665 N.ar    1  UNL1       -0.2072
     14 C           2.5334   -0.2789   27.6464 C.ar    1  UNL1        0.1332
     15 C           3.0263    1.1084   27.3593 C.ar    1  UNL1        0.1784
     16 F           2.0624    2.2576   27.3391 F       1  UNL1       -0.2009
     17 C           4.4830    1.3466   27.0924 C.ar    1  UNL1        0.1332
     18 N           5.4469    0.1975   27.1126 N.ar    1  UNL1       -0.2072
     19 C           6.3616   -2.5588   24.7930 C.ar    1  UNL1        0.0982
     20 C           7.0060   -1.3084   24.2722 C.ar    1  UNL1        0.0220
     21 C           6.8027   -0.8990   22.8436 C.ar    1  UNL1        0.0231
     22 C           5.9551   -1.7400   21.9357 C.ar    1  UNL1        0.1410
     23 C           5.3108   -2.9904   22.4565 C.ar    1  UNL1        0.1187
     24 N           5.5140   -3.3998   23.8851 N.ar    1  UNL1       -0.2409
     25 S           5.7519   -1.3306   20.5070 S.O2    1  UNL1        0.0619
     26 O           4.6933   -0.3582   20.9362 O.2     1  UNL1       -0.1529
     27 O           6.8103   -2.3029   20.0778 O.2     1  UNL1       -0.1529
     28 N           5.5487   -0.9212   19.0784 N.3     1  UNL1       -0.1723
     29 H           6.4210   -1.1195   18.5883 H       1  UNL1        0.1491
     30 C           4.4474   -1.5407   18.2700 C.3     1  UNL1        0.1701
     31 C           3.9619   -0.8651   17.0219 C.3     1  UNL1        0.0278
     32 C           3.8317   -2.8359   18.7097 C.3     1  UNL1        0.4118
     33 F           3.2160   -4.1311   19.1494 F       1  UNL1       -0.1685
     34 F           4.9337   -3.5913   18.0278 F       1  UNL1       -0.1685
     35 F           2.7298   -2.0805   19.3916 F       1  UNL1       -0.1685
     36 C           8.2890   -4.9749   25.8403 C.1     1  UNL1        0.1020
     37 N           9.1272   -5.8711   24.9775 N.1     1  UNL1       -0.1908
@<TRIPOS>BOND
     1     1     2    1
     2     2     3   ar
     3     3     4   ar
     4     4     5   ar
     5     5     6   ar
     6     6     7   ar
     7     7     8    1
     8     5     9   ar
     9     9    36    1
    10    36    37    3
    11     9    10   ar
    12    10    19    1
    13    19    20   ar
    14    20    21   ar
    15    21    22   ar
    16    22    25    1
    17    25    26    2
    18    25    27    2
    19    25    28    1
    20    28    30    1
    21    30    31    1
    22    30    32    1
    23    32    33    1
    24    32    34    1
    25    32    35    1
    26    22    23   ar
    27    23    24   ar
    28    10    11   ar
    29    11    12    1
    30    12    13   ar
    31    13    14   ar
    32    14    15   ar
    33    15    16    1
    34    15    17   ar
    35    17    18   ar
    36     7     2   ar
    37    24    19   ar
    38    18    12   ar
    39    11     4   ar
    40    28    29    1
@<TRIPOS>MOLECULE
*****
 37 40 0 0 0
SMALL
GASTEIGER

@<TRIPOS>ATOM
      1 C           3.5597   -1.4917   20.1116 C.3     1  UNL1        0.0334
      2 C           2.8231   -0.7614   21.1952 C.ar    1  UNL1        0.0071
      3 C           3.3334   -0.7983   22.6052 C.ar    1  UNL1        0.0156
      4 C           2.5968   -0.0680   23.6888 C.ar    1  UNL1        0.0673
      5 C           1.3499    0.6991   23.3623 C.ar    1  UNL1        0.0295
      6 C           0.8395    0.7359   21.9523 C.ar    1  UNL1        0.0315
      7 C           1.5762    0.0057   20.8688 C.ar    1  UNL1        0.1363
      8 F           1.0658    0.0426   19.4587 F       1  UNL1       -0.2045
      9 C           0.8403    1.3169   24.6307 C.ar    1  UNL1        0.0875
     10 C           1.7724    0.9316   25.7410 C.ar    1  UNL1        0.0939
     11 N           2.8580    0.0756   25.1589 N.ar    1  UNL1       -0.2745
     12 C           4.0036   -0.5302   25.9142 C.ar    1  UNL1        0.2371
     13 N           3.7379   -1.4685   27.0540 N.ar    1  UNL1       -0.2072
     14 C           4.8834   -2.0744   27.8094 C.ar    1  UNL1        0.1332
     15 C           6.2947   -1.7420   27.4249 C.ar    1  UNL1        0.1784
     16 F           7.4402   -2.3479   28.1803 F       1  UNL1       -0.2009
     17 C           6.5604   -0.8037   26.2852 C.ar    1  UNL1        0.1332
     18 N           5.4149   -0.1978   25.5298 N.ar    1  UNL1       -0.2072
     19 C           1.6417    1.3319   27.1807 C.ar    1  UNL1        0.0982
     20 C           2.3720    2.5378   27.6931 C.ar    1  UNL1        0.0220
     21 C           2.2413    2.9381   29.1327 C.ar    1  UNL1        0.0231
     22 C           1.3804    2.1325   30.0600 C.ar    1  UNL1        0.1410
     23 C           0.6501    0.9267   29.5477 C.ar    1  UNL1        0.1187
     24 N           0.7808    0.5264   28.1080 N.ar    1  UNL1       -0.2409
     25 S           1.2497    2.5329   31.4997 S.O2    1  UNL1        0.0619
     26 O          -0.0854    1.8526   31.5678 O.2     1  UNL1       -0.1529
     27 O           2.5848    3.2132   31.4317 O.2     1  UNL1       -0.1529
     28 N           1.1191    2.9333   32.9394 N.3     1  UNL1       -0.1723
     29 H           1.9917    2.6715   33.3981 H       1  UNL1        0.1491
     30 C           0.8538    4.3653   33.2985 C.3     1  UNL1        0.1701
     31 C           1.4907    4.9631   34.5179 C.3     1  UNL1        0.0278
     32 C          -0.0484    5.1995   32.4383 C.3     1  UNL1        0.4118
     33 F          -0.9507    6.0337   31.5780 F       1  UNL1       -0.1685
     34 F          -1.2403    4.4632   32.9744 F       1  UNL1       -0.1685
     35 F           1.1434    5.9357   31.9022 F       1  UNL1       -0.1685
     36 C          -0.3860    2.1701   24.7651 C.1     1  UNL1        0.1020
     37 N          -1.6123    3.0235   24.8994 N.1     1  UNL1       -0.1908
@<TRIPOS>BOND
     1     1     2    1
     2     2     3   ar
     3     3     4   ar
     4     4     5   ar
     5     5     6   ar
     6     6     7   ar
     7     7     8    1
     8     5     9   ar
     9     9    36    1
    10    36    37    3
    11     9    10   ar
    12    10    19    1
    13    19    20   ar
    14    20    21   ar
    15    21    22   ar
    16    22    25    1
    17    25    26    2
    18    25    27    2
    19    25    28    1
    20    28    30    1
    21    30    31    1
    22    30    32    1
    23    32    33    1
    24    32    34    1
    25    32    35    1
    26    22    23   ar
    27    23    24   ar
    28    10    11   ar
    29    11    12    1
    30    12    13   ar
    31    13    14   ar
    32    14    15   ar
    33    15    16    1
    34    15    17   ar
    35    17    18   ar
    36     7     2   ar
    37    24    19   ar
    38    18    12   ar
    39    11     4   ar
    40    28    29    1
@<TRIPOS>MOLECULE
*****
 37 40 0 0 0
SMALL
GASTEIGER

@<TRIPOS>ATOM
      1 C           1.2903    0.8506   27.1983 C.3     1  UNL1        0.0334
      2 C           1.3186    1.4944   28.5529 C.ar    1  UNL1        0.0071
      3 C           2.2219    0.9540   29.6214 C.ar    1  UNL1        0.0156
      4 C           2.2502    1.5977   30.9760 C.ar    1  UNL1        0.0673
      5 C           1.3750    2.7818   31.2620 C.ar    1  UNL1        0.0295
      6 C           0.4717    3.3223   30.1935 C.ar    1  UNL1        0.0315
      7 C           0.4434    2.6785   28.8389 C.ar    1  UNL1        0.1363
      8 F          -0.4600    3.2190   27.7704 F       1  UNL1       -0.2045
      9 C           1.6162    3.2044   32.6809 C.ar    1  UNL1        0.0875
     10 C           2.6404    2.2815   33.2718 C.ar    1  UNL1        0.0939
     11 N           3.0322    1.2884   32.2181 N.ar    1  UNL1       -0.2745
     12 C           4.0308    0.1806   32.3784 C.ar    1  UNL1        0.2371
     13 N           3.5992   -1.1432   32.9364 N.ar    1  UNL1       -0.2072
     14 C           4.5976   -2.2510   33.0967 C.ar    1  UNL1        0.1332
     15 C           6.0277   -2.0350   32.6989 C.ar    1  UNL1        0.1784
     16 F           7.0263   -3.1428   32.8592 F       1  UNL1       -0.2009
     17 C           6.4593   -0.7112   32.1410 C.ar    1  UNL1        0.1332
     18 N           5.4609    0.3966   31.9807 N.ar    1  UNL1       -0.2072
     19 C           3.1782    2.3411   34.6708 C.ar    1  UNL1        0.0982
     20 C           4.6303    2.6359   34.9041 C.ar    1  UNL1        0.0220
     21 C           5.1682    2.6955   36.3031 C.ar    1  UNL1        0.0231
     22 C           4.2539    2.4604   37.4688 C.ar    1  UNL1        0.1410
     23 C           2.8017    2.1657   37.2355 C.ar    1  UNL1        0.1187
     24 N           2.2639    2.1060   35.8365 N.ar    1  UNL1       -0.2409
     25 S           4.7917    2.5201   38.8678 S.O2    1  UNL1        0.0619
     26 O           3.4186    2.2488   39.4073 O.2     1  UNL1       -0.1529
     27 O           6.1648    2.7913   38.3283 O.2     1  UNL1       -0.1529
     28 N           5.3296    2.5797   40.2667 N.3     1  UNL1       -0.1723
     29 H           6.1874    2.0279   40.2761 H       1  UNL1        0.1491
     30 C           5.6603    3.9047   40.8873 C.3     1  UNL1        0.1701
     31 C           6.8106    4.0191   41.8430 C.3     1  UNL1        0.0278
     32 C           4.8406    5.1153   40.5520 C.3     1  UNL1        0.4118
     33 F           4.0208    6.3260   40.2168 F       1  UNL1       -0.1685
     34 F           3.7412    4.6176   41.4429 F       1  UNL1       -0.1685
     35 F           5.9400    5.6130   39.6612 F       1  UNL1       -0.1685
     36 C           0.9500    4.3491   33.3852 C.1     1  UNL1        0.1020
     37 N           0.2838    5.4938   34.0895 N.1     1  UNL1       -0.1908
@<TRIPOS>BOND
     1     1     2    1
     2     2     3   ar
     3     3     4   ar
     4     4     5   ar
     5     5     6   ar
     6     6     7   ar
     7     7     8    1
     8     5     9   ar
     9     9    36    1
    10    36    37    3
    11     9    10   ar
    12    10    19    1
    13    19    20   ar
    14    20    21   ar
    15    21    22   ar
    16    22    25    1
    17    25    26    2
    18    25    27    2
    19    25    28    1
    20    28    30    1
    21    30    31    1
    22    30    32    1
    23    32    33    1
    24    32    34    1
    25    32    35    1
    26    22    23   ar
    27    23    24   ar
    28    10    11   ar
    29    11    12    1
    30    12    13   ar
    31    13    14   ar
    32    14    15   ar
    33    15    16    1
    34    15    17   ar
    35    17    18   ar
    36     7     2   ar
    37    24    19   ar
    38    18    12   ar
    39    11     4   ar
    40    28    29    1
@<TRIPOS>MOLECULE
*****
 37 40 0 0 0
SMALL
GASTEIGER

@<TRIPOS>ATOM
      1 C           9.5137   -0.4347   38.3988 C.3     1  UNL1        0.0334
      2 C           8.4537    0.1415   37.5075 C.ar    1  UNL1        0.0071
      3 C           8.1481   -0.5066   36.1898 C.ar    1  UNL1        0.0156
      4 C           7.0881    0.0695   35.2985 C.ar    1  UNL1        0.0673
      5 C           6.3336    1.2938   35.7250 C.ar    1  UNL1        0.0295
      6 C           6.6391    1.9418   37.0428 C.ar    1  UNL1        0.0315
      7 C           7.6992    1.3657   37.9341 C.ar    1  UNL1        0.1363
      8 F           8.0047    2.0139   39.2519 F       1  UNL1       -0.2045
      9 C           5.3506    1.6325   34.6438 C.ar    1  UNL1        0.0875
     10 C           5.4976    0.6177   33.5491 C.ar    1  UNL1        0.0939
     11 N           6.5714   -0.3483   33.9537 N.ar    1  UNL1       -0.2745
     12 C           7.0454   -1.5255   33.1539 C.ar    1  UNL1        0.2371
     13 N           8.4744   -1.6003   32.7043 N.ar    1  UNL1       -0.2072
     14 C           8.9485   -2.7774   31.9046 C.ar    1  UNL1        0.1332
     15 C           7.9934   -3.8798   31.5544 C.ar    1  UNL1        0.1784
     16 F           8.4673   -5.0569   30.7546 F       1  UNL1       -0.2009
     17 C           6.5643   -3.8049   32.0040 C.ar    1  UNL1        0.1332
     18 N           6.0902   -2.6278   32.8037 N.ar    1  UNL1       -0.2072
     19 C           4.7091    0.5761   32.2736 C.ar    1  UNL1        0.0982
     20 C           3.2255    0.3591   32.3158 C.ar    1  UNL1        0.0220
     21 C           2.4371    0.3176   31.0404 C.ar    1  UNL1        0.0231
     22 C           3.1323    0.4931   29.7229 C.ar    1  UNL1        0.1410
     23 C           4.6159    0.7101   29.6807 C.ar    1  UNL1        0.1187
     24 N           5.4043    0.7517   30.9561 N.ar    1  UNL1       -0.2409
     25 S           2.3438    0.4516   28.4474 S.O2    1  UNL1        0.0619
     26 O           2.4793    1.9397   28.3152 O.2     1  UNL1       -0.1529
     27 O           2.2085   -1.0364   28.5796 O.2     1  UNL1       -0.1529
     28 N           1.5554    0.4100   27.1720 N.3     1  UNL1       -0.1723
     29 H           1.5491   -0.5615   26.8613 H       1  UNL1        0.1491
     30 C           0.1308    0.8792   27.1554 C.3     1  UNL1        0.1701
     31 C          -0.4371    1.5087   25.9179 C.3     1  UNL1        0.0278
     32 C          -0.7260    0.7190   28.3761 C.3     1  UNL1        0.4118
     33 F          -1.5828    0.5586   29.5968 F       1  UNL1       -0.1685
     34 F          -0.9354   -0.7277   28.0391 F       1  UNL1       -0.1685
     35 F          -0.5166    2.1655   28.7130 F       1  UNL1       -0.1685
     36 C           4.3894    2.7840   34.6554 C.1     1  UNL1        0.1020
     37 N           3.4281    3.9355   34.6670 N.1     1  UNL1       -0.1908
@<TRIPOS>BOND
     1     1     2    1
     2     2     3   ar
     3     3     4   ar
     4     4     5   ar
     5     5     6   ar
     6     6     7   ar
     7     7     8    1
     8     5     9   ar
     9     9    36    1
    10    36    37    3
    11     9    10   ar
    12    10    19    1
    13    19    20   ar
    14    20    21   ar
    15    21    22   ar
    16    22    25    1
    17    25    26    2
    18    25    27    2
    19    25    28    1
    20    28    30    1
    21    30    31    1
    22    30    32    1
    23    32    33    1
    24    32    34    1
    25    32    35    1
    26    22    23   ar
    27    23    24   ar
    28    10    11   ar
    29    11    12    1
    30    12    13   ar
    31    13    14   ar
    32    14    15   ar
    33    15    16    1
    34    15    17   ar
    35    17    18   ar
    36     7     2   ar
    37    24    19   ar
    38    18    12   ar
    39    11     4   ar
    40    28    29    1
