@<TRIPOS>MOLECULE
*****
 26 28 0 0 0
SMALL
GASTEIGER

@<TRIPOS>ATOM
      1 C          -9.8486  -17.7662   22.5640 C.ar    1  UNL1        0.0218
      2 C         -11.2760  -17.6141   22.1287 C.ar    1  UNL1        0.0989
      3 N         -11.7051  -18.1079   20.7789 N.ar    1  UNL1       -0.2426
      4 C         -10.7068  -18.7538   19.8643 C.ar    1  UNL1        0.0962
      5 C          -9.2794  -18.9059   20.2997 C.ar    1  UNL1        0.0166
      6 C          -8.8504  -18.4121   21.6496 C.ar    1  UNL1        0.0006
      7 C          -9.6926  -18.0980   25.1361 C.ar    1  UNL1        0.1409
      8 C          -9.2635  -17.6041   26.4859 C.ar    1  UNL1        0.0665
      9 C          -8.5614  -16.2848   26.6135 C.ar    1  UNL1        0.1432
     10 F          -8.1323  -15.7909   27.9634 F       1  UNL1       -0.2041
     11 C          -8.2884  -15.4592   25.3913 C.ar    1  UNL1        0.0298
     12 C          -8.7174  -15.9530   24.0415 C.ar    1  UNL1        0.0054
     13 C          -9.4195  -17.2724   23.9139 C.ar    1  UNL1        0.0356
     14 C          -9.6392  -20.6272   24.5447 C.3     1  UNL1        0.2525
     15 O         -10.3947  -19.4173   25.0086 O.3     1  UNL1       -0.4714
     16 C          -8.2812  -19.5517   19.3852 C.3     1  UNL1        0.1182
     17 N          -6.8577  -19.0789   19.3751 N.am    1  UNL1       -0.2956
     18 C          -5.8488  -19.7175   20.2831 C.2     1  UNL1        0.2638
     19 O          -6.2635  -20.8289   21.2012 O.2     1  UNL1       -0.2685
     20 H          -6.5855  -18.3495   18.7725 H       1  UNL1        0.1501
     21 C          -4.4253  -19.2447   20.2730 C.ar    1  UNL1        0.1345
     22 C          -3.4440  -19.7986   21.2631 C.ar    1  UNL1        0.0238
     23 C          -2.0206  -19.3258   21.2530 C.ar    1  UNL1        0.0033
     24 C          -1.5783  -18.2991   20.2528 C.ar    1  UNL1        0.0207
     25 C          -2.5596  -17.7452   19.2627 C.ar    1  UNL1        0.0990
     26 N          -3.9832  -18.2181   19.2728 N.ar    1  UNL1       -0.2393
@<TRIPOS>BOND
     1    14    15    1
     2    15     7    1
     3     7     8   ar
     4     8     9   ar
     5     9    10    1
     6     9    11   ar
     7    11    12   ar
     8    12    13   ar
     9    13     1    1
    10     1     2   ar
    11     2     3   ar
    12     3     4   ar
    13     4     5   ar
    14     5    16    1
    15    16    17    1
    16    17    18   am
    17    18    19    2
    18    18    21    1
    19    21    22   ar
    20    22    23   ar
    21    23    24   ar
    22    24    25   ar
    23    25    26   ar
    24     5     6   ar
    25    13     7   ar
    26     6     1   ar
    27    26    21   ar
    28    17    20    1
@<TRIPOS>MOLECULE
*****
 26 28 0 0 0
SMALL
GASTEIGER

@<TRIPOS>ATOM
      1 C          -8.7214  -16.4849   24.9464 C.ar    1  UNL1        0.0218
      2 C          -8.8272  -16.4903   26.4427 C.ar    1  UNL1        0.0989
      3 N          -7.6469  -16.0944   27.2795 N.ar    1  UNL1       -0.2426
      4 C          -6.3608  -15.6930   26.6200 C.ar    1  UNL1        0.0962
      5 C          -6.2550  -15.6875   25.1237 C.ar    1  UNL1        0.0166
      6 C          -7.4353  -16.0835   24.2869 C.ar    1  UNL1        0.0006
      7 C         -10.3948  -18.2972   24.1309 C.ar    1  UNL1        0.1409
      8 C         -11.5751  -18.6931   23.2942 C.ar    1  UNL1        0.0665
      9 C         -12.2623  -17.6725   22.4361 C.ar    1  UNL1        0.1432
     10 F         -13.4426  -18.0684   21.5994 F       1  UNL1       -0.2041
     11 C         -11.7692  -16.2561   22.4149 C.ar    1  UNL1        0.0298
     12 C         -10.5889  -15.8602   23.2516 C.ar    1  UNL1        0.0054
     13 C          -9.9017  -16.8808   24.1096 C.ar    1  UNL1        0.0356
     14 C          -9.5805  -20.7346   24.5131 C.3     1  UNL1        0.2525
     15 O          -9.7076  -19.3178   24.9889 O.3     1  UNL1       -0.4714
     16 C          -4.9690  -15.2861   24.4642 C.3     1  UNL1        0.1182
     17 N          -4.5458  -15.9430   23.1839 N.am    1  UNL1       -0.2956
     18 C          -3.9307  -17.3109   23.2103 C.2     1  UNL1        0.2638
     19 O          -3.7387  -18.0218   24.5171 O.2     1  UNL1       -0.2685
     20 H          -4.6718  -15.4764   22.3262 H       1  UNL1        0.1501
     21 C          -3.5075  -17.9678   21.9299 C.ar    1  UNL1        0.1345
     22 C          -3.8338  -19.4110   21.6838 C.ar    1  UNL1        0.0238
     23 C          -3.4107  -20.0679   20.4035 C.ar    1  UNL1        0.0033
     24 C          -2.6612  -19.2815   19.3690 C.ar    1  UNL1        0.0207
     25 C          -2.3349  -17.8382   19.6151 C.ar    1  UNL1        0.0990
     26 N          -2.7581  -17.1814   20.8955 N.ar    1  UNL1       -0.2393
@<TRIPOS>BOND
     1    14    15    1
     2    15     7    1
     3     7     8   ar
     4     8     9   ar
     5     9    10    1
     6     9    11   ar
     7    11    12   ar
     8    12    13   ar
     9    13     1    1
    10     1     2   ar
    11     2     3   ar
    12     3     4   ar
    13     4     5   ar
    14     5    16    1
    15    16    17    1
    16    17    18   am
    17    18    19    2
    18    18    21    1
    19    21    22   ar
    20    22    23   ar
    21    23    24   ar
    22    24    25   ar
    23    25    26   ar
    24     5     6   ar
    25    13     7   ar
    26     6     1   ar
    27    26    21   ar
    28    17    20    1
@<TRIPOS>MOLECULE
*****
 26 28 0 0 0
SMALL
GASTEIGER

@<TRIPOS>ATOM
      1 C          -8.6300  -16.8136   23.3558 C.ar    1  UNL1        0.0218
      2 C          -9.4072  -16.5659   24.6146 C.ar    1  UNL1        0.0989
      3 N          -8.7355  -15.9373   25.7993 N.ar    1  UNL1       -0.2426
      4 C          -7.2865  -15.5564   25.7253 C.ar    1  UNL1        0.0962
      5 C          -6.5093  -15.8040   24.4665 C.ar    1  UNL1        0.0166
      6 C          -7.1811  -16.4327   23.2817 C.ar    1  UNL1        0.0006
      7 C          -8.9397  -18.8375   21.7564 C.ar    1  UNL1        0.1409
      8 C          -9.6115  -19.4660   20.5717 C.ar    1  UNL1        0.0665
      9 C         -10.6454  -18.6992   19.8016 C.ar    1  UNL1        0.1432
     10 F         -11.3172  -19.3278   18.6168 F       1  UNL1       -0.2041
     11 C         -11.0075  -17.3039   20.2161 C.ar    1  UNL1        0.0298
     12 C         -10.3357  -16.6754   21.4009 C.ar    1  UNL1        0.0054
     13 C          -9.3018  -17.4422   22.1710 C.ar    1  UNL1        0.0356
     14 C          -6.5845  -19.9256   21.8936 C.3     1  UNL1        0.2525
     15 O          -7.9058  -19.6043   22.5266 O.3     1  UNL1       -0.4714
     16 C          -5.0604  -15.4231   24.3924 C.3     1  UNL1        0.1182
     17 N          -4.2696  -15.7190   23.1526 N.am    1  UNL1       -0.2956
     18 C          -3.6688  -17.0789   22.9529 C.2     1  UNL1        0.2638
     19 O          -3.8587  -18.1428   23.9931 O.2     1  UNL1       -0.2685
     20 H          -4.1449  -15.0207   22.4699 H       1  UNL1        0.1501
     21 C          -2.8780  -17.3748   21.7131 C.ar    1  UNL1        0.1345
     22 C          -1.5932  -16.6462   21.4513 C.ar    1  UNL1        0.0238
     23 C          -0.8025  -16.9421   20.2115 C.ar    1  UNL1        0.0033
     24 C          -1.2965  -17.9666   19.2335 C.ar    1  UNL1        0.0207
     25 C          -2.5812  -18.6951   19.4953 C.ar    1  UNL1        0.0990
     26 N          -3.3720  -18.3992   20.7352 N.ar    1  UNL1       -0.2393
@<TRIPOS>BOND
     1    14    15    1
     2    15     7    1
     3     7     8   ar
     4     8     9   ar
     5     9    10    1
     6     9    11   ar
     7    11    12   ar
     8    12    13   ar
     9    13     1    1
    10     1     2   ar
    11     2     3   ar
    12     3     4   ar
    13     4     5   ar
    14     5    16    1
    15    16    17    1
    16    17    18   am
    17    18    19    2
    18    18    21    1
    19    21    22   ar
    20    22    23   ar
    21    23    24   ar
    22    24    25   ar
    23    25    26   ar
    24     5     6   ar
    25    13     7   ar
    26     6     1   ar
    27    26    21   ar
    28    17    20    1
@<TRIPOS>MOLECULE
*****
 26 28 0 0 0
SMALL
GASTEIGER

@<TRIPOS>ATOM
      1 C          -4.1084  -16.8157   23.8032 C.ar    1  UNL1        0.0218
      2 C          -3.7425  -17.1615   25.2162 C.ar    1  UNL1        0.0989
      3 N          -4.6149  -16.7085   26.3492 N.ar    1  UNL1       -0.2426
      4 C          -5.8533  -15.9097   26.0692 C.ar    1  UNL1        0.0962
      5 C          -6.2192  -15.5638   24.6562 C.ar    1  UNL1        0.0166
      6 C          -5.3467  -16.0169   23.5232 C.ar    1  UNL1        0.0006
      7 C          -3.3449  -18.6731   22.1548 C.ar    1  UNL1        0.1409
      8 C          -2.4724  -19.1261   21.0219 C.ar    1  UNL1        0.0665
      9 C          -1.4909  -18.1746   20.4044 C.ar    1  UNL1        0.1432
     10 F          -0.6184  -18.6277   19.2714 F       1  UNL1       -0.2041
     11 C          -1.3818  -16.7702   20.9198 C.ar    1  UNL1        0.0298
     12 C          -2.2543  -16.3173   22.0527 C.ar    1  UNL1        0.0054
     13 C          -3.2358  -17.2687   22.6702 C.ar    1  UNL1        0.0356
     14 C          -5.6814  -19.8093   22.1560 C.3     1  UNL1        0.2525
     15 O          -4.3264  -19.6246   22.7724 O.3     1  UNL1       -0.4714
     16 C          -7.4575  -14.7650   24.3761 C.3     1  UNL1        0.1182
     17 N          -8.7223  -15.4606   23.9683 N.am    1  UNL1       -0.2956
     18 C          -8.9625  -15.7954   22.5259 C.2     1  UNL1        0.2638
     19 O          -7.9379  -15.4348   21.4915 O.2     1  UNL1       -0.2685
     20 H          -9.3948  -15.6973   24.6472 H       1  UNL1        0.1501
     21 C         -10.2274  -16.4909   22.1181 C.ar    1  UNL1        0.1345
     22 C         -11.3709  -16.5948   23.0832 C.ar    1  UNL1        0.0238
     23 C         -12.6358  -17.2903   22.6753 C.ar    1  UNL1        0.0033
     24 C         -12.7571  -17.8820   21.3022 C.ar    1  UNL1        0.0207
     25 C         -11.6135  -17.7782   20.3371 C.ar    1  UNL1        0.0990
     26 N         -10.3486  -17.0826   20.7451 N.ar    1  UNL1       -0.2393
@<TRIPOS>BOND
     1    14    15    1
     2    15     7    1
     3     7     8   ar
     4     8     9   ar
     5     9    10    1
     6     9    11   ar
     7    11    12   ar
     8    12    13   ar
     9    13     1    1
    10     1     2   ar
    11     2     3   ar
    12     3     4   ar
    13     4     5   ar
    14     5    16    1
    15    16    17    1
    16    17    18   am
    17    18    19    2
    18    18    21    1
    19    21    22   ar
    20    22    23   ar
    21    23    24   ar
    22    24    25   ar
    23    25    26   ar
    24     5     6   ar
    25    13     7   ar
    26     6     1   ar
    27    26    21   ar
    28    17    20    1
@<TRIPOS>MOLECULE
*****
 26 28 0 0 0
SMALL
GASTEIGER

@<TRIPOS>ATOM
      1 C          -9.6486  -17.6013   23.4064 C.ar    1  UNL1        0.0218
      2 C          -8.9609  -16.3862   23.9546 C.ar    1  UNL1        0.0989
      3 N          -7.4973  -16.1752   23.7027 N.ar    1  UNL1       -0.2426
      4 C          -6.7215  -17.1792   22.9027 C.ar    1  UNL1        0.0962
      5 C          -7.4093  -18.3943   22.3545 C.ar    1  UNL1        0.0166
      6 C          -8.8729  -18.6054   22.6064 C.ar    1  UNL1        0.0006
      7 C         -12.1283  -17.1506   22.7753 C.ar    1  UNL1        0.1409
      8 C         -13.5918  -17.3616   23.0272 C.ar    1  UNL1        0.0665
      9 C         -14.0393  -18.2344   24.1621 C.ar    1  UNL1        0.1432
     10 F         -15.5029  -18.4454   24.4140 F       1  UNL1       -0.2041
     11 C         -13.0233  -18.8961   25.0451 C.ar    1  UNL1        0.0298
     12 C         -11.5598  -18.6851   24.7932 C.ar    1  UNL1        0.0054
     13 C         -11.1123  -17.8123   23.6583 C.ar    1  UNL1        0.0356
     14 C         -11.5074  -16.8607   20.2692 C.3     1  UNL1        0.2525
     15 O         -11.6808  -16.2778   21.6404 O.3     1  UNL1       -0.4714
     16 C          -6.6335  -19.3984   21.5546 C.3     1  UNL1        0.1182
     17 N          -5.4250  -18.9664   20.7782 N.am    1  UNL1       -0.2956
     18 C          -4.0643  -19.0422   21.4051 C.2     1  UNL1        0.2638
     19 O          -3.9123  -19.5499   22.8084 O.2     1  UNL1       -0.2685
     20 H          -5.5247  -18.6332   19.8572 H       1  UNL1        0.1501
     21 C          -2.8557  -18.6102   20.6288 C.ar    1  UNL1        0.1345
     22 C          -3.0003  -18.1595   19.2054 C.ar    1  UNL1        0.0238
     23 C          -1.7917  -17.7276   18.4291 C.ar    1  UNL1        0.0033
     24 C          -0.4385  -17.7463   19.0761 C.ar    1  UNL1        0.0207
     25 C          -0.2940  -18.1970   20.4995 C.ar    1  UNL1        0.0990
     26 N          -1.5026  -18.6289   21.2758 N.ar    1  UNL1       -0.2393
@<TRIPOS>BOND
     1    14    15    1
     2    15     7    1
     3     7     8   ar
     4     8     9   ar
     5     9    10    1
     6     9    11   ar
     7    11    12   ar
     8    12    13   ar
     9    13     1    1
    10     1     2   ar
    11     2     3   ar
    12     3     4   ar
    13     4     5   ar
    14     5    16    1
    15    16    17    1
    16    17    18   am
    17    18    19    2
    18    18    21    1
    19    21    22   ar
    20    22    23   ar
    21    23    24   ar
    22    24    25   ar
    23    25    26   ar
    24     5     6   ar
    25    13     7   ar
    26     6     1   ar
    27    26    21   ar
    28    17    20    1
@<TRIPOS>MOLECULE
*****
 26 28 0 0 0
SMALL
GASTEIGER

@<TRIPOS>ATOM
      1 C          -4.7801  -17.5426   23.4970 C.ar    1  UNL1        0.0218
      2 C          -3.8773  -17.5247   24.6948 C.ar    1  UNL1        0.0989
      3 N          -4.1811  -16.6165   25.8493 N.ar    1  UNL1       -0.2426
      4 C          -5.3876  -15.7263   25.8060 C.ar    1  UNL1        0.0962
      5 C          -6.2903  -15.7442   24.6082 C.ar    1  UNL1        0.0166
      6 C          -5.9865  -16.6524   23.4537 C.ar    1  UNL1        0.0006
      7 C          -3.1241  -18.4132   21.6942 C.ar    1  UNL1        0.1409
      8 C          -2.8204  -19.3214   20.5397 C.ar    1  UNL1        0.0665
      9 C          -3.8688  -20.2673   20.0335 C.ar    1  UNL1        0.1432
     10 F          -3.5650  -21.1755   18.8789 F       1  UNL1       -0.2041
     11 C          -5.2209  -20.3049   20.6817 C.ar    1  UNL1        0.0298
     12 C          -5.5247  -19.3967   21.8362 C.ar    1  UNL1        0.0054
     13 C          -4.4763  -18.4509   22.3424 C.ar    1  UNL1        0.0356
     14 C          -1.9167  -16.1162   21.5689 C.3     1  UNL1        0.2525
     15 O          -2.0757  -17.4674   22.2004 O.3     1  UNL1       -0.4714
     16 C          -7.4968  -14.8540   24.5649 C.3     1  UNL1        0.1182
     17 N          -8.6710  -15.2234   23.7076 N.am    1  UNL1       -0.2956
     18 C          -9.5189  -16.4075   24.0668 C.2     1  UNL1        0.2638
     19 O          -9.1926  -17.2222   25.2833 O.2     1  UNL1       -0.2685
     20 H          -8.8851  -14.6886   22.9092 H       1  UNL1        0.1501
     21 C         -10.6930  -16.7768   23.2096 C.ar    1  UNL1        0.1345
     22 C         -11.6691  -17.8138   23.6808 C.ar    1  UNL1        0.0238
     23 C         -12.8432  -18.1831   22.8236 C.ar    1  UNL1        0.0033
     24 C         -13.0413  -17.5155   21.4950 C.ar    1  UNL1        0.0207
     25 C         -12.0653  -16.4786   21.0237 C.ar    1  UNL1        0.0990
     26 N         -10.8911  -16.1093   21.8810 N.ar    1  UNL1       -0.2393
@<TRIPOS>BOND
     1    14    15    1
     2    15     7    1
     3     7     8   ar
     4     8     9   ar
     5     9    10    1
     6     9    11   ar
     7    11    12   ar
     8    12    13   ar
     9    13     1    1
    10     1     2   ar
    11     2     3   ar
    12     3     4   ar
    13     4     5   ar
    14     5    16    1
    15    16    17    1
    16    17    18   am
    17    18    19    2
    18    18    21    1
    19    21    22   ar
    20    22    23   ar
    21    23    24   ar
    22    24    25   ar
    23    25    26   ar
    24     5     6   ar
    25    13     7   ar
    26     6     1   ar
    27    26    21   ar
    28    17    20    1
@<TRIPOS>MOLECULE
*****
 26 28 0 0 0
SMALL
GASTEIGER

@<TRIPOS>ATOM
      1 C          -8.5483  -16.4078   24.6387 C.ar    1  UNL1        0.0218
      2 C          -8.8428  -16.2184   26.0973 C.ar    1  UNL1        0.0989
      3 N          -7.7649  -15.7398   27.0241 N.ar    1  UNL1       -0.2426
      4 C          -6.3924  -15.4506   26.4923 C.ar    1  UNL1        0.0962
      5 C          -6.0979  -15.6400   25.0338 C.ar    1  UNL1        0.0166
      6 C          -7.1759  -16.1186   24.1070 C.ar    1  UNL1        0.0006
      7 C          -9.6241  -16.4584   22.2743 C.ar    1  UNL1        0.1409
      8 C         -10.7020  -16.9370   21.3476 C.ar    1  UNL1        0.0665
      9 C         -11.7823  -17.8437   21.8585 C.ar    1  UNL1        0.1432
     10 F         -12.8603  -18.3223   20.9317 F       1  UNL1       -0.2041
     11 C         -11.7846  -18.2718   23.2961 C.ar    1  UNL1        0.0298
     12 C         -10.7066  -17.7931   24.2228 C.ar    1  UNL1        0.0054
     13 C          -9.6264  -16.8864   23.7119 C.ar    1  UNL1        0.0356
     14 C          -8.8748  -14.4742   20.7739 C.3     1  UNL1        0.2525
     15 O          -8.5438  -15.5517   21.7635 O.3     1  UNL1       -0.4714
     16 C          -4.7255  -15.3508   24.5020 C.3     1  UNL1        0.1182
     17 N          -4.3083  -15.8944   23.1677 N.am    1  UNL1       -0.2956
     18 C          -3.7589  -17.2863   23.0635 C.2     1  UNL1        0.2638
     19 O          -3.6267  -18.1345   24.2936 O.2     1  UNL1       -0.2685
     20 H          -4.3951  -15.3377   22.3604 H       1  UNL1        0.1501
     21 C          -3.3416  -17.8300   21.7292 C.ar    1  UNL1        0.1345
     22 C          -3.8006  -19.1911   21.2971 C.ar    1  UNL1        0.0238
     23 C          -3.3834  -19.7347   19.9628 C.ar    1  UNL1        0.0033
     24 C          -2.5072  -18.9172   19.0606 C.ar    1  UNL1        0.0207
     25 C          -2.0482  -17.5561   19.4927 C.ar    1  UNL1        0.0990
     26 N          -2.4654  -17.0125   20.8270 N.ar    1  UNL1       -0.2393
@<TRIPOS>BOND
     1    14    15    1
     2    15     7    1
     3     7     8   ar
     4     8     9   ar
     5     9    10    1
     6     9    11   ar
     7    11    12   ar
     8    12    13   ar
     9    13     1    1
    10     1     2   ar
    11     2     3   ar
    12     3     4   ar
    13     4     5   ar
    14     5    16    1
    15    16    17    1
    16    17    18   am
    17    18    19    2
    18    18    21    1
    19    21    22   ar
    20    22    23   ar
    21    23    24   ar
    22    24    25   ar
    23    25    26   ar
    24     5     6   ar
    25    13     7   ar
    26     6     1   ar
    27    26    21   ar
    28    17    20    1
@<TRIPOS>MOLECULE
*****
 26 28 0 0 0
SMALL
GASTEIGER

@<TRIPOS>ATOM
      1 C          -4.8553  -19.3327   20.2976 C.ar    1  UNL1        0.0218
      2 C          -5.1617  -20.6721   19.6959 C.ar    1  UNL1        0.0989
      3 N          -6.5528  -21.2278   19.7715 N.ar    1  UNL1       -0.2426
      4 C          -7.6378  -20.4441   20.4489 C.ar    1  UNL1        0.0962
      5 C          -7.3314  -19.1047   21.0507 C.ar    1  UNL1        0.0166
      6 C          -5.9401  -18.5490   20.9750 C.ar    1  UNL1        0.0006
      7 C          -2.6807  -18.5425   21.4795 C.ar    1  UNL1        0.1409
      8 C          -1.2895  -17.9868   21.4038 C.ar    1  UNL1        0.0665
      9 C          -0.6817  -17.6657   20.0706 C.ar    1  UNL1        0.1432
     10 F           0.7096  -17.1100   19.9949 F       1  UNL1       -0.2041
     11 C          -1.4650  -17.9002   18.8131 C.ar    1  UNL1        0.0298
     12 C          -2.8562  -18.4558   18.8888 C.ar    1  UNL1        0.0054
     13 C          -3.4640  -18.7770   20.2220 C.ar    1  UNL1        0.0356
     14 C          -3.7260  -17.7555   23.7240 C.3     1  UNL1        0.2525
     15 O          -3.2885  -18.8636   22.8126 O.3     1  UNL1       -0.4714
     16 C          -8.4162  -18.3210   21.7281 C.3     1  UNL1        0.1182
     17 N          -8.2203  -17.8267   23.1306 N.am    1  UNL1       -0.2956
     18 C          -7.6788  -16.4487   23.3715 C.2     1  UNL1        0.2638
     19 O          -7.3333  -15.5650   22.2097 O.2     1  UNL1       -0.2685
     20 H          -8.4471  -18.4067   23.8931 H       1  UNL1        0.1501
     21 C          -7.4829  -15.9544   24.7740 C.ar    1  UNL1        0.1345
     22 C          -8.6470  -15.8958   25.7181 C.ar    1  UNL1        0.0238
     23 C          -8.4511  -15.4015   27.1207 C.ar    1  UNL1        0.0033
     24 C          -7.0909  -14.9658   27.5792 C.ar    1  UNL1        0.0207
     25 C          -5.9268  -15.0243   26.6351 C.ar    1  UNL1        0.0990
     26 N          -6.1228  -15.5186   25.2325 N.ar    1  UNL1       -0.2393
@<TRIPOS>BOND
     1    14    15    1
     2    15     7    1
     3     7     8   ar
     4     8     9   ar
     5     9    10    1
     6     9    11   ar
     7    11    12   ar
     8    12    13   ar
     9    13     1    1
    10     1     2   ar
    11     2     3   ar
    12     3     4   ar
    13     4     5   ar
    14     5    16    1
    15    16    17    1
    16    17    18   am
    17    18    19    2
    18    18    21    1
    19    21    22   ar
    20    22    23   ar
    21    23    24   ar
    22    24    25   ar
    23    25    26   ar
    24     5     6   ar
    25    13     7   ar
    26     6     1   ar
    27    26    21   ar
    28    17    20    1
@<TRIPOS>MOLECULE
*****
 26 28 0 0 0
SMALL
GASTEIGER

@<TRIPOS>ATOM
      1 C          -4.7592  -17.5076   23.4885 C.ar    1  UNL1        0.0218
      2 C          -3.8605  -17.5006   24.6894 C.ar    1  UNL1        0.0989
      3 N          -4.1695  -16.6049   25.8522 N.ar    1  UNL1       -0.2426
      4 C          -5.3775  -15.7163   25.8142 C.ar    1  UNL1        0.0962
      5 C          -6.2762  -15.7234   24.6133 C.ar    1  UNL1        0.0166
      6 C          -5.9671  -16.6191   23.4505 C.ar    1  UNL1        0.0006
      7 C          -5.5143  -19.3001   21.7660 C.ar    1  UNL1        0.1409
      8 C          -5.2051  -20.1958   20.6032 C.ar    1  UNL1        0.0665
      9 C          -3.8318  -20.1946   20.0000 C.ar    1  UNL1        0.1432
     10 F          -3.5226  -21.0903   18.8371 F       1  UNL1       -0.2041
     11 C          -2.7676  -19.2978   20.5596 C.ar    1  UNL1        0.0298
     12 C          -3.0767  -18.4022   21.7224 C.ar    1  UNL1        0.0054
     13 C          -4.4501  -18.4033   22.3256 C.ar    1  UNL1        0.0356
     14 C          -8.0864  -19.0428   21.5055 C.3     1  UNL1        0.2525
     15 O          -6.8876  -19.3013   22.3693 O.3     1  UNL1       -0.4714
     16 C          -7.4841  -14.8348   24.5753 C.3     1  UNL1        0.1182
     17 N          -8.6623  -15.2069   23.7249 N.am    1  UNL1       -0.2956
     18 C          -9.4810  -16.4168   24.0656 C.2     1  UNL1        0.2638
     19 O          -9.1213  -17.2546   25.2566 O.2     1  UNL1       -0.2685
     20 H          -8.8984  -14.6570   22.9431 H       1  UNL1        0.1501
     21 C         -10.6592  -16.7889   23.2151 C.ar    1  UNL1        0.1345
     22 C         -11.6466  -17.8062   23.7053 C.ar    1  UNL1        0.0238
     23 C         -12.8248  -18.1783   22.8549 C.ar    1  UNL1        0.0033
     24 C         -13.0158  -17.5331   21.5143 C.ar    1  UNL1        0.0207
     25 C         -12.0284  -16.5158   21.0241 C.ar    1  UNL1        0.0990
     26 N         -10.8501  -16.1438   21.8745 N.ar    1  UNL1       -0.2393
@<TRIPOS>BOND
     1    14    15    1
     2    15     7    1
     3     7     8   ar
     4     8     9   ar
     5     9    10    1
     6     9    11   ar
     7    11    12   ar
     8    12    13   ar
     9    13     1    1
    10     1     2   ar
    11     2     3   ar
    12     3     4   ar
    13     4     5   ar
    14     5    16    1
    15    16    17    1
    16    17    18   am
    17    18    19    2
    18    18    21    1
    19    21    22   ar
    20    22    23   ar
    21    23    24   ar
    22    24    25   ar
    23    25    26   ar
    24     5     6   ar
    25    13     7   ar
    26     6     1   ar
    27    26    21   ar
    28    17    20    1
