@<TRIPOS>MOLECULE
*****
 40 43 0 0 0
SMALL
GASTEIGER

@<TRIPOS>ATOM
      1 C           3.6088   -1.3603   23.5071 C.3     1  UNL1        0.1678
      2 C           3.2889   -0.3473   24.5661 C.2     1  UNL1        0.2492
      3 O           2.6966    0.0623   24.2246 O.2     1  UNL1       -0.2727
      4 N           3.9279   -0.1671   25.9112 N.am    1  UNL1       -0.2517
      5 C           5.0443   -0.9552   26.5296 C.ar    1  UNL1        0.0679
      6 C           5.3841   -0.4434   27.8980 C.ar    1  UNL1        0.0169
      7 C           6.4771   -1.0948   28.6923 C.ar    1  UNL1        0.0116
      8 C           7.2305   -2.2579   28.1181 C.ar    1  UNL1        0.0698
      9 C           6.8907   -2.7697   26.7497 C.ar    1  UNL1        0.0264
     10 C           5.7977   -2.1184   25.9554 C.ar    1  UNL1        0.0682
     11 N           5.6205   -2.7805   24.6212 N.am    1  UNL1       -0.2570
     12 C           6.5391   -3.9325   24.3393 C.2     1  UNL1        0.2299
     13 C           7.5517   -4.3523   25.3633 C.3     1  UNL1        0.0952
     14 O           6.4451   -4.6646   23.0335 O.2     1  UNL1       -0.2745
     15 C           4.6464   -2.4433   23.5316 C.3     1  UNL1        0.1066
     16 C           4.7196   -3.3024   22.3042 C.3     1  UNL1        0.0242
     17 C           3.2758   -0.4933   21.0807 C.2     1  UNL1        0.2371
     18 O           4.5975    0.2127   21.1516 O.2     1  UNL1       -0.2737
     19 N           2.7815   -1.2798   22.2584 N.am    1  UNL1       -0.2959
     20 H           1.9141   -1.7431   22.2119 H       1  UNL1        0.1499
     21 C           2.4486   -0.4127   19.8320 C.3     1  UNL1        0.1316
     22 C           3.1152   -0.2227   18.5017 C.3     1  UNL1        0.0270
     23 C           0.1513    0.6016   20.4978 C.3     1  UNL1        0.0862
     24 N           0.9549   -0.5222   19.9136 N.3     1  UNL1       -0.2902
     25 H           0.6174   -0.6615   18.9612 H       1  UNL1        0.1237
     26 C           8.3236   -2.9092   28.9125 C.1     1  UNL1        0.1005
     27 N           9.4167   -3.5605   29.7068 N.1     1  UNL1       -0.1908
     28 C           3.3775    0.9490   26.7488 C.3     1  UNL1        0.1278
     29 C           1.9400    0.9269   27.1768 C.ar    1  UNL1        0.0320
     30 C           1.4950   -0.0075   28.2624 C.ar    1  UNL1        0.1363
     31 C           0.0575   -0.0296   28.6905 C.ar    1  UNL1        0.0366
     32 C          -0.9349    0.8828   28.0328 C.ar    1  UNL1        0.0031
     33 C          -0.4899    1.8173   26.9472 C.ar    1  UNL1       -0.0001
     34 C          -1.4823    2.7298   26.2896 C.ar    1  UNL1       -0.0000
     35 C          -1.0373    3.6644   25.2039 C.ar    1  UNL1       -0.0000
     36 C           0.4001    3.6864   24.7760 C.ar    1  UNL1       -0.0000
     37 C           1.3926    2.7739   25.4335 C.ar    1  UNL1       -0.0002
     38 C           0.9476    1.8394   26.5192 C.ar    1  UNL1        0.0006
     39 O           2.4874   -0.9200   28.9201 O.3     1  UNL1       -0.4717
     40 C           2.7401   -0.8153   30.3950 C.3     1  UNL1        0.2525
@<TRIPOS>BOND
     1    23    24    1
     2    24    21    1
     3    21    22    1
     4    21    17    1
     5    17    18    2
     6    17    19   am
     7     1    19    1
     8     1     2    1
     9     2     3    2
    10     2     4   am
    11     4    28    1
    12    28    29    1
    13    29    30   ar
    14    30    39    1
    15    39    40    1
    16    30    31   ar
    17    31    32   ar
    18    32    33   ar
    19    33    34   ar
    20    34    35   ar
    21    35    36   ar
    22    36    37   ar
    23    37    38   ar
    24     4     5    1
    25     5     6   ar
    26     6     7   ar
    27     7     8   ar
    28     8    26    1
    29    26    27    3
    30     8     9   ar
    31     9    10   ar
    32    10    11    1
    33    11    12   am
    34    12    13    1
    35    12    14    2
    36    11    15    1
    37    15    16    1
    38    15     1    1
    39    38    29   ar
    40    10     5   ar
    41    38    33   ar
    42    24    25    1
    43    19    20    1
@<TRIPOS>MOLECULE
*****
 40 43 0 0 0
SMALL
GASTEIGER

@<TRIPOS>ATOM
      1 C           3.1865   -0.8142   23.6789 C.3     1  UNL1        0.1678
      2 C           2.9874   -1.0669   22.2138 C.2     1  UNL1        0.2492
      3 O           3.4980   -1.6645   22.0818 O.2     1  UNL1       -0.2727
      4 N           2.0638   -0.3672   21.2612 N.am    1  UNL1       -0.2517
      5 C           1.1112    0.7579   21.5383 C.ar    1  UNL1        0.0679
      6 C           0.3707    1.1667   20.2996 C.ar    1  UNL1        0.0169
      7 C          -0.6341    2.2788   20.3592 C.ar    1  UNL1        0.0116
      8 C          -0.8984    2.9821   21.6574 C.ar    1  UNL1        0.0698
      9 C          -0.1579    2.5733   22.8962 C.ar    1  UNL1        0.0264
     10 C           0.8469    1.4611   22.8366 C.ar    1  UNL1        0.0682
     11 N           1.4699    1.2130   24.1784 N.am    1  UNL1       -0.2570
     12 C           0.9880    2.0941   25.2926 C.2     1  UNL1        0.2299
     13 C          -0.0528    3.1406   25.0247 C.3     1  UNL1        0.0952
     14 O           1.5469    1.9287   26.6748 O.2     1  UNL1       -0.2745
     15 C           2.5111    0.2005   24.5533 C.3     1  UNL1        0.1066
     16 C           2.9327    0.2028   25.9928 C.3     1  UNL1        0.0242
     17 C           5.6318   -1.2703   24.4286 C.2     1  UNL1        0.2371
     18 O           6.0620    0.0300   23.8167 O.2     1  UNL1       -0.2737
     19 N           4.1941   -1.6923   24.3597 N.am    1  UNL1       -0.2959
     20 H           3.9118   -2.5457   24.7614 H       1  UNL1        0.1499
     21 C           6.6395   -2.1484   25.1094 C.3     1  UNL1        0.1316
     22 C           8.0587   -1.6860   25.2577 C.3     1  UNL1        0.0270
     23 C           6.9365   -4.7284   25.1820 C.3     1  UNL1        0.0862
     24 N           6.2279   -3.4889   25.6420 N.3     1  UNL1       -0.2902
     25 H           6.3338   -3.4482   26.6556 H       1  UNL1        0.1237
     26 C          -1.9032    4.0942   21.7169 C.1     1  UNL1        0.1005
     27 N          -2.9080    5.2063   21.7765 N.1     1  UNL1       -0.1908
     28 C           2.0972   -0.8574   19.8440 C.3     1  UNL1        0.1278
     29 C           3.4041   -0.9519   19.1136 C.ar    1  UNL1        0.0320
     30 C           4.0416   -2.2906   18.8871 C.ar    1  UNL1        0.1363
     31 C           5.3484   -2.3851   18.1568 C.ar    1  UNL1        0.0366
     32 C           6.0177   -1.1407   17.6531 C.ar    1  UNL1        0.0031
     33 C           5.3802    0.1980   17.8796 C.ar    1  UNL1       -0.0001
     34 C           6.0494    1.4423   17.3759 C.ar    1  UNL1       -0.0000
     35 C           5.4120    2.7811   17.6024 C.ar    1  UNL1       -0.0000
     36 C           4.1052    2.8755   18.3327 C.ar    1  UNL1       -0.0000
     37 C           3.4358    1.6312   18.8365 C.ar    1  UNL1       -0.0002
     38 C           4.0734    0.2925   18.6099 C.ar    1  UNL1        0.0006
     39 O           3.3723   -3.5349   19.3908 O.3     1  UNL1       -0.4717
     40 C           3.9898   -4.8768   19.1301 C.3     1  UNL1        0.2525
@<TRIPOS>BOND
     1    23    24    1
     2    24    21    1
     3    21    22    1
     4    21    17    1
     5    17    18    2
     6    17    19   am
     7     1    19    1
     8     1     2    1
     9     2     3    2
    10     2     4   am
    11     4    28    1
    12    28    29    1
    13    29    30   ar
    14    30    39    1
    15    39    40    1
    16    30    31   ar
    17    31    32   ar
    18    32    33   ar
    19    33    34   ar
    20    34    35   ar
    21    35    36   ar
    22    36    37   ar
    23    37    38   ar
    24     4     5    1
    25     5     6   ar
    26     6     7   ar
    27     7     8   ar
    28     8    26    1
    29    26    27    3
    30     8     9   ar
    31     9    10   ar
    32    10    11    1
    33    11    12   am
    34    12    13    1
    35    12    14    2
    36    11    15    1
    37    15    16    1
    38    15     1    1
    39    38    29   ar
    40    10     5   ar
    41    38    33   ar
    42    24    25    1
    43    19    20    1
@<TRIPOS>MOLECULE
*****
 40 43 0 0 0
SMALL
GASTEIGER

@<TRIPOS>ATOM
      1 C          -2.9769    3.1754   21.6681 C.3     1  UNL1        0.1678
      2 C          -1.5166    3.2846   21.3430 C.2     1  UNL1        0.2492
      3 O          -1.5127    3.1281   20.5614 O.2     1  UNL1       -0.2727
      4 N          -0.3754    3.6055   22.2620 N.am    1  UNL1       -0.2517
      5 C          -0.4125    3.8966   23.7331 C.ar    1  UNL1        0.0679
      6 C           0.9603    4.1689   24.2726 C.ar    1  UNL1        0.0169
      7 C           1.1456    4.4833   25.7275 C.ar    1  UNL1        0.0116
      8 C          -0.0420    4.5253   26.6429 C.ar    1  UNL1        0.0698
      9 C          -1.4148    4.2529   26.1033 C.ar    1  UNL1        0.0264
     10 C          -1.6000    3.9385   24.6484 C.ar    1  UNL1        0.0682
     11 N          -3.0438    3.6998   24.3188 N.am    1  UNL1       -0.2570
     12 C          -4.0014    3.8162   25.4675 C.2     1  UNL1        0.2299
     13 C          -3.4919    4.1523   26.8377 C.3     1  UNL1        0.0952
     14 O          -5.4687    3.5964   25.2460 O.2     1  UNL1       -0.2745
     15 C          -3.6566    3.3602   22.9925 C.3     1  UNL1        0.1066
     16 C          -5.1459    3.1819   22.9902 C.3     1  UNL1        0.0242
     17 C          -4.4353    3.9297   19.6546 C.2     1  UNL1        0.2371
     18 O          -4.0945    5.3615   19.9441 O.2     1  UNL1       -0.2737
     19 N          -3.8765    2.8367   20.5166 N.am    1  UNL1       -0.2959
     20 H          -4.1001    1.8969   20.3266 H       1  UNL1        0.1499
     21 C          -5.3348    3.5909   18.5031 C.3     1  UNL1        0.1316
     22 C          -6.8117    3.4462   18.7224 C.3     1  UNL1        0.0270
     23 C          -3.3613    3.8568   16.8345 C.3     1  UNL1        0.0862
     24 N          -4.7576    3.3969   17.1323 N.3     1  UNL1       -0.2902
     25 H          -4.7850    2.3955   16.9403 H       1  UNL1        0.1237
     26 C           0.1433    4.8397   28.0979 C.1     1  UNL1        0.1005
     27 N           0.3286    5.1541   29.5528 N.1     1  UNL1       -0.1908
     28 C           0.9826    3.6400   21.6258 C.3     1  UNL1        0.1278
     29 C           1.4779    2.4552   20.8506 C.ar    1  UNL1        0.0320
     30 C           1.4311    2.4670   19.3514 C.ar    1  UNL1        0.1363
     31 C           1.9264    1.2823   18.5762 C.ar    1  UNL1        0.0366
     32 C           2.4686    0.0857   19.3002 C.ar    1  UNL1        0.0031
     33 C           2.5154    0.0738   20.7993 C.ar    1  UNL1       -0.0001
     34 C           3.0576   -1.1228   21.5233 C.ar    1  UNL1       -0.0000
     35 C           3.1045   -1.1347   23.0226 C.ar    1  UNL1       -0.0000
     36 C           2.6092    0.0501   23.7977 C.ar    1  UNL1       -0.0000
     37 C           2.0670    1.2467   23.0738 C.ar    1  UNL1       -0.0002
     38 C           2.0201    1.2585   21.5746 C.ar    1  UNL1        0.0006
     39 O           0.8889    3.6636   18.6274 O.3     1  UNL1       -0.4717
     40 C           1.8061    4.7861   18.2416 C.3     1  UNL1        0.2525
@<TRIPOS>BOND
     1    23    24    1
     2    24    21    1
     3    21    22    1
     4    21    17    1
     5    17    18    2
     6    17    19   am
     7     1    19    1
     8     1     2    1
     9     2     3    2
    10     2     4   am
    11     4    28    1
    12    28    29    1
    13    29    30   ar
    14    30    39    1
    15    39    40    1
    16    30    31   ar
    17    31    32   ar
    18    32    33   ar
    19    33    34   ar
    20    34    35   ar
    21    35    36   ar
    22    36    37   ar
    23    37    38   ar
    24     4     5    1
    25     5     6   ar
    26     6     7   ar
    27     7     8   ar
    28     8    26    1
    29    26    27    3
    30     8     9   ar
    31     9    10   ar
    32    10    11    1
    33    11    12   am
    34    12    13    1
    35    12    14    2
    36    11    15    1
    37    15    16    1
    38    15     1    1
    39    38    29   ar
    40    10     5   ar
    41    38    33   ar
    42    24    25    1
    43    19    20    1
@<TRIPOS>MOLECULE
*****
 40 43 0 0 0
SMALL
GASTEIGER

@<TRIPOS>ATOM
      1 C           1.4677    1.7016   24.1444 C.3     1  UNL1        0.1678
      2 C           0.7820    1.7095   22.8103 C.2     1  UNL1        0.2492
      3 O           0.2521    2.2975   22.9042 O.2     1  UNL1       -0.2727
      4 N           1.0397    0.8321   21.6213 N.am    1  UNL1       -0.2517
      5 C           2.0465   -0.2698   21.4726 C.ar    1  UNL1        0.0679
      6 C           1.9736   -0.8990   20.1129 C.ar    1  UNL1        0.0169
      7 C           2.8986   -2.0248   19.7569 C.ar    1  UNL1        0.0116
      8 C           3.8965   -2.5215   20.7606 C.ar    1  UNL1        0.0698
      9 C           3.9694   -1.8924   22.1203 C.ar    1  UNL1        0.0264
     10 C           3.0444   -0.7665   22.4763 C.ar    1  UNL1        0.0682
     11 N           3.2819   -0.2839   23.8766 N.am    1  UNL1       -0.2570
     12 C           4.3643   -0.9937   24.6347 C.2     1  UNL1        0.2299
     13 C           5.1286   -2.1084   23.9840 C.3     1  UNL1        0.0952
     14 O           4.6825   -0.5887   26.0436 O.2     1  UNL1       -0.2745
     15 C           2.5803    0.8144   24.6190 C.3     1  UNL1        0.1066
     16 C           3.0537    1.0579   26.0213 C.3     1  UNL1        0.0242
     17 C          -0.0592    2.3301   26.1503 C.2     1  UNL1        0.2371
     18 O          -0.6021    0.9320   26.1751 O.2     1  UNL1       -0.2737
     19 N           0.9757    2.7149   25.1350 N.am    1  UNL1       -0.2959
     20 H           1.3321    3.6325   25.1187 H       1  UNL1        0.1499
     21 C          -0.5512    3.3434   27.1409 C.3     1  UNL1        0.1316
     22 C          -1.7737    4.1576   26.8365 C.3     1  UNL1        0.0270
     23 C           0.7122    2.3579   29.1860 C.3     1  UNL1        0.0862
     24 N           0.1793    3.5424   28.4358 N.3     1  UNL1       -0.2902
     25 H           0.9763    4.1463   28.2344 H       1  UNL1        0.1237
     26 C           4.8216   -3.6474   20.4046 C.1     1  UNL1        0.1005
     27 N           5.7466   -4.7733   20.0485 N.1     1  UNL1       -0.1908
     28 C           0.1762    1.0908   20.4223 C.3     1  UNL1        0.1278
     29 C           0.0599    2.4797   19.8675 C.ar    1  UNL1        0.0320
     30 C          -1.2149    3.2513   20.0387 C.ar    1  UNL1        0.1363
     31 C          -1.3314    4.6400   19.4839 C.ar    1  UNL1        0.0366
     32 C          -0.1728    5.2571   18.7579 C.ar    1  UNL1        0.0031
     33 C           1.1020    4.4855   18.5867 C.ar    1  UNL1       -0.0001
     34 C           2.2605    5.1027   17.8608 C.ar    1  UNL1       -0.0000
     35 C           3.5354    4.3310   17.6895 C.ar    1  UNL1       -0.0000
     36 C           3.6517    2.9423   18.2443 C.ar    1  UNL1       -0.0000
     37 C           2.4933    2.3251   18.9703 C.ar    1  UNL1       -0.0002
     38 C           1.2184    3.0968   19.1415 C.ar    1  UNL1        0.0006
     39 O          -2.3734    2.6341   20.7646 O.3     1  UNL1       -0.4717
     40 C          -3.7271    3.2774   20.7011 C.3     1  UNL1        0.2525
@<TRIPOS>BOND
     1    23    24    1
     2    24    21    1
     3    21    22    1
     4    21    17    1
     5    17    18    2
     6    17    19   am
     7     1    19    1
     8     1     2    1
     9     2     3    2
    10     2     4   am
    11     4    28    1
    12    28    29    1
    13    29    30   ar
    14    30    39    1
    15    39    40    1
    16    30    31   ar
    17    31    32   ar
    18    32    33   ar
    19    33    34   ar
    20    34    35   ar
    21    35    36   ar
    22    36    37   ar
    23    37    38   ar
    24     4     5    1
    25     5     6   ar
    26     6     7   ar
    27     7     8   ar
    28     8    26    1
    29    26    27    3
    30     8     9   ar
    31     9    10   ar
    32    10    11    1
    33    11    12   am
    34    12    13    1
    35    12    14    2
    36    11    15    1
    37    15    16    1
    38    15     1    1
    39    38    29   ar
    40    10     5   ar
    41    38    33   ar
    42    24    25    1
    43    19    20    1
@<TRIPOS>MOLECULE
*****
 40 43 0 0 0
SMALL
GASTEIGER

@<TRIPOS>ATOM
      1 C           2.4866   -0.1152   24.0494 C.3     1  UNL1        0.1678
      2 C           2.3943   -0.3955   22.5787 C.2     1  UNL1        0.2492
      3 O           2.9146   -0.9935   22.4949 O.2     1  UNL1       -0.2727
      4 N           1.5398    0.2828   21.5493 N.am    1  UNL1       -0.2517
      5 C           0.5666    1.4089   21.7362 C.ar    1  UNL1        0.0679
      6 C          -0.0839    1.7920   20.4401 C.ar    1  UNL1        0.0169
      7 C          -1.0933    2.9009   20.4065 C.ar    1  UNL1        0.0116
      8 C          -1.4523    3.6268   21.6691 C.ar    1  UNL1        0.0698
      9 C          -0.8018    3.2438   22.9653 C.ar    1  UNL1        0.0264
     10 C           0.2077    2.1348   22.9988 C.ar    1  UNL1        0.0682
     11 N           0.7332    1.9139   24.3863 N.am    1  UNL1       -0.2570
     12 C           0.1699    2.8133   25.4464 C.2     1  UNL1        0.2299
     13 C          -0.8517    3.8505   25.0850 C.3     1  UNL1        0.0952
     14 O           0.6283    2.6756   26.8681 O.2     1  UNL1       -0.2745
     15 C           1.7474    0.9125   24.8539 C.3     1  UNL1        0.1066
     16 C           2.0643    0.9430   26.3197 C.3     1  UNL1        0.0242
     17 C           4.8910   -0.5892   24.9122 C.2     1  UNL1        0.2371
     18 O           5.3786    0.6597   24.2395 O.2     1  UNL1       -0.2737
     19 N           3.4450   -0.9767   24.8171 N.am    1  UNL1       -0.2959
     20 H           3.1250   -1.7964   25.2586 H       1  UNL1        0.1499
     21 C           5.8494   -1.4507   25.6799 C.3     1  UNL1        0.1316
     22 C           7.3065   -1.4527   25.3239 C.3     1  UNL1        0.0270
     23 C           4.9319   -1.6815   28.0996 C.3     1  UNL1        0.0862
     24 N           5.3506   -2.3100   26.8036 N.3     1  UNL1       -0.2902
     25 H           4.5413   -2.8190   26.4482 H       1  UNL1        0.1237
     26 C          -2.4618    4.7359   21.6355 C.1     1  UNL1        0.1005
     27 N          -3.4712    5.8448   21.6019 N.1     1  UNL1       -0.1908
     28 C           1.6765   -0.2332   20.1475 C.3     1  UNL1        0.1278
     29 C           3.0212   -0.2522   19.4831 C.ar    1  UNL1        0.0320
     30 C           3.6962    1.0369   19.1191 C.ar    1  UNL1        0.1363
     31 C           5.0408    1.0180   18.4547 C.ar    1  UNL1        0.0366
     32 C           5.7105   -0.2902   18.1542 C.ar    1  UNL1        0.0031
     33 C           5.0355   -1.5793   18.5182 C.ar    1  UNL1       -0.0001
     34 C           5.7052   -2.8874   18.2177 C.ar    1  UNL1       -0.0000
     35 C           5.0302   -4.1767   18.5816 C.ar    1  UNL1       -0.0000
     36 C           3.6856   -4.1576   19.2460 C.ar    1  UNL1       -0.0000
     37 C           3.0158   -2.8495   19.5465 C.ar    1  UNL1       -0.0002
     38 C           3.6909   -1.5604   19.1826 C.ar    1  UNL1        0.0006
     39 O           3.0265    2.3451   19.4196 O.3     1  UNL1       -0.4717
     40 C           2.8290    3.3548   18.3280 C.3     1  UNL1        0.2525
@<TRIPOS>BOND
     1    23    24    1
     2    24    21    1
     3    21    22    1
     4    21    17    1
     5    17    18    2
     6    17    19   am
     7     1    19    1
     8     1     2    1
     9     2     3    2
    10     2     4   am
    11     4    28    1
    12    28    29    1
    13    29    30   ar
    14    30    39    1
    15    39    40    1
    16    30    31   ar
    17    31    32   ar
    18    32    33   ar
    19    33    34   ar
    20    34    35   ar
    21    35    36   ar
    22    36    37   ar
    23    37    38   ar
    24     4     5    1
    25     5     6   ar
    26     6     7   ar
    27     7     8   ar
    28     8    26    1
    29    26    27    3
    30     8     9   ar
    31     9    10   ar
    32    10    11    1
    33    11    12   am
    34    12    13    1
    35    12    14    2
    36    11    15    1
    37    15    16    1
    38    15     1    1
    39    38    29   ar
    40    10     5   ar
    41    38    33   ar
    42    24    25    1
    43    19    20    1
@<TRIPOS>MOLECULE
*****
 40 43 0 0 0
SMALL
GASTEIGER

@<TRIPOS>ATOM
      1 C           1.7918    0.3099   23.1617 C.3     1  UNL1        0.1678
      2 C           2.0892   -0.1022   21.7503 C.2     1  UNL1        0.2492
      3 O           2.5534   -0.7404   21.8625 O.2     1  UNL1       -0.2727
      4 N           1.6254    0.5332   20.4732 N.am    1  UNL1       -0.2517
      5 C           0.7497    1.7374   20.2917 C.ar    1  UNL1        0.0679
      6 C           0.5276    2.0398   18.8394 C.ar    1  UNL1        0.0169
      7 C          -0.3227    3.2085   18.4382 C.ar    1  UNL1        0.0116
      8 C          -0.9509    4.0749   19.4893 C.ar    1  UNL1        0.0698
      9 C          -0.7288    3.7726   20.9416 C.ar    1  UNL1        0.0264
     10 C           0.1214    2.6038   21.3428 C.ar    1  UNL1        0.0682
     11 N           0.2139    2.4799   22.8348 N.am    1  UNL1       -0.2570
     12 C          -0.5364    3.5136   23.6214 C.2     1  UNL1        0.2299
     13 C          -1.3132    4.5806   22.9086 C.3     1  UNL1        0.0952
     14 O          -0.5098    3.4802   25.1209 O.2     1  UNL1       -0.2745
     15 C           0.9572    1.4591   23.6444 C.3     1  UNL1        0.1066
     16 C           0.8521    1.6068   25.1333 C.3     1  UNL1        0.0242
     17 C           3.7835   -0.2178   24.7443 C.2     1  UNL1        0.2371
     18 O           4.5369    0.9533   24.1867 O.2     1  UNL1       -0.2737
     19 N           2.4110   -0.5394   24.2318 N.am    1  UNL1       -0.2959
     20 H           1.9165   -1.3080   24.5978 H       1  UNL1        0.1499
     21 C           4.4026   -1.0671   25.8145 C.3     1  UNL1        0.1316
     22 C           5.8882   -1.2730   25.8429 C.3     1  UNL1        0.0270
     23 C           2.9784   -0.8885   27.9800 C.3     1  UNL1        0.0862
     24 N           3.5362   -1.7106   26.8563 N.3     1  UNL1       -0.2902
     25 H           2.7399   -2.1182   26.3662 H       1  UNL1        0.1237
     26 C          -1.8012    5.2437   19.0880 C.1     1  UNL1        0.1005
     27 N          -2.6515    6.4124   18.6867 N.1     1  UNL1       -0.1908
     28 C           2.1001   -0.1225   19.2103 C.3     1  UNL1        0.1278
     29 C           3.5590   -0.4147   19.0195 C.ar    1  UNL1        0.0320
     30 C           4.5259    0.7097   18.7948 C.ar    1  UNL1        0.1363
     31 C           5.9847    0.4176   18.6040 C.ar    1  UNL1        0.0366
     32 C           6.4766   -0.9991   18.6380 C.ar    1  UNL1        0.0031
     33 C           5.5097   -2.1235   18.8627 C.ar    1  UNL1       -0.0001
     34 C           6.0015   -3.5401   18.8967 C.ar    1  UNL1       -0.0000
     35 C           5.0345   -4.6647   19.1214 C.ar    1  UNL1       -0.0000
     36 C           3.5757   -4.3724   19.3122 C.ar    1  UNL1       -0.0000
     37 C           3.0838   -2.9558   19.2782 C.ar    1  UNL1       -0.0002
     38 C           4.0508   -1.8314   19.0535 C.ar    1  UNL1        0.0006
     39 O           4.0341    2.1264   18.7608 O.3     1  UNL1       -0.4717
     40 C           4.2531    3.0250   19.9418 C.3     1  UNL1        0.2525
@<TRIPOS>BOND
     1    23    24    1
     2    24    21    1
     3    21    22    1
     4    21    17    1
     5    17    18    2
     6    17    19   am
     7     1    19    1
     8     1     2    1
     9     2     3    2
    10     2     4   am
    11     4    28    1
    12    28    29    1
    13    29    30   ar
    14    30    39    1
    15    39    40    1
    16    30    31   ar
    17    31    32   ar
    18    32    33   ar
    19    33    34   ar
    20    34    35   ar
    21    35    36   ar
    22    36    37   ar
    23    37    38   ar
    24     4     5    1
    25     5     6   ar
    26     6     7   ar
    27     7     8   ar
    28     8    26    1
    29    26    27    3
    30     8     9   ar
    31     9    10   ar
    32    10    11    1
    33    11    12   am
    34    12    13    1
    35    12    14    2
    36    11    15    1
    37    15    16    1
    38    15     1    1
    39    38    29   ar
    40    10     5   ar
    41    38    33   ar
    42    24    25    1
    43    19    20    1
@<TRIPOS>MOLECULE
*****
 40 43 0 0 0
SMALL
GASTEIGER

@<TRIPOS>ATOM
      1 C           3.4752   -0.6257   28.2931 C.3     1  UNL1        0.1678
      2 C           4.8162   -1.2517   28.0487 C.2     1  UNL1        0.2492
      3 O           4.7674   -1.4426   27.2764 O.2     1  UNL1       -0.2727
      4 N           5.9430   -1.4566   29.0174 N.am    1  UNL1       -0.2517
      5 C           6.0072   -1.0862   30.4696 C.ar    1  UNL1        0.0679
      6 C           7.3246   -1.4699   31.0754 C.ar    1  UNL1        0.0169
      7 C           7.5952   -1.1867   32.5233 C.ar    1  UNL1        0.0116
      8 C           6.5482   -0.5198   33.3654 C.ar    1  UNL1        0.0698
      9 C           5.2307   -0.1361   32.7596 C.ar    1  UNL1        0.0264
     10 C           4.9602   -0.4193   31.3117 C.ar    1  UNL1        0.0682
     11 N           3.5906    0.0418   30.9097 N.am    1  UNL1       -0.2570
     12 C           2.7740    0.6790   31.9946 C.2     1  UNL1        0.2299
     13 C           3.3415    0.8202   33.3759 C.3     1  UNL1        0.0952
     14 O           1.3897    1.1751   31.6981 O.2     1  UNL1       -0.2745
     15 C           2.9297   -0.0500   29.5663 C.3     1  UNL1        0.1066
     16 C           1.5395    0.5075   29.4854 C.3     1  UNL1        0.0242
     17 C           2.5847    0.6237   26.1964 C.2     1  UNL1        0.2371
     18 O           3.5280    1.7572   26.4712 O.2     1  UNL1       -0.2737
     19 N           2.5583   -0.5677   27.1073 N.am    1  UNL1       -0.2959
     20 H           1.9392   -1.3117   26.9269 H       1  UNL1        0.1499
     21 C           1.6678    0.6817   25.0107 C.3     1  UNL1        0.1316
     22 C           2.2337    0.6368   23.6222 C.3     1  UNL1        0.0270
     23 C          -0.3613    1.5756   26.3647 C.3     1  UNL1        0.0862
     24 N           0.1852    0.7846   25.2133 N.3     1  UNL1       -0.2902
     25 H          -0.2003    1.1967   24.3636 H       1  UNL1        0.1237
     26 C           6.8188   -0.2366   34.8134 C.1     1  UNL1        0.1005
     27 N           7.0893    0.0466   36.2614 N.1     1  UNL1       -0.1908
     28 C           7.1678   -2.1197   28.4603 C.3     1  UNL1        0.1278
     29 C           7.0518   -3.4394   27.7567 C.ar    1  UNL1        0.0320
     30 C           6.6997   -4.6742   28.5320 C.ar    1  UNL1        0.1363
     31 C           6.5837   -5.9940   27.8286 C.ar    1  UNL1        0.0366
     32 C           6.8199   -6.0788   26.3498 C.ar    1  UNL1        0.0031
     33 C           7.1721   -4.8440   25.5744 C.ar    1  UNL1       -0.0001
     34 C           7.4083   -4.9289   24.0956 C.ar    1  UNL1       -0.0000
     35 C           7.7605   -3.6941   23.3201 C.ar    1  UNL1       -0.0000
     36 C           7.8764   -2.3744   24.0237 C.ar    1  UNL1       -0.0000
     37 C           7.6402   -2.2894   25.5025 C.ar    1  UNL1       -0.0002
     38 C           7.2880   -3.5243   26.2779 C.ar    1  UNL1        0.0006
     39 O           6.4634   -4.5894   30.0109 O.3     1  UNL1       -0.4717
     40 C           7.1320   -5.5641   30.9345 C.3     1  UNL1        0.2525
@<TRIPOS>BOND
     1    23    24    1
     2    24    21    1
     3    21    22    1
     4    21    17    1
     5    17    18    2
     6    17    19   am
     7     1    19    1
     8     1     2    1
     9     2     3    2
    10     2     4   am
    11     4    28    1
    12    28    29    1
    13    29    30   ar
    14    30    39    1
    15    39    40    1
    16    30    31   ar
    17    31    32   ar
    18    32    33   ar
    19    33    34   ar
    20    34    35   ar
    21    35    36   ar
    22    36    37   ar
    23    37    38   ar
    24     4     5    1
    25     5     6   ar
    26     6     7   ar
    27     7     8   ar
    28     8    26    1
    29    26    27    3
    30     8     9   ar
    31     9    10   ar
    32    10    11    1
    33    11    12   am
    34    12    13    1
    35    12    14    2
    36    11    15    1
    37    15    16    1
    38    15     1    1
    39    38    29   ar
    40    10     5   ar
    41    38    33   ar
    42    24    25    1
    43    19    20    1
@<TRIPOS>MOLECULE
*****
 40 43 0 0 0
SMALL
GASTEIGER

@<TRIPOS>ATOM
      1 C           4.0052   -0.2537   33.4857 C.3     1  UNL1        0.1678
      2 C           3.1279    0.2340   32.3710 C.2     1  UNL1        0.2492
      3 O           3.2466   -0.3249   31.8153 O.2     1  UNL1       -0.2727
      4 N           2.2603    1.4570   32.3304 N.am    1  UNL1       -0.2517
      5 C           2.0557    2.4943   33.3944 C.ar    1  UNL1        0.0679
      6 C           1.0998    3.5593   32.9449 C.ar    1  UNL1        0.0169
      7 C           0.7565    4.6948   33.8629 C.ar    1  UNL1        0.0116
      8 C           1.3690    4.7654   35.2303 C.ar    1  UNL1        0.0698
      9 C           2.3249    3.7004   35.6798 C.ar    1  UNL1        0.0264
     10 C           2.6682    2.5649   34.7619 C.ar    1  UNL1        0.0682
     11 N           3.6366    1.6155   35.4030 N.am    1  UNL1       -0.2570
     12 C           4.0668    1.9670   36.7963 C.2     1  UNL1        0.2299
     13 C           3.5306    3.2019   37.4578 C.3     1  UNL1        0.0952
     14 O           5.0334    1.0836   37.5281 O.2     1  UNL1       -0.2745
     15 C           4.2317    0.3611   34.8351 C.3     1  UNL1        0.1066
     16 C           5.1782   -0.3758   35.7355 C.3     1  UNL1        0.0242
     17 C           6.1489   -1.4693   32.6630 C.2     1  UNL1        0.2371
     18 O           6.7924   -0.1439   32.3812 O.2     1  UNL1       -0.2737
     19 N           4.7554   -1.5242   33.2152 N.am    1  UNL1       -0.2959
     20 H           4.3330   -2.3940   33.4002 H       1  UNL1        0.1499
     21 C           6.8990   -2.7398   32.3926 C.3     1  UNL1        0.1316
     22 C           8.3985   -2.7315   32.3528 C.3     1  UNL1        0.0270
     23 C           6.8627   -5.2160   31.6071 C.3     1  UNL1        0.0862
     24 N           6.1497   -4.0186   32.1618 N.3     1  UNL1       -0.2902
     25 H           5.7607   -4.2985   33.0623 H       1  UNL1        0.1237
     26 C           1.0256    5.9010   36.1482 C.1     1  UNL1        0.1005
     27 N           0.6822    7.0366   37.0661 N.1     1  UNL1       -0.1908
     28 C           1.4962    1.6709   31.0575 C.3     1  UNL1        0.1278
     29 C           2.1842    1.5120   29.7340 C.ar    1  UNL1        0.0320
     30 C           1.7878    0.3976   28.8117 C.ar    1  UNL1        0.1363
     31 C           2.4757    0.2387   27.4883 C.ar    1  UNL1        0.0366
     32 C           3.5601    1.1943   27.0872 C.ar    1  UNL1        0.0031
     33 C           3.9566    2.3087   28.0096 C.ar    1  UNL1       -0.0001
     34 C           5.0410    3.2644   27.6085 C.ar    1  UNL1       -0.0000
     35 C           5.4375    4.3789   28.5309 C.ar    1  UNL1       -0.0000
     36 C           4.7495    4.5377   29.8543 C.ar    1  UNL1       -0.0000
     37 C           3.6651    3.5821   30.2554 C.ar    1  UNL1       -0.0002
     38 C           3.2686    2.4677   29.3330 C.ar    1  UNL1        0.0006
     39 O           0.7033   -0.5580   29.2127 O.3     1  UNL1       -0.4717
     40 C          -0.7169   -0.2931   28.8091 C.3     1  UNL1        0.2525
@<TRIPOS>BOND
     1    23    24    1
     2    24    21    1
     3    21    22    1
     4    21    17    1
     5    17    18    2
     6    17    19   am
     7     1    19    1
     8     1     2    1
     9     2     3    2
    10     2     4   am
    11     4    28    1
    12    28    29    1
    13    29    30   ar
    14    30    39    1
    15    39    40    1
    16    30    31   ar
    17    31    32   ar
    18    32    33   ar
    19    33    34   ar
    20    34    35   ar
    21    35    36   ar
    22    36    37   ar
    23    37    38   ar
    24     4     5    1
    25     5     6   ar
    26     6     7   ar
    27     7     8   ar
    28     8    26    1
    29    26    27    3
    30     8     9   ar
    31     9    10   ar
    32    10    11    1
    33    11    12   am
    34    12    13    1
    35    12    14    2
    36    11    15    1
    37    15    16    1
    38    15     1    1
    39    38    29   ar
    40    10     5   ar
    41    38    33   ar
    42    24    25    1
    43    19    20    1
@<TRIPOS>MOLECULE
*****
 40 43 0 0 0
SMALL
GASTEIGER

@<TRIPOS>ATOM
      1 C           1.7494    1.9221   22.8770 C.3     1  UNL1        0.1678
      2 C           2.9725    1.4849   22.1268 C.2     1  UNL1        0.2492
      3 O           2.8332    1.7845   21.4014 O.2     1  UNL1       -0.2727
      4 N           4.1427    0.6911   22.6274 N.am    1  UNL1       -0.2517
      5 C           4.3789    0.1385   24.0018 C.ar    1  UNL1        0.0679
      6 C           5.6831   -0.5982   24.0796 C.ar    1  UNL1        0.0169
      7 C           6.1116   -1.2302   25.3707 C.ar    1  UNL1        0.0116
      8 C           5.2358   -1.1255   26.5840 C.ar    1  UNL1        0.0698
      9 C           3.9315   -0.3887   26.5061 C.ar    1  UNL1        0.0264
     10 C           3.5031    0.2433   25.2151 C.ar    1  UNL1        0.0682
     11 N           2.1749    0.9264   25.3535 N.am    1  UNL1       -0.2570
     12 C           1.5437    0.8527   26.7123 C.2     1  UNL1        0.2299
     13 C           2.2415    0.1284   27.8252 C.3     1  UNL1        0.0952
     14 O           0.2146    1.5032   26.9582 O.2     1  UNL1       -0.2745
     15 C           1.3944    1.6736   24.3131 C.3     1  UNL1        0.1066
     16 C           0.0859    2.2482   24.7689 C.3     1  UNL1        0.0242
     17 C          -0.2009    2.0095   21.1628 C.2     1  UNL1        0.2371
     18 O          -0.1504    0.5162   21.0292 O.2     1  UNL1       -0.2737
     19 N           0.7490    2.7124   22.0867 N.am    1  UNL1       -0.2959
     20 H           0.7158    3.6924   22.1743 H       1  UNL1        0.1499
     21 C          -1.2013    2.7997   20.3724 C.3     1  UNL1        0.1316
     22 C          -0.7580    3.5867   19.1748 C.3     1  UNL1        0.0270
     23 C          -3.4907    4.0172   20.5338 C.3     1  UNL1        0.0862
     24 N          -2.6449    2.8031   20.7796 N.3     1  UNL1       -0.2902
     25 H          -3.0913    2.0288   20.2881 H       1  UNL1        0.1237
     26 C           5.6643   -1.7575   27.8751 C.1     1  UNL1        0.1005
     27 N           6.0929   -2.3896   29.1661 N.1     1  UNL1       -0.1908
     28 C           5.2192    0.4132   21.6204 C.3     1  UNL1        0.1278
     29 C           4.8710   -0.2193   20.3056 C.ar    1  UNL1        0.0320
     30 C           4.8282    0.6151   19.0599 C.ar    1  UNL1        0.1363
     31 C           4.4800   -0.0172   17.7451 C.ar    1  UNL1        0.0366
     32 C           4.1746   -1.4842   17.6760 C.ar    1  UNL1        0.0031
     33 C           4.2174   -2.3187   18.9216 C.ar    1  UNL1       -0.0001
     34 C           3.9121   -3.7857   18.8525 C.ar    1  UNL1       -0.0000
     35 C           3.9549   -4.6202   20.0982 C.ar    1  UNL1       -0.0000
     36 C           4.3030   -3.9877   21.4130 C.ar    1  UNL1       -0.0000
     37 C           4.6084   -2.5208   21.4822 C.ar    1  UNL1       -0.0002
     38 C           4.5656   -1.6863   20.2364 C.ar    1  UNL1        0.0006
     39 O           5.1335    2.0821   19.1290 O.3     1  UNL1       -0.4717
     40 C           4.3923    3.0448   18.2494 C.3     1  UNL1        0.2525
@<TRIPOS>BOND
     1    23    24    1
     2    24    21    1
     3    21    22    1
     4    21    17    1
     5    17    18    2
     6    17    19   am
     7     1    19    1
     8     1     2    1
     9     2     3    2
    10     2     4   am
    11     4    28    1
    12    28    29    1
    13    29    30   ar
    14    30    39    1
    15    39    40    1
    16    30    31   ar
    17    31    32   ar
    18    32    33   ar
    19    33    34   ar
    20    34    35   ar
    21    35    36   ar
    22    36    37   ar
    23    37    38   ar
    24     4     5    1
    25     5     6   ar
    26     6     7   ar
    27     7     8   ar
    28     8    26    1
    29    26    27    3
    30     8     9   ar
    31     9    10   ar
    32    10    11    1
    33    11    12   am
    34    12    13    1
    35    12    14    2
    36    11    15    1
    37    15    16    1
    38    15     1    1
    39    38    29   ar
    40    10     5   ar
    41    38    33   ar
    42    24    25    1
    43    19    20    1
