@<TRIPOS>MOLECULE
*****
 24 26 0 0 0
SMALL
GASTEIGER

@<TRIPOS>ATOM
      1 S          -7.0120  -19.4669   20.1890 S.O2    1  UNL1        0.0129
      2 O          -7.3266  -18.0471   20.5566 O.2     1  UNL1       -0.1683
      3 O          -6.6974  -20.8867   19.8215 O.2     1  UNL1       -0.1683
      4 C          -5.5907  -19.2644   20.6236 C.ar    1  UNL1        0.1066
      5 C          -5.1713  -19.6376   22.0146 C.ar    1  UNL1        0.0199
      6 C          -3.7500  -19.4350   22.4492 C.ar    1  UNL1        0.0210
      7 C          -2.7481  -18.8594   21.4928 C.ar    1  UNL1        0.0893
      8 N          -1.2879  -18.5474   21.6361 N.ar    1  UNL1       -0.2245
      9 C          -0.8048  -17.9814   20.3337 C.ar    1  UNL1        0.1567
     10 N           0.5943  -17.5321   20.0324 N.pl3   1  UNL1       -0.3375
     11 S          -1.9664  -17.9437   19.3854 S.2     1  UNL1       -0.0519
     12 C          -3.1674  -18.4862   20.1018 C.ar    1  UNL1        0.0510
     13 C          -4.5887  -18.6888   19.6672 C.ar    1  UNL1        0.0264
     14 H           1.2918  -17.5968   20.7241 H       1  UNL1        0.1442
     15 H           0.8150  -17.1726   19.1429 H       1  UNL1        0.1442
     16 C          -8.4333  -19.6694   19.7544 C.3     1  UNL1        0.1823
     17 C         -11.8093  -18.5996   22.5308 C.ar    1  UNL1        0.0684
     18 C         -11.8434  -18.1494   21.1003 C.ar    1  UNL1        0.0100
     19 C         -10.7180  -18.5060   20.1749 C.ar    1  UNL1       -0.0019
     20 C          -9.5586  -19.3128   20.6799 C.ar    1  UNL1        0.0018
     21 C          -9.5246  -19.7629   22.1103 C.ar    1  UNL1       -0.0019
     22 C         -10.6499  -19.4063   23.0358 C.ar    1  UNL1        0.0100
     23 N         -14.0599  -17.8864   24.3818 N.1     1  UNL1       -0.1908
     24 C         -12.9346  -18.2430   23.4563 C.1     1  UNL1        0.1004
@<TRIPOS>BOND
     1    23    24    3
     2    24    17    1
     3    17    18   ar
     4    18    19   ar
     5    19    20   ar
     6    20    16    1
     7    16     1    1
     8     1     2    2
     9     1     3    2
    10     1     4    1
    11     4     5   ar
    12     5     6   ar
    13     6     7   ar
    14     7     8   ar
    15     8     9   ar
    16     9    10    1
    17     9    11   ar
    18    11    12   ar
    19    12    13   ar
    20    20    21   ar
    21    21    22   ar
    22    22    17   ar
    23    13     4   ar
    24    12     7   ar
    25    10    14    1
    26    10    15    1
@<TRIPOS>MOLECULE
*****
 24 26 0 0 0
SMALL
GASTEIGER

@<TRIPOS>ATOM
      1 S          -6.6283  -19.5684   21.1901 S.O2    1  UNL1        0.0129
      2 O          -6.6932  -20.5381   22.3326 O.2     1  UNL1       -0.1683
      3 O          -6.5633  -18.5988   20.0475 O.2     1  UNL1       -0.1683
      4 C          -7.7837  -18.8076   21.7701 C.ar    1  UNL1        0.1066
      5 C          -7.6160  -17.3675   22.1547 C.ar    1  UNL1        0.0199
      6 C          -8.7714  -16.6068   22.7347 C.ar    1  UNL1        0.0210
      7 C         -10.0943  -17.2862   22.9301 C.ar    1  UNL1        0.0893
      8 N         -11.4034  -16.7964   23.4748 N.ar    1  UNL1       -0.2245
      9 C         -12.3800  -17.9339   23.4268 C.ar    1  UNL1        0.1567
     10 N         -13.8110  -17.8870   23.8745 N.pl3   1  UNL1       -0.3375
     11 S         -11.6746  -19.1266   22.8525 S.2     1  UNL1       -0.0519
     12 C         -10.2620  -18.7263   22.5455 C.ar    1  UNL1        0.0510
     13 C          -9.1066  -19.4870   21.9655 C.ar    1  UNL1        0.0264
     14 H         -14.1853  -17.0530   24.2400 H       1  UNL1        0.1442
     15 H         -14.3758  -18.6901   23.8028 H       1  UNL1        0.1442
     16 C          -5.4730  -20.3292   20.6101 C.3     1  UNL1        0.1823
     17 C          -1.4195  -18.3954   20.3287 C.ar    1  UNL1        0.0684
     18 C          -2.2381  -18.6050   19.0893 C.ar    1  UNL1        0.0100
     19 C          -3.5893  -19.2497   19.1831 C.ar    1  UNL1       -0.0019
     20 C          -4.1218  -19.6846   20.5163 C.ar    1  UNL1        0.0018
     21 C          -3.3032  -19.4749   21.7556 C.ar    1  UNL1       -0.0019
     22 C          -1.9520  -18.8303   21.6618 C.ar    1  UNL1        0.0100
     23 N           1.2829  -17.1061   20.1411 N.1     1  UNL1       -0.1908
     24 C          -0.0683  -17.7507   20.2349 C.1     1  UNL1        0.1004
@<TRIPOS>BOND
     1    23    24    3
     2    24    17    1
     3    17    18   ar
     4    18    19   ar
     5    19    20   ar
     6    20    16    1
     7    16     1    1
     8     1     2    2
     9     1     3    2
    10     1     4    1
    11     4     5   ar
    12     5     6   ar
    13     6     7   ar
    14     7     8   ar
    15     8     9   ar
    16     9    10    1
    17     9    11   ar
    18    11    12   ar
    19    12    13   ar
    20    20    21   ar
    21    21    22   ar
    22    22    17   ar
    23    13     4   ar
    24    12     7   ar
    25    10    14    1
    26    10    15    1
@<TRIPOS>MOLECULE
*****
 24 26 0 0 0
SMALL
GASTEIGER

@<TRIPOS>ATOM
      1 S          -7.4409  -20.1181   21.1146 S.O2    1  UNL1        0.0129
      2 O          -7.3883  -20.3890   22.5890 O.2     1  UNL1       -0.1683
      3 O          -7.4935  -19.8472   19.6403 O.2     1  UNL1       -0.1683
      4 C          -8.8037  -19.5121   21.2747 C.ar    1  UNL1        0.1066
      5 C          -9.4984  -18.9055   20.0918 C.ar    1  UNL1        0.0199
      6 C         -10.8612  -18.2996   20.2519 C.ar    1  UNL1        0.0210
      7 C         -11.5293  -18.3003   21.5949 C.ar    1  UNL1        0.0893
      8 N         -12.8591  -17.7805   22.0546 N.ar    1  UNL1       -0.2245
      9 C         -12.9863  -18.0659   23.5217 C.ar    1  UNL1        0.1567
     10 N         -14.1589  -17.7165   24.3896 N.pl3   1  UNL1       -0.3375
     11 S         -11.7351  -18.7621   23.9686 S.2     1  UNL1       -0.0519
     12 C         -10.8346  -18.9069   22.7778 C.ar    1  UNL1        0.0510
     13 C          -9.4718  -19.5129   22.6177 C.ar    1  UNL1        0.0264
     14 H         -14.9385  -17.2570   24.0020 H       1  UNL1        0.1442
     15 H         -14.1487  -17.9466   25.3467 H       1  UNL1        0.1442
     16 C          -6.0781  -20.7240   20.9547 C.3     1  UNL1        0.1823
     17 C          -2.4644  -18.0684   20.5828 C.ar    1  UNL1        0.0684
     18 C          -3.2294  -18.1177   21.8722 C.ar    1  UNL1        0.0100
     19 C          -4.4340  -19.0029   21.9961 C.ar    1  UNL1       -0.0019
     20 C          -4.8735  -19.8388   20.8307 C.ar    1  UNL1        0.0018
     21 C          -4.1085  -19.7895   19.5414 C.ar    1  UNL1       -0.0019
     22 C          -2.9039  -18.9043   19.4175 C.ar    1  UNL1        0.0100
     23 N          -0.0552  -16.2979   20.3349 N.1     1  UNL1       -0.1908
     24 C          -1.2598  -17.1831   20.4589 C.1     1  UNL1        0.1004
@<TRIPOS>BOND
     1    23    24    3
     2    24    17    1
     3    17    18   ar
     4    18    19   ar
     5    19    20   ar
     6    20    16    1
     7    16     1    1
     8     1     2    2
     9     1     3    2
    10     1     4    1
    11     4     5   ar
    12     5     6   ar
    13     6     7   ar
    14     7     8   ar
    15     8     9   ar
    16     9    10    1
    17     9    11   ar
    18    11    12   ar
    19    12    13   ar
    20    20    21   ar
    21    21    22   ar
    22    22    17   ar
    23    13     4   ar
    24    12     7   ar
    25    10    14    1
    26    10    15    1
@<TRIPOS>MOLECULE
*****
 24 26 0 0 0
SMALL
GASTEIGER

@<TRIPOS>ATOM
      1 S          -6.4217  -19.2798   21.9784 S.O2    1  UNL1        0.0129
      2 O          -6.2578  -17.8401   22.3661 O.2     1  UNL1       -0.1683
      3 O          -6.5856  -20.7195   21.5906 O.2     1  UNL1       -0.1683
      4 C          -5.0444  -19.2765   21.3842 C.ar    1  UNL1        0.1066
      5 C          -4.6018  -20.4124   20.5102 C.ar    1  UNL1        0.0199
      6 C          -3.2245  -20.4091   19.9161 C.ar    1  UNL1        0.0210
      7 C          -2.2898  -19.2698   20.1959 C.ar    1  UNL1        0.0893
      8 N          -0.8834  -18.9935   19.7532 N.ar    1  UNL1       -0.2245
      9 C          -0.4569  -17.6867   20.3536 C.ar    1  UNL1        0.1567
     10 N           0.8780  -17.0270   20.1721 N.pl3   1  UNL1       -0.3375
     11 S          -1.5995  -17.1555   21.1673 S.2     1  UNL1       -0.0519
     12 C          -2.7323  -18.1339   21.0699 C.ar    1  UNL1        0.0510
     13 C          -4.1096  -18.1373   21.6640 C.ar    1  UNL1        0.0264
     14 H           1.5677  -17.4562   19.6158 H       1  UNL1        0.1442
     15 H           1.0645  -16.1648   20.6093 H       1  UNL1        0.1442
     16 C          -7.7990  -19.2831   22.5725 C.3     1  UNL1        0.1823
     17 C         -11.0844  -16.8829   20.6503 C.ar    1  UNL1        0.0684
     18 C         -10.5232  -16.4596   21.9754 C.ar    1  UNL1        0.0100
     19 C          -9.4281  -17.2597   22.6162 C.ar    1  UNL1       -0.0019
     20 C          -8.8941  -18.4831   21.9318 C.ar    1  UNL1        0.0018
     21 C          -9.4553  -18.9063   20.6067 C.ar    1  UNL1       -0.0019
     22 C         -10.5505  -18.1063   19.9660 C.ar    1  UNL1        0.0100
     23 N         -13.2747  -15.2828   19.3688 N.1     1  UNL1       -0.1908
     24 C         -12.1796  -16.0829   20.0096 C.1     1  UNL1        0.1004
@<TRIPOS>BOND
     1    23    24    3
     2    24    17    1
     3    17    18   ar
     4    18    19   ar
     5    19    20   ar
     6    20    16    1
     7    16     1    1
     8     1     2    2
     9     1     3    2
    10     1     4    1
    11     4     5   ar
    12     5     6   ar
    13     6     7   ar
    14     7     8   ar
    15     8     9   ar
    16     9    10    1
    17     9    11   ar
    18    11    12   ar
    19    12    13   ar
    20    20    21   ar
    21    21    22   ar
    22    22    17   ar
    23    13     4   ar
    24    12     7   ar
    25    10    14    1
    26    10    15    1
@<TRIPOS>MOLECULE
*****
 24 26 0 0 0
SMALL
GASTEIGER

@<TRIPOS>ATOM
      1 S          -6.5796  -16.3941   23.7884 S.O2    1  UNL1        0.0129
      2 O          -6.9590  -15.4182   24.8625 O.2     1  UNL1       -0.1683
      3 O          -6.2002  -17.3699   22.7143 O.2     1  UNL1       -0.1683
      4 C          -8.0168  -16.4925   23.3702 C.ar    1  UNL1        0.1066
      5 C          -9.0261  -17.1079   24.2936 C.ar    1  UNL1        0.0199
      6 C         -10.4632  -17.2063   23.8754 C.ar    1  UNL1        0.0210
      7 C         -10.8911  -16.6894   22.5339 C.ar    1  UNL1        0.0893
      8 N         -12.2271  -16.6497   21.8530 N.ar    1  UNL1       -0.2245
      9 C         -12.0435  -16.0099   20.5088 C.ar    1  UNL1        0.1567
     10 N         -13.1202  -15.7682   19.4928 N.pl3   1  UNL1       -0.3375
     11 S         -10.5940  -15.6540   20.3590 S.2     1  UNL1       -0.0519
     12 C          -9.8818  -16.0740   21.6105 C.ar    1  UNL1        0.0510
     13 C          -8.4447  -15.9756   22.0287 C.ar    1  UNL1        0.0264
     14 H         -14.0473  -16.0387   19.6842 H       1  UNL1        0.1442
     15 H         -12.8999  -15.3391   18.6345 H       1  UNL1        0.1442
     16 C          -5.1425  -16.2956   24.2066 C.3     1  UNL1        0.1823
     17 C          -1.8932  -17.7471   21.4525 C.ar    1  UNL1        0.0684
     18 C          -2.6929  -18.7316   22.2533 C.ar    1  UNL1        0.0100
     19 C          -3.7760  -18.2478   23.1714 C.ar    1  UNL1       -0.0019
     20 C          -4.0594  -16.7794   23.2886 C.ar    1  UNL1        0.0018
     21 C          -3.2597  -15.7950   22.4878 C.ar    1  UNL1       -0.0019
     22 C          -2.1766  -16.2788   21.5697 C.ar    1  UNL1        0.0100
     23 N           0.2730  -18.7148   19.6164 N.1     1  UNL1       -0.1908
     24 C          -0.8101  -18.2309   20.5345 C.1     1  UNL1        0.1004
@<TRIPOS>BOND
     1    23    24    3
     2    24    17    1
     3    17    18   ar
     4    18    19   ar
     5    19    20   ar
     6    20    16    1
     7    16     1    1
     8     1     2    2
     9     1     3    2
    10     1     4    1
    11     4     5   ar
    12     5     6   ar
    13     6     7   ar
    14     7     8   ar
    15     8     9   ar
    16     9    10    1
    17     9    11   ar
    18    11    12   ar
    19    12    13   ar
    20    20    21   ar
    21    21    22   ar
    22    22    17   ar
    23    13     4   ar
    24    12     7   ar
    25    10    14    1
    26    10    15    1
@<TRIPOS>MOLECULE
*****
 24 26 0 0 0
SMALL
GASTEIGER

@<TRIPOS>ATOM
      1 S          -8.2096  -19.3662   20.0173 S.O2    1  UNL1        0.0129
      2 O          -8.3002  -20.5773   19.1369 O.2     1  UNL1       -0.1683
      3 O          -8.1190  -18.1552   20.8977 O.2     1  UNL1       -0.1683
      4 C          -6.7541  -19.6443   20.2500 C.ar    1  UNL1        0.1066
      5 C          -6.1354  -20.9008   19.7130 C.ar    1  UNL1        0.0199
      6 C          -4.6799  -21.1789   19.9457 C.ar    1  UNL1        0.0210
      7 C          -3.8431  -20.2004   20.7153 C.ar    1  UNL1        0.0893
      8 N          -2.3931  -20.2041   21.0997 N.ar    1  UNL1       -0.2245
      9 C          -2.1157  -18.9499   21.8742 C.ar    1  UNL1        0.1567
     10 N          -0.7922  -18.5455   22.4529 N.pl3   1  UNL1       -0.3375
     11 S          -3.3942  -18.1710   21.9685 S.2     1  UNL1       -0.0519
     12 C          -4.4617  -18.9439   21.2523 C.ar    1  UNL1        0.0510
     13 C          -5.9172  -18.6659   21.0196 C.ar    1  UNL1        0.0264
     14 H          -0.0062  -19.1269   22.3376 H       1  UNL1        0.1442
     15 H          -0.7096  -17.6985   22.9480 H       1  UNL1        0.1442
     16 C          -9.6651  -19.0882   19.7847 C.3     1  UNL1        0.1823
     17 C         -12.4640  -18.6734   23.2838 C.ar    1  UNL1        0.0684
     18 C         -11.2492  -19.5464   23.3945 C.ar    1  UNL1        0.0100
     19 C         -10.3162  -19.6846   22.2281 C.ar    1  UNL1       -0.0019
     20 C         -10.5981  -18.9499   20.9511 C.ar    1  UNL1        0.0018
     21 C         -11.8129  -18.0771   20.8404 C.ar    1  UNL1       -0.0019
     22 C         -12.7459  -17.9388   22.0068 C.ar    1  UNL1        0.0100
     23 N         -14.3300  -18.3969   25.6166 N.1     1  UNL1       -0.1908
     24 C         -13.3970  -18.5352   24.4502 C.1     1  UNL1        0.1004
@<TRIPOS>BOND
     1    23    24    3
     2    24    17    1
     3    17    18   ar
     4    18    19   ar
     5    19    20   ar
     6    20    16    1
     7    16     1    1
     8     1     2    2
     9     1     3    2
    10     1     4    1
    11     4     5   ar
    12     5     6   ar
    13     6     7   ar
    14     7     8   ar
    15     8     9   ar
    16     9    10    1
    17     9    11   ar
    18    11    12   ar
    19    12    13   ar
    20    20    21   ar
    21    21    22   ar
    22    22    17   ar
    23    13     4   ar
    24    12     7   ar
    25    10    14    1
    26    10    15    1
@<TRIPOS>MOLECULE
*****
 24 26 0 0 0
SMALL
GASTEIGER

@<TRIPOS>ATOM
      1 S          -6.2318  -19.7449   21.9094 S.O2    1  UNL1        0.0129
      2 O          -6.9266  -18.7210   22.7573 O.2     1  UNL1       -0.1683
      3 O          -5.5369  -20.7687   21.0616 O.2     1  UNL1       -0.1683
      4 C          -5.0044  -18.8832   21.8748 C.ar    1  UNL1        0.1066
      5 C          -4.8181  -17.8018   22.8975 C.ar    1  UNL1        0.0199
      6 C          -3.5908  -16.9402   22.8629 C.ar    1  UNL1        0.0210
      7 C          -2.5497  -17.1600   21.8055 C.ar    1  UNL1        0.0893
      8 N          -1.2465  -16.4733   21.5220 N.ar    1  UNL1       -0.2245
      9 C          -0.6274  -17.1303   20.3241 C.ar    1  UNL1        0.1567
     10 N           0.6823  -16.7598   19.6936 N.pl3   1  UNL1       -0.3375
     11 S          -1.5480  -18.2230   19.8673 S.2     1  UNL1       -0.0519
     12 C          -2.7360  -18.2413   20.7829 C.ar    1  UNL1        0.0510
     13 C          -3.9633  -19.1029   20.8175 C.ar    1  UNL1        0.0264
     14 H           1.2180  -16.0235   20.0680 H       1  UNL1        0.1442
     15 H           1.0061  -17.2528   18.9054 H       1  UNL1        0.1442
     16 C          -7.4591  -20.6065   21.9440 C.3     1  UNL1        0.1823
     17 C         -11.3875  -18.8735   23.2910 C.ar    1  UNL1        0.0684
     18 C         -10.5905  -19.7381   24.2223 C.ar    1  UNL1        0.0100
     19 C          -9.2810  -20.3157   23.7733 C.ar    1  UNL1       -0.0019
     20 C          -8.7686  -20.0288   22.3930 C.ar    1  UNL1        0.0018
     21 C          -9.5656  -19.1642   21.4618 C.ar    1  UNL1       -0.0019
     22 C         -10.8751  -18.5866   21.9108 C.ar    1  UNL1        0.0100
     23 N         -14.0064  -17.7182   24.1890 N.1     1  UNL1       -0.1908
     24 C         -12.6970  -18.2958   23.7400 C.1     1  UNL1        0.1004
@<TRIPOS>BOND
     1    23    24    3
     2    24    17    1
     3    17    18   ar
     4    18    19   ar
     5    19    20   ar
     6    20    16    1
     7    16     1    1
     8     1     2    2
     9     1     3    2
    10     1     4    1
    11     4     5   ar
    12     5     6   ar
    13     6     7   ar
    14     7     8   ar
    15     8     9   ar
    16     9    10    1
    17     9    11   ar
    18    11    12   ar
    19    12    13   ar
    20    20    21   ar
    21    21    22   ar
    22    22    17   ar
    23    13     4   ar
    24    12     7   ar
    25    10    14    1
    26    10    15    1
@<TRIPOS>MOLECULE
*****
 24 26 0 0 0
SMALL
GASTEIGER

@<TRIPOS>ATOM
      1 S          -9.0882  -19.3536   20.4173 S.O2    1  UNL1        0.0129
      2 O          -9.5549  -18.6165   19.1972 O.2     1  UNL1       -0.1683
      3 O          -8.6215  -20.0906   21.6375 O.2     1  UNL1       -0.1683
      4 C         -10.2979  -18.8789   21.1667 C.ar    1  UNL1        0.1066
      5 C         -11.2762  -17.9552   20.5037 C.ar    1  UNL1        0.0199
      6 C         -12.4858  -17.4806   21.2531 C.ar    1  UNL1        0.0210
      7 C         -12.7170  -17.9297   22.6655 C.ar    1  UNL1        0.0893
      8 N         -13.8106  -17.6301   23.6476 N.ar    1  UNL1       -0.2245
      9 C         -13.5080  -18.3687   24.9176 C.ar    1  UNL1        0.1567
     10 N         -14.3399  -18.3540   26.1658 N.pl3   1  UNL1       -0.3375
     11 S         -12.2275  -19.1247   24.7204 S.2     1  UNL1       -0.0519
     12 C         -11.7387  -18.8533   23.3285 C.ar    1  UNL1        0.0510
     13 C         -10.5291  -19.3279   22.5791 C.ar    1  UNL1        0.0264
     14 H         -15.1690  -17.8241   26.1986 H       1  UNL1        0.1442
     15 H         -14.0567  -18.8741   26.9523 H       1  UNL1        0.1442
     16 C          -7.8786  -19.8282   19.6680 C.3     1  UNL1        0.1823
     17 C          -3.7689  -19.1611   21.3752 C.ar    1  UNL1        0.0684
     18 C          -3.9550  -20.0833   20.2069 C.ar    1  UNL1        0.0100
     19 C          -5.3250  -20.3057   19.6378 C.ar    1  UNL1       -0.0019
     20 C          -6.5087  -19.6058   20.2370 C.ar    1  UNL1        0.0018
     21 C          -6.3225  -18.6836   21.4053 C.ar    1  UNL1       -0.0019
     22 C          -4.9526  -18.4613   21.9744 C.ar    1  UNL1        0.0100
     23 N          -1.0290  -18.7163   22.5134 N.1     1  UNL1       -0.1908
     24 C          -2.3990  -18.9387   21.9443 C.1     1  UNL1        0.1004
@<TRIPOS>BOND
     1    23    24    3
     2    24    17    1
     3    17    18   ar
     4    18    19   ar
     5    19    20   ar
     6    20    16    1
     7    16     1    1
     8     1     2    2
     9     1     3    2
    10     1     4    1
    11     4     5   ar
    12     5     6   ar
    13     6     7   ar
    14     7     8   ar
    15     8     9   ar
    16     9    10    1
    17     9    11   ar
    18    11    12   ar
    19    12    13   ar
    20    20    21   ar
    21    21    22   ar
    22    22    17   ar
    23    13     4   ar
    24    12     7   ar
    25    10    14    1
    26    10    15    1
@<TRIPOS>MOLECULE
*****
 24 26 0 0 0
SMALL
GASTEIGER

@<TRIPOS>ATOM
      1 S         -12.3435   -6.2189   17.7004 S.O2    1  UNL1        0.0129
      2 O         -11.6517   -6.2753   19.0301 O.2     1  UNL1       -0.1683
      3 O         -13.0352   -6.1625   16.3706 O.2     1  UNL1       -0.1683
      4 C         -11.7696   -4.8540   17.4598 C.ar    1  UNL1        0.1066
      5 C         -10.3265   -4.7036   17.0793 C.ar    1  UNL1        0.0199
      6 C          -9.7526   -3.3388   16.8387 C.ar    1  UNL1        0.0210
      7 C         -10.6219   -2.1244   16.9786 C.ar    1  UNL1        0.0893
      8 N         -10.3381   -0.6616   16.8057 N.ar    1  UNL1       -0.2245
      9 C         -11.6058    0.0920   17.0793 C.ar    1  UNL1        0.1567
     10 N         -11.7764    1.5812   17.0212 N.pl3   1  UNL1       -0.3375
     11 S         -12.6731   -0.9050   17.4213 S.2     1  UNL1       -0.0519
     12 C         -12.0650   -2.2748   17.3591 C.ar    1  UNL1        0.0510
     13 C         -12.6388   -3.6396   17.5996 C.ar    1  UNL1        0.0264
     14 H         -11.0121    2.1554   16.7858 H       1  UNL1        0.1442
     15 H         -12.6527    1.9844   17.2183 H       1  UNL1        0.1442
     16 C         -12.9173   -7.5837   17.9410 C.3     1  UNL1        0.1823
     17 C         -17.0481   -8.0142   19.6736 C.ar    1  UNL1        0.0684
     18 C         -16.3991   -6.6634   19.6084 C.ar    1  UNL1        0.0100
     19 C         -15.0222   -6.5198   19.0309 C.ar    1  UNL1       -0.0019
     20 C         -14.2942   -7.7272   18.5185 C.ar    1  UNL1        0.0018
     21 C         -14.9432   -9.0779   18.5837 C.ar    1  UNL1       -0.0019
     22 C         -16.3201   -9.2215   19.1612 C.ar    1  UNL1        0.0100
     23 N         -19.8019   -8.3013   20.8286 N.1     1  UNL1       -0.1908
     24 C         -18.4250   -8.1577   20.2511 C.1     1  UNL1        0.1004
@<TRIPOS>BOND
     1    23    24    3
     2    24    17    1
     3    17    18   ar
     4    18    19   ar
     5    19    20   ar
     6    20    16    1
     7    16     1    1
     8     1     2    2
     9     1     3    2
    10     1     4    1
    11     4     5   ar
    12     5     6   ar
    13     6     7   ar
    14     7     8   ar
    15     8     9   ar
    16     9    10    1
    17     9    11   ar
    18    11    12   ar
    19    12    13   ar
    20    20    21   ar
    21    21    22   ar
    22    22    17   ar
    23    13     4   ar
    24    12     7   ar
    25    10    14    1
    26    10    15    1
