@<TRIPOS>MOLECULE
*****
 21 23 0 0 0
SMALL
GASTEIGER

@<TRIPOS>ATOM
      1 O          -6.9877  -18.6323   22.3377 O.2     1  UNL1       -0.2520
      2 C          -6.9466  -17.2894   23.0047 C.2     1  UNL1        0.3111
      3 N          -5.7394  -16.6484   23.6225 N.am    1  UNL1       -0.2606
      4 C          -6.1522  -15.3145   24.1706 C.3     1  UNL1        0.1169
      5 C          -7.6145  -15.1312   23.8916 C.3     1  UNL1        0.1212
      6 N          -8.1055  -16.3517   23.1710 N.am    1  UNL1       -0.2413
      7 C          -9.5090  -16.5924   22.6996 C.ar    1  UNL1        0.0562
      8 C         -10.4713  -17.3509   23.5649 C.ar    1  UNL1        0.0150
      9 C         -11.8748  -17.5916   23.0935 C.ar    1  UNL1        0.0021
     10 C         -12.3161  -17.0736   21.7566 C.ar    1  UNL1        0.0115
     11 C         -11.3539  -16.3151   20.8913 C.ar    1  UNL1        0.0589
     12 CL        -11.7952  -15.7972   19.5545 Cl      1  UNL1       -0.0822
     13 C          -9.9503  -16.0745   21.3628 C.ar    1  UNL1        0.0263
     14 C          -4.3613  -17.2378   23.6817 C.3     1  UNL1        0.1106
     15 C          -3.5694  -17.4216   22.4211 C.3     1  UNL1        0.0741
     16 C          -2.3986  -16.5291   22.1339 C.3     1  UNL1        0.0175
     17 C          -1.6067  -16.7130   20.8734 C.3     1  UNL1        0.0029
     18 C          -1.9857  -17.7895   19.8999 C.3     1  UNL1        0.0171
     19 C          -3.1565  -18.6820   20.1870 C.3     1  UNL1        0.0686
     20 N          -3.9483  -18.4981   21.4476 N.3     1  UNL1       -0.2972
     21 H          -3.9045  -19.3822   21.9545 H       1  UNL1        0.1233
@<TRIPOS>BOND
     1     1     2    2
     2     2     3   am
     3     3    14    1
     4    14    15    1
     5    15    16    1
     6    16    17    1
     7    17    18    1
     8    18    19    1
     9    19    20    1
    10     3     4    1
    11     4     5    1
    12     5     6    1
    13     6     7    1
    14     7     8   ar
    15     8     9   ar
    16     9    10   ar
    17    10    11   ar
    18    11    12    1
    19    11    13   ar
    20     6     2   am
    21    13     7   ar
    22    20    15    1
    23    20    21    1
@<TRIPOS>MOLECULE
*****
 21 23 0 0 0
SMALL
GASTEIGER

@<TRIPOS>ATOM
      1 O          -8.5435  -19.7606   19.5524 O.2     1  UNL1       -0.2520
      2 C          -7.8935  -19.0947   20.7288 C.2     1  UNL1        0.3111
      3 N          -6.4311  -19.1234   21.0611 N.am    1  UNL1       -0.2606
      4 C          -6.2255  -18.3296   22.3172 C.3     1  UNL1        0.1169
      5 C          -7.5609  -17.8105   22.7612 C.3     1  UNL1        0.1212
      6 N          -8.5918  -18.2833   21.7795 N.am    1  UNL1       -0.2413
      7 C         -10.0628  -17.9953   21.8382 C.ar    1  UNL1        0.0562
      8 C         -10.7542  -17.3800   20.6578 C.ar    1  UNL1        0.0150
      9 C         -12.2252  -17.0920   20.7164 C.ar    1  UNL1        0.0021
     10 C         -13.0046  -17.4193   21.9556 C.ar    1  UNL1        0.0115
     11 C         -12.3132  -18.0346   23.1359 C.ar    1  UNL1        0.0589
     12 CL        -13.0926  -18.3620   24.3750 Cl      1  UNL1       -0.0822
     13 C         -10.8422  -18.3226   23.0772 C.ar    1  UNL1        0.0263
     14 C          -5.3619  -19.8229   20.2753 C.3     1  UNL1        0.1106
     15 C          -4.0472  -19.1442   20.0282 C.3     1  UNL1        0.0741
     16 C          -2.8200  -19.5961   20.7628 C.3     1  UNL1        0.0175
     17 C          -1.5055  -18.9174   20.5156 C.3     1  UNL1        0.0029
     18 C          -1.4181  -17.7867   19.5338 C.3     1  UNL1        0.0171
     19 C          -2.6453  -17.3348   18.7992 C.3     1  UNL1        0.0686
     20 N          -3.9598  -18.0135   19.0464 N.3     1  UNL1       -0.2972
     21 H          -4.2763  -18.3785   18.1480 H       1  UNL1        0.1233
@<TRIPOS>BOND
     1     1     2    2
     2     2     3   am
     3     3    14    1
     4    14    15    1
     5    15    16    1
     6    16    17    1
     7    17    18    1
     8    18    19    1
     9    19    20    1
    10     3     4    1
    11     4     5    1
    12     5     6    1
    13     6     7    1
    14     7     8   ar
    15     8     9   ar
    16     9    10   ar
    17    10    11   ar
    18    11    12    1
    19    11    13   ar
    20     6     2   am
    21    13     7   ar
    22    20    15    1
    23    20    21    1
@<TRIPOS>MOLECULE
*****
 21 23 0 0 0
SMALL
GASTEIGER

@<TRIPOS>ATOM
      1 O          -7.2755  -17.1419   21.5973 O.2     1  UNL1       -0.2520
      2 C          -7.5910  -16.6128   22.9649 C.2     1  UNL1        0.3111
      3 N          -6.5910  -16.1643   23.9891 N.am    1  UNL1       -0.2606
      4 C          -7.3439  -15.7136   25.2057 C.3     1  UNL1        0.1169
      5 C          -8.8092  -15.8834   24.9334 C.3     1  UNL1        0.1212
      6 N          -8.9618  -16.4392   23.5485 N.am    1  UNL1       -0.2413
      7 C         -10.2579  -16.7643   22.8668 C.ar    1  UNL1        0.0562
      8 C         -11.2374  -17.6927   23.5215 C.ar    1  UNL1        0.0150
      9 C         -12.5334  -18.0179   22.8400 C.ar    1  UNL1        0.0021
     10 C         -12.8500  -17.4145   21.5036 C.ar    1  UNL1        0.0115
     11 C         -11.8705  -16.4861   20.8489 C.ar    1  UNL1        0.0589
     12 CL        -12.1870  -15.8827   19.5126 Cl      1  UNL1       -0.0822
     13 C         -10.5744  -16.1610   21.5305 C.ar    1  UNL1        0.0263
     14 C          -5.1000  -16.1663   23.8255 C.3     1  UNL1        0.1106
     15 C          -4.4222  -17.3156   23.1401 C.3     1  UNL1        0.0741
     16 C          -2.9716  -17.2189   22.7710 C.3     1  UNL1        0.0175
     17 C          -2.2938  -18.3681   22.0856 C.3     1  UNL1        0.0029
     18 C          -3.0667  -19.6142   21.7693 C.3     1  UNL1        0.0171
     19 C          -4.5174  -19.7109   22.1383 C.3     1  UNL1        0.0686
     20 N          -5.1951  -18.5616   22.8237 N.3     1  UNL1       -0.2972
     21 H          -5.5550  -18.9176   23.7092 H       1  UNL1        0.1233
@<TRIPOS>BOND
     1     1     2    2
     2     2     3   am
     3     3    14    1
     4    14    15    1
     5    15    16    1
     6    16    17    1
     7    17    18    1
     8    18    19    1
     9    19    20    1
    10     3     4    1
    11     4     5    1
    12     5     6    1
    13     6     7    1
    14     7     8   ar
    15     8     9   ar
    16     9    10   ar
    17    10    11   ar
    18    11    12    1
    19    11    13   ar
    20     6     2   am
    21    13     7   ar
    22    20    15    1
    23    20    21    1
@<TRIPOS>MOLECULE
*****
 21 23 0 0 0
SMALL
GASTEIGER

@<TRIPOS>ATOM
      1 O          -7.3425  -17.3645   23.3463 O.2     1  UNL1       -0.2520
      2 C          -7.2023  -18.3167   22.1958 C.2     1  UNL1        0.3111
      3 N          -5.9538  -19.0513   21.8065 N.am    1  UNL1       -0.2606
      4 C          -6.2659  -19.8901   20.6027 C.3     1  UNL1        0.1169
      5 C          -7.7073  -19.6739   20.2480 C.3     1  UNL1        0.1212
      6 N          -8.2860  -18.7015   21.2327 N.am    1  UNL1       -0.2413
      7 C          -9.7001  -18.2016   21.2510 C.ar    1  UNL1        0.0562
      8 C         -10.2583  -17.4862   20.0565 C.ar    1  UNL1        0.0150
      9 C         -11.6724  -16.9863   20.0747 C.ar    1  UNL1        0.0021
     10 C         -12.5284  -17.2017   21.2876 C.ar    1  UNL1        0.0115
     11 C         -11.9703  -17.9171   22.4820 C.ar    1  UNL1        0.0589
     12 CL        -12.8263  -18.1326   23.6948 Cl      1  UNL1       -0.0822
     13 C         -10.5562  -18.4170   22.4637 C.ar    1  UNL1        0.0263
     14 C          -4.6264  -18.9627   22.4992 C.3     1  UNL1        0.1106
     15 C          -3.4457  -18.3741   21.7854 C.3     1  UNL1        0.0741
     16 C          -2.6680  -19.2063   20.8094 C.3     1  UNL1        0.0175
     17 C          -1.4874  -18.6176   20.0956 C.3     1  UNL1        0.0029
     18 C          -1.0843  -17.1968   20.3580 C.3     1  UNL1        0.0171
     19 C          -1.8620  -16.3646   21.3340 C.3     1  UNL1        0.0686
     20 N          -3.0426  -16.9533   22.0477 N.3     1  UNL1       -0.2972
     21 H          -3.8474  -16.3712   21.8153 H       1  UNL1        0.1233
@<TRIPOS>BOND
     1     1     2    2
     2     2     3   am
     3     3    14    1
     4    14    15    1
     5    15    16    1
     6    16    17    1
     7    17    18    1
     8    18    19    1
     9    19    20    1
    10     3     4    1
    11     4     5    1
    12     5     6    1
    13     6     7    1
    14     7     8   ar
    15     8     9   ar
    16     9    10   ar
    17    10    11   ar
    18    11    12    1
    19    11    13   ar
    20     6     2   am
    21    13     7   ar
    22    20    15    1
    23    20    21    1
@<TRIPOS>MOLECULE
*****
 21 23 0 0 0
SMALL
GASTEIGER

@<TRIPOS>ATOM
      1 O          -7.8173  -18.6313   22.6356 O.2     1  UNL1       -0.2520
      2 C          -7.1821  -17.4238   23.2588 C.2     1  UNL1        0.3111
      3 N          -7.8989  -16.3331   23.9982 N.am    1  UNL1       -0.2606
      4 C          -6.8784  -15.3302   24.4485 C.3     1  UNL1        0.1169
      5 C          -5.5309  -15.8010   23.9874 C.3     1  UNL1        0.1212
      6 N          -5.7186  -17.0950   23.2522 N.am    1  UNL1       -0.2413
      7 C          -4.6334  -17.9159   22.6211 C.ar    1  UNL1        0.0562
      8 C          -3.2014  -17.6889   23.0056 C.ar    1  UNL1        0.0150
      9 C          -2.1161  -18.5098   22.3746 C.ar    1  UNL1        0.0021
     10 C          -2.4628  -19.5578   21.3588 C.ar    1  UNL1        0.0115
     11 C          -3.8948  -19.7848   20.9743 C.ar    1  UNL1        0.0589
     12 CL         -4.2415  -20.8327   19.9586 Cl      1  UNL1       -0.0822
     13 C          -4.9801  -18.9638   21.6054 C.ar    1  UNL1        0.0263
     14 C          -9.3767  -16.2585   24.2441 C.3     1  UNL1        0.1106
     15 C         -10.3380  -16.5424   23.1281 C.3     1  UNL1        0.0741
     16 C         -11.4186  -17.5665   23.3114 C.3     1  UNL1        0.0175
     17 C         -12.3798  -17.8504   22.1954 C.3     1  UNL1        0.0029
     18 C         -12.2605  -17.1102   20.8962 C.3     1  UNL1        0.0171
     19 C         -11.1799  -16.0862   20.7130 C.3     1  UNL1        0.0686
     20 N         -10.2186  -15.8023   21.8289 N.3     1  UNL1       -0.2972
     21 H         -10.3051  -14.8095   22.0466 H       1  UNL1        0.1233
@<TRIPOS>BOND
     1     1     2    2
     2     2     3   am
     3     3    14    1
     4    14    15    1
     5    15    16    1
     6    16    17    1
     7    17    18    1
     8    18    19    1
     9    19    20    1
    10     3     4    1
    11     4     5    1
    12     5     6    1
    13     6     7    1
    14     7     8   ar
    15     8     9   ar
    16     9    10   ar
    17    10    11   ar
    18    11    12    1
    19    11    13   ar
    20     6     2   am
    21    13     7   ar
    22    20    15    1
    23    20    21    1
@<TRIPOS>MOLECULE
*****
 21 23 0 0 0
SMALL
GASTEIGER

@<TRIPOS>ATOM
      1 O          -7.0822  -19.5098   21.7620 O.2     1  UNL1       -0.2520
      2 C          -7.0385  -18.1806   22.4556 C.2     1  UNL1        0.3111
      3 N          -5.8211  -17.5345   23.0476 N.am    1  UNL1       -0.2606
      4 C          -6.2348  -16.2186   23.6369 C.3     1  UNL1        0.1169
      5 C          -7.7080  -16.0514   23.4091 C.3     1  UNL1        0.1212
      6 N          -8.2047  -17.2640   22.6790 N.am    1  UNL1       -0.2413
      7 C          -9.6192  -17.5157   22.2480 C.ar    1  UNL1        0.0562
      8 C          -9.9501  -17.6284   20.7893 C.ar    1  UNL1        0.0150
      9 C         -11.3646  -17.8801   20.3583 C.ar    1  UNL1        0.0021
     10 C         -12.4483  -18.0191   21.3861 C.ar    1  UNL1        0.0115
     11 C         -12.1175  -17.9064   22.8448 C.ar    1  UNL1        0.0589
     12 CL        -13.2012  -18.0454   23.8725 Cl      1  UNL1       -0.0822
     13 C         -10.7029  -17.6547   23.2758 C.ar    1  UNL1        0.0263
     14 C          -4.4336  -18.1044   23.0499 C.3     1  UNL1        0.1106
     15 C          -3.6301  -18.1274   21.7833 C.3     1  UNL1        0.0741
     16 C          -2.2857  -17.4641   21.7359 C.3     1  UNL1        0.0175
     17 C          -1.4823  -17.4872   20.4694 C.3     1  UNL1        0.0029
     18 C          -2.0234  -18.1736   19.2504 C.3     1  UNL1        0.0171
     19 C          -3.3679  -18.8369   19.2978 C.3     1  UNL1        0.0686
     20 N          -4.1713  -18.8138   20.5643 N.3     1  UNL1       -0.2972
     21 H          -4.3396  -19.7858   20.8240 H       1  UNL1        0.1233
@<TRIPOS>BOND
     1     1     2    2
     2     2     3   am
     3     3    14    1
     4    14    15    1
     5    15    16    1
     6    16    17    1
     7    17    18    1
     8    18    19    1
     9    19    20    1
    10     3     4    1
    11     4     5    1
    12     5     6    1
    13     6     7    1
    14     7     8   ar
    15     8     9   ar
    16     9    10   ar
    17    10    11   ar
    18    11    12    1
    19    11    13   ar
    20     6     2   am
    21    13     7   ar
    22    20    15    1
    23    20    21    1
@<TRIPOS>MOLECULE
*****
 21 23 0 0 0
SMALL
GASTEIGER

@<TRIPOS>ATOM
      1 O          -8.1298  -17.3999   21.9759 O.2     1  UNL1       -0.2520
      2 C          -8.2953  -18.4261   20.8945 C.2     1  UNL1        0.3111
      3 N          -9.5817  -18.7913   20.2149 N.am    1  UNL1       -0.2606
      4 C          -9.2848  -19.8583   19.2032 C.3     1  UNL1        0.1169
      5 C          -7.8150  -20.1525   19.2575 C.3     1  UNL1        0.1212
      6 N          -7.2034  -19.2673   20.3027 N.am    1  UNL1       -0.2413
      7 C          -5.7543  -19.2299   20.6885 C.ar    1  UNL1        0.0562
      8 C          -5.3468  -19.5216   22.1023 C.ar    1  UNL1        0.0150
      9 C          -3.8978  -19.4842   22.4882 C.ar    1  UNL1        0.0021
     10 C          -2.8562  -19.1552   21.4601 C.ar    1  UNL1        0.0115
     11 C          -3.2637  -18.8636   20.0463 C.ar    1  UNL1        0.0589
     12 CL         -2.2221  -18.5346   19.0183 Cl      1  UNL1       -0.0822
     13 C          -4.7128  -18.9009   19.6605 C.ar    1  UNL1        0.0263
     14 C         -10.9285  -18.1944   20.4975 C.3     1  UNL1        0.1106
     15 C         -11.5218  -18.2987   21.8713 C.3     1  UNL1        0.0741
     16 C         -12.8849  -17.7353   22.1443 C.3     1  UNL1        0.0175
     17 C         -13.4781  -17.8396   23.5180 C.3     1  UNL1        0.0029
     18 C         -12.7083  -18.5072   24.6187 C.3     1  UNL1        0.0171
     19 C         -11.3452  -19.0705   24.3457 C.3     1  UNL1        0.0686
     20 N         -10.7519  -18.9663   22.9720 N.3     1  UNL1       -0.2972
     21 H         -10.5597  -19.9186   22.6613 H       1  UNL1        0.1233
@<TRIPOS>BOND
     1     1     2    2
     2     2     3   am
     3     3    14    1
     4    14    15    1
     5    15    16    1
     6    16    17    1
     7    17    18    1
     8    18    19    1
     9    19    20    1
    10     3     4    1
    11     4     5    1
    12     5     6    1
    13     6     7    1
    14     7     8   ar
    15     8     9   ar
    16     9    10   ar
    17    10    11   ar
    18    11    12    1
    19    11    13   ar
    20     6     2   am
    21    13     7   ar
    22    20    15    1
    23    20    21    1
@<TRIPOS>MOLECULE
*****
 21 23 0 0 0
SMALL
GASTEIGER

@<TRIPOS>ATOM
      1 O          -7.1706  -16.3178   22.7928 O.2     1  UNL1       -0.2520
      2 C          -7.1273  -17.7843   22.4810 C.2     1  UNL1        0.3111
      3 N          -5.9034  -18.6515   22.4877 N.am    1  UNL1       -0.2606
      4 C          -6.3201  -20.0444   22.1186 C.3     1  UNL1        0.1169
      5 C          -7.8016  -20.0381   21.8837 C.3     1  UNL1        0.1212
      6 N          -8.3005  -18.6413   22.1077 N.am    1  UNL1       -0.2413
      7 C          -9.7228  -18.1821   21.9807 C.ar    1  UNL1        0.0562
      8 C         -10.7501  -18.6392   22.9735 C.ar    1  UNL1        0.0150
      9 C         -12.1724  -18.1801   22.8465 C.ar    1  UNL1        0.0021
     10 C         -12.5675  -17.2637   21.7266 C.ar    1  UNL1        0.0115
     11 C         -11.5402  -16.8065   20.7338 C.ar    1  UNL1        0.0589
     12 CL        -11.9353  -15.8901   19.6139 Cl      1  UNL1       -0.0822
     13 C         -10.1179  -17.2657   20.8608 C.ar    1  UNL1        0.0263
     14 C          -4.5078  -18.2043   22.8075 C.3     1  UNL1        0.1106
     15 C          -3.5262  -17.9600   21.6998 C.3     1  UNL1        0.0741
     16 C          -2.3406  -17.0706   21.9310 C.3     1  UNL1        0.0175
     17 C          -1.3591  -16.8264   20.8234 C.3     1  UNL1        0.0029
     18 C          -1.5631  -17.4715   19.4846 C.3     1  UNL1        0.0171
     19 C          -2.7486  -18.3608   19.2535 C.3     1  UNL1        0.0686
     20 N          -3.7302  -18.6051   20.3611 N.3     1  UNL1       -0.2972
     21 H          -3.7505  -19.6125   20.5197 H       1  UNL1        0.1233
@<TRIPOS>BOND
     1     1     2    2
     2     2     3   am
     3     3    14    1
     4    14    15    1
     5    15    16    1
     6    16    17    1
     7    17    18    1
     8    18    19    1
     9    19    20    1
    10     3     4    1
    11     4     5    1
    12     5     6    1
    13     6     7    1
    14     7     8   ar
    15     8     9   ar
    16     9    10   ar
    17    10    11   ar
    18    11    12    1
    19    11    13   ar
    20     6     2   am
    21    13     7   ar
    22    20    15    1
    23    20    21    1
@<TRIPOS>MOLECULE
*****
 21 23 0 0 0
SMALL
GASTEIGER

@<TRIPOS>ATOM
      1 O          -6.6139  -16.4790   22.9618 O.2     1  UNL1       -0.2520
      2 C          -6.8697  -17.9304   22.6827 C.2     1  UNL1        0.3111
      3 N          -8.1725  -18.6487   22.8737 N.am    1  UNL1       -0.2606
      4 C          -7.9755  -20.0806   22.4726 C.3     1  UNL1        0.1169
      5 C          -6.5509  -20.2473   22.0336 C.3     1  UNL1        0.1212
      6 N          -5.8675  -18.9183   22.1635 N.am    1  UNL1       -0.2413
      7 C          -4.4335  -18.6282   21.8322 C.ar    1  UNL1        0.0562
      8 C          -3.4694  -18.2691   22.9238 C.ar    1  UNL1        0.0150
      9 C          -2.0355  -17.9790   22.5926 C.ar    1  UNL1        0.0021
     10 C          -1.5657  -18.0481   21.1697 C.ar    1  UNL1        0.0115
     11 C          -2.5298  -18.4072   20.0781 C.ar    1  UNL1        0.0589
     12 CL         -2.0599  -18.4762   18.6553 Cl      1  UNL1       -0.0822
     13 C          -3.9637  -18.6972   20.4094 C.ar    1  UNL1        0.0263
     14 C          -9.4484  -18.0418   23.3775 C.3     1  UNL1        0.1106
     15 C         -10.4482  -17.4850   22.4077 C.3     1  UNL1        0.0741
     16 C         -11.8826  -17.9182   22.4777 C.3     1  UNL1        0.0175
     17 C         -12.8823  -17.3615   21.5080 C.3     1  UNL1        0.0029
     18 C         -12.4477  -16.3716   20.4681 C.3     1  UNL1        0.0171
     19 C         -11.0134  -15.9384   20.3981 C.3     1  UNL1        0.0686
     20 N         -10.0136  -16.4951   21.3679 N.3     1  UNL1       -0.2972
     21 H          -9.6134  -15.7006   21.8668 H       1  UNL1        0.1233
@<TRIPOS>BOND
     1     1     2    2
     2     2     3   am
     3     3    14    1
     4    14    15    1
     5    15    16    1
     6    16    17    1
     7    17    18    1
     8    18    19    1
     9    19    20    1
    10     3     4    1
    11     4     5    1
    12     5     6    1
    13     6     7    1
    14     7     8   ar
    15     8     9   ar
    16     9    10   ar
    17    10    11   ar
    18    11    12    1
    19    11    13   ar
    20     6     2   am
    21    13     7   ar
    22    20    15    1
    23    20    21    1
