@<TRIPOS>MOLECULE
*****
 39 44 0 0 0
SMALL
GASTEIGER

@<TRIPOS>ATOM
      1 C          -7.5492  -19.8817   20.4643 C.3     1  UNL1        0.0745
      2 C          -8.6740  -19.4070   19.5928 C.3     1  UNL1        0.0356
      3 C          -9.0802  -20.2065   18.3905 C.3     1  UNL1        0.0594
      4 C          -9.1375  -21.2790   17.3434 C.3     1  UNL1        0.0174
      5 C          -8.0732  -22.2889   17.6555 C.3     1  UNL1        0.0174
      6 C          -7.3580  -21.8405   18.8955 C.3     1  UNL1        0.0594
      7 C          -6.8306  -21.1560   20.1334 C.3     1  UNL1        0.0356
      8 N          -7.9804  -20.5535   19.3497 N.3     1  UNL1       -0.2715
      9 O          -9.0740  -17.4063   21.2043 O.2     1  UNL1       -0.2701
     10 C          -7.9055  -17.8444   22.0367 C.2     1  UNL1        0.2463
     11 N          -7.1431  -19.0821   21.6667 N.am    1  UNL1       -0.3024
     12 H          -6.3762  -19.3696   22.2130 H       1  UNL1        0.1497
     13 C          -7.4995  -17.0447   23.2390 C.ar    1  UNL1        0.0699
     14 C          -6.2719  -16.1843   23.1878 C.ar    1  UNL1        0.0818
     15 C          -5.8658  -15.3846   24.3902 C.ar    1  UNL1        0.3019
     16 N          -6.6874  -15.4454   25.6438 N.ar    1  UNL1       -0.1518
     17 O          -6.2813  -14.6458   26.8461 O.co2   1  UNL1       -0.6187
     18 C          -7.9150  -16.3059   25.6949 C.ar    1  UNL1        0.3063
     19 C          -8.3210  -17.1055   24.4925 C.ar    1  UNL1        0.1289
     20 C          -9.5486  -17.9660   24.5437 C.2     1  UNL1        0.2552
     21 O          -9.1655  -19.1866   25.3269 O.2     1  UNL1       -0.2697
     22 N         -10.8123  -17.5102   23.8763 N.am    1  UNL1       -0.2759
     23 C         -10.8484  -16.1940   23.1579 C.3     1  UNL1        0.0937
     24 C         -12.1122  -15.7381   22.4905 C.3     1  UNL1        0.0216
     25 C         -13.3398  -16.5986   22.5417 C.3     1  UNL1        0.0035
     26 C         -13.3036  -17.9149   23.2602 C.3     1  UNL1        0.0216
     27 C         -12.0399  -18.3706   23.9275 C.3     1  UNL1        0.0937
     28 C          -7.5742  -19.7539   20.5521 C.3     1  UNL1        0.0991
     29 C          -6.1251  -19.4569   20.8007 C.ar    1  UNL1       -0.0061
     30 C          -5.5193  -19.7476   22.1418 C.ar    1  UNL1       -0.0029
     31 C          -4.0702  -19.4506   22.3903 C.ar    1  UNL1       -0.0002
     32 C          -3.2269  -18.8628   21.2979 C.ar    1  UNL1        0.0022
     33 C          -1.7777  -18.5658   21.5466 C.ar    1  UNL1        0.0296
     34 C          -0.9344  -17.9780   20.4541 C.ar    1  UNL1        0.1401
     35 F           0.5146  -17.6810   20.7027 F       1  UNL1       -0.2042
     36 C          -1.5403  -17.6873   19.1130 C.ar    1  UNL1        0.0296
     37 C          -2.9894  -17.9844   18.8644 C.ar    1  UNL1        0.0023
     38 C          -3.8327  -18.5721   19.9569 C.ar    1  UNL1       -0.0001
     39 C          -5.2818  -18.8692   19.7083 C.ar    1  UNL1       -0.0029
@<TRIPOS>UNITY_ATOM_ATTR
16 1
charge 1
17 1
charge -1
@<TRIPOS>BOND
     1     9    10    2
     2    10    11   am
     3     1    11    1
     4     1     2    1
     5     3     2    1
     6     3     4    1
     7     4     5    1
     8     6     5    1
     9     6     7    1
    10     6     8    1
    11     8    28    1
    12    28    29    1
    13    29    30   ar
    14    30    31   ar
    15    31    32   ar
    16    32    33   ar
    17    33    34   ar
    18    34    35    1
    19    34    36   ar
    20    36    37   ar
    21    37    38   ar
    22    38    39   ar
    23    10    13    1
    24    13    14   ar
    25    14    15   ar
    26    15    16   ar
    27    16    17    1
    28    16    18   ar
    29    18    19   ar
    30    19    20    1
    31    20    21    2
    32    20    22   am
    33    22    23    1
    34    23    24    1
    35    24    25    1
    36    25    26    1
    37    26    27    1
    38     7     1    1
    39    39    29   ar
    40    19    13   ar
    41    27    22    1
    42     8     3    1
    43    38    32   ar
    44    11    12    1
@<TRIPOS>MOLECULE
*****
 39 44 0 0 0
SMALL
GASTEIGER

@<TRIPOS>ATOM
      1 C          -8.2098  -19.6755   20.0506 C.3     1  UNL1        0.0745
      2 C          -7.4740  -20.9540   19.7789 C.3     1  UNL1        0.0356
      3 C          -7.8442  -21.7950   18.5933 C.3     1  UNL1        0.0594
      4 C          -8.5248  -22.2886   17.3511 C.3     1  UNL1        0.0174
      5 C          -9.5883  -21.2978   16.9804 C.3     1  UNL1        0.0174
      6 C          -9.5648  -20.1918   17.9934 C.3     1  UNL1        0.0594
      7 C          -9.3159  -19.2379   19.1368 C.3     1  UNL1        0.0356
      8 N          -8.4869  -20.4991   18.9903 N.3     1  UNL1       -0.2715
      9 O          -5.5340  -18.3230   20.1535 O.2     1  UNL1       -0.2701
     10 C          -6.5017  -18.1583   21.2877 C.2     1  UNL1        0.2463
     11 N          -7.8396  -18.8345   21.2363 N.am    1  UNL1       -0.3024
     12 H          -8.4748  -18.7264   21.9807 H       1  UNL1        0.1497
     13 C          -6.1314  -17.3173   22.4733 C.ar    1  UNL1        0.0699
     14 C          -7.0907  -16.2868   22.9908 C.ar    1  UNL1        0.0818
     15 C          -6.7204  -15.4458   24.1764 C.ar    1  UNL1        0.3019
     16 N          -5.3909  -15.6354   24.8446 N.ar    1  UNL1       -0.1518
     17 O          -5.0206  -14.7945   26.0302 O.co2   1  UNL1       -0.6187
     18 C          -4.4316  -16.6660   24.3271 C.ar    1  UNL1        0.3063
     19 C          -4.8019  -17.5070   23.1415 C.ar    1  UNL1        0.1289
     20 C          -3.8427  -18.5375   22.6240 C.2     1  UNL1        0.2552
     21 O          -4.3534  -19.8603   23.1133 O.2     1  UNL1       -0.2697
     22 N          -2.6648  -18.1169   21.7959 N.am    1  UNL1       -0.2759
     23 C          -2.4462  -16.6658   21.4853 C.3     1  UNL1        0.0937
     24 C          -1.2682  -16.2452   20.6572 C.3     1  UNL1        0.0216
     25 C          -0.3090  -17.2758   20.1397 C.3     1  UNL1        0.0035
     26 C          -0.5277  -18.7269   20.4503 C.3     1  UNL1        0.0216
     27 C          -1.7055  -19.1475   21.2784 C.3     1  UNL1        0.0937
     28 C          -8.1167  -19.6581   20.1759 C.3     1  UNL1        0.0991
     29 C          -9.0652  -19.5314   21.3310 C.ar    1  UNL1       -0.0061
     30 C          -8.7267  -20.1573   22.6515 C.ar    1  UNL1       -0.0029
     31 C          -9.6752  -20.0306   23.8066 C.ar    1  UNL1       -0.0002
     32 C         -10.9622  -19.2780   23.6412 C.ar    1  UNL1        0.0022
     33 C         -11.9107  -19.1513   24.7964 C.ar    1  UNL1        0.0296
     34 C         -13.1977  -18.3988   24.6310 C.ar    1  UNL1        0.1401
     35 F         -14.1461  -18.2721   25.7861 F       1  UNL1       -0.2042
     36 C         -13.5362  -17.7729   23.3105 C.ar    1  UNL1        0.0296
     37 C         -12.5877  -17.8996   22.1554 C.ar    1  UNL1        0.0023
     38 C         -11.3007  -18.6522   22.3208 C.ar    1  UNL1       -0.0001
     39 C         -10.3522  -18.7789   21.1657 C.ar    1  UNL1       -0.0029
@<TRIPOS>UNITY_ATOM_ATTR
16 1
charge 1
17 1
charge -1
@<TRIPOS>BOND
     1     9    10    2
     2    10    11   am
     3     1    11    1
     4     1     2    1
     5     3     2    1
     6     3     4    1
     7     4     5    1
     8     6     5    1
     9     6     7    1
    10     6     8    1
    11     8    28    1
    12    28    29    1
    13    29    30   ar
    14    30    31   ar
    15    31    32   ar
    16    32    33   ar
    17    33    34   ar
    18    34    35    1
    19    34    36   ar
    20    36    37   ar
    21    37    38   ar
    22    38    39   ar
    23    10    13    1
    24    13    14   ar
    25    14    15   ar
    26    15    16   ar
    27    16    17    1
    28    16    18   ar
    29    18    19   ar
    30    19    20    1
    31    20    21    2
    32    20    22   am
    33    22    23    1
    34    23    24    1
    35    24    25    1
    36    25    26    1
    37    26    27    1
    38     7     1    1
    39    39    29   ar
    40    19    13   ar
    41    27    22    1
    42     8     3    1
    43    38    32   ar
    44    11    12    1
@<TRIPOS>MOLECULE
*****
 39 44 0 0 0
SMALL
GASTEIGER

@<TRIPOS>ATOM
      1 C          -7.0899  -16.5305   23.4992 C.3     1  UNL1        0.0745
      2 C          -5.6412  -16.1433   23.5334 C.3     1  UNL1        0.0356
      3 C          -5.0768  -15.4562   24.7415 C.3     1  UNL1        0.0594
      4 C          -4.9564  -14.8182   26.0937 C.3     1  UNL1        0.0174
      5 C          -6.3035  -14.8686   26.7516 C.3     1  UNL1        0.0174
      6 C          -7.2565  -15.5377   25.8060 C.3     1  UNL1        0.0594
      7 C          -7.9744  -16.2306   24.6730 C.3     1  UNL1        0.0356
      8 N          -6.4984  -15.9008   24.5636 N.3     1  UNL1       -0.2715
      9 O          -6.1074  -19.2586   22.7296 O.2     1  UNL1       -0.2701
     10 C          -7.1630  -18.5817   21.9063 C.2     1  UNL1        0.2463
     11 N          -7.6542  -17.2177   22.2911 N.am    1  UNL1       -0.3024
     12 H          -8.3470  -16.7734   21.7508 H       1  UNL1        0.1497
     13 C          -7.7272  -19.2689   20.6983 C.ar    1  UNL1        0.0699
     14 C          -9.0942  -18.9056   20.1989 C.ar    1  UNL1        0.0818
     15 C          -9.6585  -19.5928   18.9908 C.ar    1  UNL1        0.3019
     16 N          -8.8557  -20.6433   18.2822 N.ar    1  UNL1       -0.1518
     17 O          -9.4200  -21.3305   17.0741 O.co2   1  UNL1       -0.6187
     18 C          -7.4888  -21.0066   18.7816 C.ar    1  UNL1        0.3063
     19 C          -6.9245  -20.3193   19.9897 C.ar    1  UNL1        0.1289
     20 C          -5.5575  -20.6826   20.4891 C.2     1  UNL1        0.2552
     21 O          -5.7258  -21.9547   21.2659 O.2     1  UNL1       -0.2697
     22 N          -4.3831  -19.8083   20.1630 N.am    1  UNL1       -0.2759
     23 C          -4.5756  -18.5708   19.3375 C.3     1  UNL1        0.0937
     24 C          -3.4011  -17.6965   19.0114 C.3     1  UNL1        0.0216
     25 C          -2.0342  -18.0597   19.5108 C.3     1  UNL1        0.0035
     26 C          -1.8417  -19.2973   20.3364 C.3     1  UNL1        0.0216
     27 C          -3.0161  -20.1715   20.6624 C.3     1  UNL1        0.0937
     28 C          -7.0627  -16.5880   23.3556 C.3     1  UNL1        0.0991
     29 C          -8.5469  -16.7488   23.2092 C.ar    1  UNL1       -0.0061
     30 C          -9.2880  -15.9595   22.1711 C.ar    1  UNL1       -0.0029
     31 C         -10.7721  -16.1204   22.0247 C.ar    1  UNL1       -0.0002
     32 C         -11.5151  -17.0706   22.9163 C.ar    1  UNL1        0.0022
     33 C         -12.9993  -17.2314   22.7699 C.ar    1  UNL1        0.0296
     34 C         -13.7423  -18.1816   23.6615 C.ar    1  UNL1        0.1401
     35 F         -15.2264  -18.3425   23.5151 F       1  UNL1       -0.2042
     36 C         -13.0011  -18.9710   24.6996 C.ar    1  UNL1        0.0296
     37 C         -11.5170  -18.8101   24.8461 C.ar    1  UNL1        0.0023
     38 C         -10.7740  -17.8599   23.9544 C.ar    1  UNL1       -0.0001
     39 C          -9.2899  -17.6990   24.1008 C.ar    1  UNL1       -0.0029
@<TRIPOS>UNITY_ATOM_ATTR
16 1
charge 1
17 1
charge -1
@<TRIPOS>BOND
     1     9    10    2
     2    10    11   am
     3     1    11    1
     4     1     2    1
     5     3     2    1
     6     3     4    1
     7     4     5    1
     8     6     5    1
     9     6     7    1
    10     6     8    1
    11     8    28    1
    12    28    29    1
    13    29    30   ar
    14    30    31   ar
    15    31    32   ar
    16    32    33   ar
    17    33    34   ar
    18    34    35    1
    19    34    36   ar
    20    36    37   ar
    21    37    38   ar
    22    38    39   ar
    23    10    13    1
    24    13    14   ar
    25    14    15   ar
    26    15    16   ar
    27    16    17    1
    28    16    18   ar
    29    18    19   ar
    30    19    20    1
    31    20    21    2
    32    20    22   am
    33    22    23    1
    34    23    24    1
    35    24    25    1
    36    25    26    1
    37    26    27    1
    38     7     1    1
    39    39    29   ar
    40    19    13   ar
    41    27    22    1
    42     8     3    1
    43    38    32   ar
    44    11    12    1
@<TRIPOS>MOLECULE
*****
 39 44 0 0 0
SMALL
GASTEIGER

@<TRIPOS>ATOM
      1 C           6.4161   -2.6762   21.0281 C.3     1  UNL1        0.0745
      2 C           7.5928   -2.6945   20.0979 C.3     1  UNL1        0.0356
      3 C           8.7025   -3.6808   20.3116 C.3     1  UNL1        0.0594
      4 C           9.5360   -4.7883   20.8848 C.3     1  UNL1        0.0174
      5 C           8.8180   -5.3367   22.0822 C.3     1  UNL1        0.0174
      6 C           7.5407   -4.5681   22.2490 C.3     1  UNL1        0.0594
      7 C           6.3492   -3.6443   22.1719 C.3     1  UNL1        0.0356
      8 N           7.4693   -3.5447   21.1547 N.3     1  UNL1       -0.2715
      9 O           4.2846   -3.2343   18.9921 O.2     1  UNL1       -0.2701
     10 C           4.2406   -1.9689   19.7964 C.2     1  UNL1        0.2463
     11 N           5.3064   -1.6898   20.8144 N.am    1  UNL1       -0.3024
     12 H           5.2776   -0.8593   21.3422 H       1  UNL1        0.1497
     13 C           3.1310   -0.9826   19.5826 C.ar    1  UNL1        0.0699
     14 C           1.9748   -0.9359   20.5371 C.ar    1  UNL1        0.0818
     15 C           0.8651    0.0504   20.3234 C.ar    1  UNL1        0.3019
     16 N           0.9115    0.9901   19.1551 N.ar    1  UNL1       -0.1518
     17 O          -0.1981    1.9765   18.9414 O.co2   1  UNL1       -0.6187
     18 C           2.0677    0.9435   18.2006 C.ar    1  UNL1        0.3063
     19 C           3.1775   -0.0429   18.4144 C.ar    1  UNL1        0.1289
     20 C           4.3336   -0.0895   17.4599 C.2     1  UNL1        0.2552
     21 O           3.9104   -0.9954   16.3418 O.2     1  UNL1       -0.2697
     22 N           5.5802    0.6917   17.7531 N.am    1  UNL1       -0.2759
     23 C           5.6705    1.5196   19.0006 C.3     1  UNL1        0.0937
     24 C           6.9170    2.3008   19.2938 C.3     1  UNL1        0.0216
     25 C           8.0732    2.2542   18.3393 C.3     1  UNL1        0.0035
     26 C           7.9829    1.4263   17.0916 C.3     1  UNL1        0.0216
     27 C           6.7364    0.6451   16.7986 C.3     1  UNL1        0.0937
     28 C           6.3596   -2.5584   20.9411 C.3     1  UNL1        0.0991
     29 C           6.0716   -1.5165   21.9811 C.ar    1  UNL1       -0.0061
     30 C           6.9069   -0.2724   22.0478 C.ar    1  UNL1       -0.0029
     31 C           6.6188    0.7694   23.0878 C.ar    1  UNL1       -0.0002
     32 C           5.4955    0.5671   24.0611 C.ar    1  UNL1        0.0022
     33 C           5.2075    1.6090   25.1012 C.ar    1  UNL1        0.0296
     34 C           4.0842    1.4066   26.0744 C.ar    1  UNL1        0.1401
     35 F           3.7961    2.4484   27.1144 F       1  UNL1       -0.2042
     36 C           3.2489    0.1625   26.0076 C.ar    1  UNL1        0.0296
     37 C           3.5369   -0.8793   24.9676 C.ar    1  UNL1        0.0023
     38 C           4.6602   -0.6770   23.9944 C.ar    1  UNL1       -0.0001
     39 C           4.9483   -1.7188   22.9544 C.ar    1  UNL1       -0.0029
@<TRIPOS>UNITY_ATOM_ATTR
16 1
charge 1
17 1
charge -1
@<TRIPOS>BOND
     1     9    10    2
     2    10    11   am
     3     1    11    1
     4     1     2    1
     5     3     2    1
     6     3     4    1
     7     4     5    1
     8     6     5    1
     9     6     7    1
    10     6     8    1
    11     8    28    1
    12    28    29    1
    13    29    30   ar
    14    30    31   ar
    15    31    32   ar
    16    32    33   ar
    17    33    34   ar
    18    34    35    1
    19    34    36   ar
    20    36    37   ar
    21    37    38   ar
    22    38    39   ar
    23    10    13    1
    24    13    14   ar
    25    14    15   ar
    26    15    16   ar
    27    16    17    1
    28    16    18   ar
    29    18    19   ar
    30    19    20    1
    31    20    21    2
    32    20    22   am
    33    22    23    1
    34    23    24    1
    35    24    25    1
    36    25    26    1
    37    26    27    1
    38     7     1    1
    39    39    29   ar
    40    19    13   ar
    41    27    22    1
    42     8     3    1
    43    38    32   ar
    44    11    12    1
@<TRIPOS>MOLECULE
*****
 39 44 0 0 0
SMALL
GASTEIGER

@<TRIPOS>ATOM
      1 C         -14.7588   -1.8392   18.3807 C.3     1  UNL1        0.0745
      2 C         -14.8722   -0.8211   17.2850 C.3     1  UNL1        0.0356
      3 C         -15.6907    0.4182   17.4945 C.3     1  UNL1        0.0594
      4 C         -16.5749    1.4548   18.1221 C.3     1  UNL1        0.0174
      5 C         -16.9167    0.9946   19.5083 C.3     1  UNL1        0.0174
      6 C         -16.2437   -0.3262   19.7374 C.3     1  UNL1        0.0594
      7 C         -15.4641   -1.6180   19.6859 C.3     1  UNL1        0.0356
      8 N         -15.4861   -0.6825   18.4928 N.3     1  UNL1       -0.2715
      9 O         -12.0490   -2.0785   19.6454 O.2     1  UNL1       -0.2701
     10 C         -12.5853   -3.1982   18.8035 C.2     1  UNL1        0.2463
     11 N         -13.9402   -3.0786   18.1711 N.am    1  UNL1       -0.3024
     12 H         -14.2922   -3.8134   17.6186 H       1  UNL1        0.1497
     13 C         -11.7666   -4.4375   18.5940 C.ar    1  UNL1        0.0699
     14 C         -10.4171   -4.3443   17.9459 C.ar    1  UNL1        0.0818
     15 C          -9.5984   -5.5836   17.7364 C.ar    1  UNL1        0.3019
     16 N         -10.1293   -6.9162   18.1750 N.ar    1  UNL1       -0.1518
     17 O          -9.3107   -8.1555   17.9655 O.co2   1  UNL1       -0.6187
     18 C         -11.4789   -7.0095   18.8231 C.ar    1  UNL1        0.3063
     19 C         -12.2975   -5.7701   19.0326 C.ar    1  UNL1        0.1289
     20 C         -13.6471   -5.8633   19.6807 C.2     1  UNL1        0.2552
     21 O         -13.7432   -4.6871   20.6066 O.2     1  UNL1       -0.2697
     22 N         -14.5703   -6.9929   19.3315 N.am    1  UNL1       -0.2759
     23 C         -14.1440   -8.0290   18.3343 C.3     1  UNL1        0.0937
     24 C         -15.0673   -9.1586   17.9851 C.3     1  UNL1        0.0216
     25 C         -16.4168   -9.2518   18.6332 C.3     1  UNL1        0.0035
     26 C         -16.8431   -8.2156   19.6305 C.3     1  UNL1        0.0216
     27 C         -15.9199   -7.0861   19.9796 C.3     1  UNL1        0.0937
     28 C         -14.6675   -1.9218   18.2833 C.3     1  UNL1        0.0991
     29 C         -15.3068   -3.1567   17.7208 C.ar    1  UNL1       -0.0061
     30 C         -14.6102   -3.9394   16.6474 C.ar    1  UNL1       -0.0029
     31 C         -15.2495   -5.1742   16.0850 C.ar    1  UNL1       -0.0002
     32 C         -16.5853   -5.6265   16.5960 C.ar    1  UNL1        0.0022
     33 C         -17.2246   -6.8614   16.0335 C.ar    1  UNL1        0.0296
     34 C         -18.5604   -7.3136   16.5445 C.ar    1  UNL1        0.1401
     35 F         -19.1997   -8.5485   15.9820 F       1  UNL1       -0.2042
     36 C         -19.2569   -6.5309   17.6179 C.ar    1  UNL1        0.0296
     37 C         -18.6177   -5.2960   18.1804 C.ar    1  UNL1        0.0023
     38 C         -17.2818   -4.8438   17.6694 C.ar    1  UNL1       -0.0001
     39 C         -16.6426   -3.6089   18.2318 C.ar    1  UNL1       -0.0029
@<TRIPOS>UNITY_ATOM_ATTR
16 1
charge 1
17 1
charge -1
@<TRIPOS>BOND
     1     9    10    2
     2    10    11   am
     3     1    11    1
     4     1     2    1
     5     3     2    1
     6     3     4    1
     7     4     5    1
     8     6     5    1
     9     6     7    1
    10     6     8    1
    11     8    28    1
    12    28    29    1
    13    29    30   ar
    14    30    31   ar
    15    31    32   ar
    16    32    33   ar
    17    33    34   ar
    18    34    35    1
    19    34    36   ar
    20    36    37   ar
    21    37    38   ar
    22    38    39   ar
    23    10    13    1
    24    13    14   ar
    25    14    15   ar
    26    15    16   ar
    27    16    17    1
    28    16    18   ar
    29    18    19   ar
    30    19    20    1
    31    20    21    2
    32    20    22   am
    33    22    23    1
    34    23    24    1
    35    24    25    1
    36    25    26    1
    37    26    27    1
    38     7     1    1
    39    39    29   ar
    40    19    13   ar
    41    27    22    1
    42     8     3    1
    43    38    32   ar
    44    11    12    1
@<TRIPOS>MOLECULE
*****
 39 44 0 0 0
SMALL
GASTEIGER

@<TRIPOS>ATOM
      1 C           0.7636    1.6090   23.3467 C.3     1  UNL1        0.0745
      2 C           0.0934    2.8886   22.9425 C.3     1  UNL1        0.0356
      3 C          -0.8854    3.5477   23.8685 C.3     1  UNL1        0.0594
      4 C          -1.7518    3.8355   25.0587 C.3     1  UNL1        0.0174
      5 C          -1.5429    2.7384   26.0602 C.3     1  UNL1        0.0174
      6 C          -0.5475    1.7726   25.4889 C.3     1  UNL1        0.0594
      7 C           0.4551    0.9885   24.6770 C.3     1  UNL1        0.0356
      8 N          -0.1411    2.2728   24.1344 N.3     1  UNL1       -0.2715
      9 O          -0.2139    0.2109   20.8790 O.2     1  UNL1       -0.2701
     10 C           1.2537    0.2509   21.1868 C.2     1  UNL1        0.2463
     11 N           1.7425    0.9500   22.4206 N.am    1  UNL1       -0.3024
     12 H           2.7057    0.9762   22.6226 H       1  UNL1        0.1497
     13 C           2.2324   -0.4082   20.2607 C.ar    1  UNL1        0.0699
     14 C           2.9021   -1.6882   20.6645 C.ar    1  UNL1        0.0818
     15 C           3.8808   -2.3472   19.7385 C.ar    1  UNL1        0.3019
     16 N           4.1899   -1.7263   18.4084 N.ar    1  UNL1       -0.1518
     17 O           5.1687   -2.3853   17.4823 O.co2   1  UNL1       -0.6187
     18 C           3.5203   -0.4463   18.0045 C.ar    1  UNL1        0.3063
     19 C           2.5415    0.2128   18.9307 C.ar    1  UNL1        0.1289
     20 C           1.8718    1.4928   18.5269 C.2     1  UNL1        0.2552
     21 O           0.5899    1.0952   17.8570 O.2     1  UNL1       -0.2697
     22 N           2.5256    2.8088   18.8282 N.am    1  UNL1       -0.2759
     23 C           3.8490    2.8448   19.5333 C.3     1  UNL1        0.0937
     24 C           4.5028    4.1608   19.8346 C.3     1  UNL1        0.0216
     25 C           3.8331    5.4408   19.4308 C.3     1  UNL1        0.0035
     26 C           2.5096    5.4048   18.7256 C.3     1  UNL1        0.0216
     27 C           1.8559    4.0888   18.4243 C.3     1  UNL1        0.0937
     28 C           0.8377    1.6137   23.2083 C.3     1  UNL1        0.0991
     29 C           2.2359    1.3312   23.6724 C.ar    1  UNL1       -0.0061
     30 C           3.2809    2.4049   23.6016 C.ar    1  UNL1       -0.0029
     31 C           4.6791    2.1223   24.0656 C.ar    1  UNL1       -0.0002
     32 C           5.0321    0.7661   24.6004 C.ar    1  UNL1        0.0022
     33 C           6.4304    0.4836   25.0644 C.ar    1  UNL1        0.0296
     34 C           6.7835   -0.8726   25.5993 C.ar    1  UNL1        0.1401
     35 F           8.1816   -1.1551   26.0633 F       1  UNL1       -0.2042
     36 C           5.7383   -1.9463   25.6701 C.ar    1  UNL1        0.0296
     37 C           4.3402   -1.6637   25.2061 C.ar    1  UNL1        0.0023
     38 C           3.9871   -0.3075   24.6712 C.ar    1  UNL1       -0.0001
     39 C           2.5890   -0.0250   24.2072 C.ar    1  UNL1       -0.0029
@<TRIPOS>UNITY_ATOM_ATTR
16 1
charge 1
17 1
charge -1
@<TRIPOS>BOND
     1     9    10    2
     2    10    11   am
     3     1    11    1
     4     1     2    1
     5     3     2    1
     6     3     4    1
     7     4     5    1
     8     6     5    1
     9     6     7    1
    10     6     8    1
    11     8    28    1
    12    28    29    1
    13    29    30   ar
    14    30    31   ar
    15    31    32   ar
    16    32    33   ar
    17    33    34   ar
    18    34    35    1
    19    34    36   ar
    20    36    37   ar
    21    37    38   ar
    22    38    39   ar
    23    10    13    1
    24    13    14   ar
    25    14    15   ar
    26    15    16   ar
    27    16    17    1
    28    16    18   ar
    29    18    19   ar
    30    19    20    1
    31    20    21    2
    32    20    22   am
    33    22    23    1
    34    23    24    1
    35    24    25    1
    36    25    26    1
    37    26    27    1
    38     7     1    1
    39    39    29   ar
    40    19    13   ar
    41    27    22    1
    42     8     3    1
    43    38    32   ar
    44    11    12    1
@<TRIPOS>MOLECULE
*****
 39 44 0 0 0
SMALL
GASTEIGER

@<TRIPOS>ATOM
      1 C          -2.2060    3.5255   20.5916 C.3     1  UNL1        0.0745
      2 C          -1.7713    4.0670   19.2621 C.3     1  UNL1        0.0356
      3 C          -2.7762    4.2568   18.1647 C.3     1  UNL1        0.0594
      4 C          -4.0662    4.2778   17.3996 C.3     1  UNL1        0.0174
      5 C          -5.1483    3.7620   18.3013 C.3     1  UNL1        0.0174
      6 C          -4.5270    3.4221   19.6236 C.3     1  UNL1        0.0594
      7 C          -3.6455    3.1736   20.8238 C.3     1  UNL1        0.0356
      8 N          -3.0609    3.7279   19.5392 N.3     1  UNL1       -0.2715
      9 O          -0.4181    1.1165   20.5882 O.2     1  UNL1       -0.2701
     10 C          -0.3072    2.1312   21.6874 C.2     1  UNL1        0.2463
     11 N          -1.2011    3.3357   21.6891 N.am    1  UNL1       -0.3024
     12 H          -1.1283    4.0018   22.4104 H       1  UNL1        0.1497
     13 C           0.6977    1.9415   22.7847 C.ar    1  UNL1        0.0699
     14 C           0.2357    1.7021   24.1915 C.ar    1  UNL1        0.0818
     15 C           1.2406    1.5123   25.2889 C.ar    1  UNL1        0.3019
     16 N           2.7075    1.5620   24.9794 N.ar    1  UNL1       -0.1518
     17 O           3.7124    1.3722   26.0767 O.co2   1  UNL1       -0.6187
     18 C           3.1695    1.8014   23.5725 C.ar    1  UNL1        0.3063
     19 C           2.1646    1.9912   22.4752 C.ar    1  UNL1        0.1289
     20 C           2.6265    2.2306   21.0683 C.2     1  UNL1        0.2552
     21 O           2.6462    3.7195   20.8874 O.2     1  UNL1       -0.2697
     22 N           2.9545    1.0683   20.1785 N.am    1  UNL1       -0.2759
     23 C           2.8205   -0.3333   20.6957 C.3     1  UNL1        0.0937
     24 C           3.1484   -1.4956   19.8059 C.3     1  UNL1        0.0216
     25 C           3.6104   -1.2562   18.3990 C.3     1  UNL1        0.0035
     26 C           3.7444    0.1455   17.8819 C.3     1  UNL1        0.0216
     27 C           3.4165    1.3077   18.7717 C.3     1  UNL1        0.0937
     28 C          -2.0561    3.5382   20.6366 C.3     1  UNL1        0.0991
     29 C          -2.2266    4.2570   21.9421 C.ar    1  UNL1       -0.0061
     30 C          -1.6067    5.6084   22.1407 C.ar    1  UNL1       -0.0029
     31 C          -1.7772    6.3272   23.4461 C.ar    1  UNL1       -0.0002
     32 C          -2.5674    5.6946   24.5530 C.ar    1  UNL1        0.0022
     33 C          -2.7379    6.4134   25.8586 C.ar    1  UNL1        0.0296
     34 C          -3.5281    5.7808   26.9655 C.ar    1  UNL1        0.1401
     35 F          -3.6986    6.4995   28.2709 F       1  UNL1       -0.2042
     36 C          -4.1480    4.4293   26.7668 C.ar    1  UNL1        0.0296
     37 C          -3.9775    3.7105   25.4614 C.ar    1  UNL1        0.0023
     38 C          -3.1873    4.3432   24.3545 C.ar    1  UNL1       -0.0001
     39 C          -3.0168    3.6244   23.0490 C.ar    1  UNL1       -0.0029
@<TRIPOS>UNITY_ATOM_ATTR
16 1
charge 1
17 1
charge -1
@<TRIPOS>BOND
     1     9    10    2
     2    10    11   am
     3     1    11    1
     4     1     2    1
     5     3     2    1
     6     3     4    1
     7     4     5    1
     8     6     5    1
     9     6     7    1
    10     6     8    1
    11     8    28    1
    12    28    29    1
    13    29    30   ar
    14    30    31   ar
    15    31    32   ar
    16    32    33   ar
    17    33    34   ar
    18    34    35    1
    19    34    36   ar
    20    36    37   ar
    21    37    38   ar
    22    38    39   ar
    23    10    13    1
    24    13    14   ar
    25    14    15   ar
    26    15    16   ar
    27    16    17    1
    28    16    18   ar
    29    18    19   ar
    30    19    20    1
    31    20    21    2
    32    20    22   am
    33    22    23    1
    34    23    24    1
    35    24    25    1
    36    25    26    1
    37    26    27    1
    38     7     1    1
    39    39    29   ar
    40    19    13   ar
    41    27    22    1
    42     8     3    1
    43    38    32   ar
    44    11    12    1
@<TRIPOS>MOLECULE
*****
 39 44 0 0 0
SMALL
GASTEIGER

@<TRIPOS>ATOM
      1 C          -0.4244    3.7556   19.1094 C.3     1  UNL1        0.0745
      2 C          -1.6830    3.8935   19.9137 C.3     1  UNL1        0.0356
      3 C          -3.0123    3.9546   19.2217 C.3     1  UNL1        0.0594
      4 C          -4.0648    3.9744   18.1531 C.3     1  UNL1        0.0174
      5 C          -3.3790    3.8505   16.8248 C.3     1  UNL1        0.0174
      6 C          -1.9027    3.7541   17.0725 C.3     1  UNL1        0.0594
      7 C          -0.4951    3.6788   17.6131 C.3     1  UNL1        0.0356
      8 N          -1.6761    3.8184   18.5539 N.3     1  UNL1       -0.2715
      9 O           0.9474    6.2880   19.9491 O.2     1  UNL1       -0.2701
     10 C           1.5910    4.9607   20.2213 C.2     1  UNL1        0.2463
     11 N           0.9051    3.6945   19.8015 N.am    1  UNL1       -0.3024
     12 H           1.3274    2.8233   19.9802 H       1  UNL1        0.1497
     13 C           2.9203    4.8996   20.9134 C.ar    1  UNL1        0.0699
     14 C           4.1836    4.8389   20.1070 C.ar    1  UNL1        0.0818
     15 C           5.5130    4.7778   20.7990 C.ar    1  UNL1        0.3019
     16 N           5.5791    4.7775   22.2976 N.ar    1  UNL1       -0.1518
     17 O           6.9085    4.7164   22.9897 O.co2   1  UNL1       -0.6187
     18 C           4.3158    4.8382   23.1041 C.ar    1  UNL1        0.3063
     19 C           2.9864    4.8993   22.4119 C.ar    1  UNL1        0.1289
     20 C           1.7231    4.9600   23.2184 C.2     1  UNL1        0.2552
     21 O           1.3178    6.4040   23.2437 O.2     1  UNL1       -0.2697
     22 N           1.1428    3.7045   23.7990 N.am    1  UNL1       -0.2759
     23 C           1.8259    2.3883   23.5731 C.3     1  UNL1        0.0937
     24 C           1.2457    1.1328   24.1537 C.3     1  UNL1        0.0216
     25 C          -0.0176    1.1935   24.9602 C.3     1  UNL1        0.0035
     26 C          -0.7007    2.5098   25.1860 C.3     1  UNL1        0.0216
     27 C          -0.1205    3.7652   24.6054 C.3     1  UNL1        0.0937
     28 C          -0.3467    3.7573   19.2459 C.3     1  UNL1        0.0991
     29 C           0.3412    2.4375   19.4336 C.ar    1  UNL1       -0.0061
     30 C          -0.1051    1.5073   20.5223 C.ar    1  UNL1       -0.0029
     31 C           0.5828    0.1876   20.7099 C.ar    1  UNL1       -0.0002
     32 C           1.7169   -0.2018   19.8088 C.ar    1  UNL1        0.0022
     33 C           2.4048   -1.5215   19.9965 C.ar    1  UNL1        0.0296
     34 C           3.5390   -1.9110   19.0954 C.ar    1  UNL1        0.1401
     35 F           4.2269   -3.2306   19.2830 F       1  UNL1       -0.2042
     36 C           3.9853   -0.9806   18.0066 C.ar    1  UNL1        0.0296
     37 C           3.2974    0.3390   17.8189 C.ar    1  UNL1        0.0023
     38 C           2.1632    0.7285   18.7201 C.ar    1  UNL1       -0.0001
     39 C           1.4753    2.0481   18.5324 C.ar    1  UNL1       -0.0029
@<TRIPOS>UNITY_ATOM_ATTR
16 1
charge 1
17 1
charge -1
@<TRIPOS>BOND
     1     9    10    2
     2    10    11   am
     3     1    11    1
     4     1     2    1
     5     3     2    1
     6     3     4    1
     7     4     5    1
     8     6     5    1
     9     6     7    1
    10     6     8    1
    11     8    28    1
    12    28    29    1
    13    29    30   ar
    14    30    31   ar
    15    31    32   ar
    16    32    33   ar
    17    33    34   ar
    18    34    35    1
    19    34    36   ar
    20    36    37   ar
    21    37    38   ar
    22    38    39   ar
    23    10    13    1
    24    13    14   ar
    25    14    15   ar
    26    15    16   ar
    27    16    17    1
    28    16    18   ar
    29    18    19   ar
    30    19    20    1
    31    20    21    2
    32    20    22   am
    33    22    23    1
    34    23    24    1
    35    24    25    1
    36    25    26    1
    37    26    27    1
    38     7     1    1
    39    39    29   ar
    40    19    13   ar
    41    27    22    1
    42     8     3    1
    43    38    32   ar
    44    11    12    1
@<TRIPOS>MOLECULE
*****
 39 44 0 0 0
SMALL
GASTEIGER

@<TRIPOS>ATOM
      1 C           5.3060   -1.5626   31.7409 C.3     1  UNL1        0.0745
      2 C           5.9280   -1.7269   30.3859 C.3     1  UNL1        0.0356
      3 C           6.6692   -2.9866   30.0486 C.3     1  UNL1        0.0594
      4 C           7.2843   -4.3508   30.1511 C.3     1  UNL1        0.0174
      5 C           6.9939   -4.8884   31.5211 C.3     1  UNL1        0.0174
      6 C           6.1993   -3.8564   32.2652 C.3     1  UNL1        0.0594
      7 C           5.4250   -2.6580   32.7586 C.3     1  UNL1        0.0356
      8 N           5.9986   -2.6811   31.3551 N.3     1  UNL1       -0.2715
      9 O           2.4194   -1.2705   30.9777 O.2     1  UNL1       -0.2701
     10 C           3.1215   -0.1568   31.6965 C.2     1  UNL1        0.2463
     11 N           4.5648   -0.3028   32.0781 N.am    1  UNL1       -0.3024
     12 H           5.0256    0.4282   32.5499 H       1  UNL1        0.1497
     13 C           2.3804    1.1030   32.0337 C.ar    1  UNL1        0.0699
     14 C           2.5547    1.7378   33.3815 C.ar    1  UNL1        0.0818
     15 C           1.8135    2.9975   33.7188 C.ar    1  UNL1        0.3019
     16 N           0.8980    3.6224   32.7081 N.ar    1  UNL1       -0.1518
     17 O           0.1568    4.8822   33.0453 O.co2   1  UNL1       -0.6187
     18 C           0.7236    2.9876   31.3603 C.ar    1  UNL1        0.3063
     19 C           1.4649    1.7278   31.0231 C.ar    1  UNL1        0.1289
     20 C           1.2905    1.0930   29.6753 C.2     1  UNL1        0.2552
     21 O           0.0306    0.2833   29.7596 O.2     1  UNL1       -0.2697
     22 N           2.2952    1.3474   28.5909 N.am    1  UNL1       -0.2759
     23 C           3.4741    2.2366   28.8542 C.3     1  UNL1        0.0937
     24 C           4.4788    2.4911   27.7697 C.3     1  UNL1        0.0216
     25 C           4.3044    1.8562   26.4219 C.3     1  UNL1        0.0035
     26 C           3.1254    0.9669   26.1586 C.3     1  UNL1        0.0216
     27 C           2.1209    0.7126   27.2430 C.3     1  UNL1        0.0937
     28 C           5.2575   -1.4214   31.6924 C.3     1  UNL1        0.0991
     29 C           5.6942   -0.5832   32.8573 C.ar    1  UNL1       -0.0061
     30 C           6.8625    0.3468   32.7159 C.ar    1  UNL1       -0.0029
     31 C           7.2991    1.1849   33.8808 C.ar    1  UNL1       -0.0002
     32 C           6.5675    1.0929   35.1870 C.ar    1  UNL1        0.0022
     33 C           7.0042    1.9310   36.3519 C.ar    1  UNL1        0.0296
     34 C           6.2726    1.8391   37.6581 C.ar    1  UNL1        0.1401
     35 F           6.7092    2.6771   38.8230 F       1  UNL1       -0.2042
     36 C           5.1042    0.9089   37.7995 C.ar    1  UNL1        0.0296
     37 C           4.6676    0.0709   36.6346 C.ar    1  UNL1        0.0023
     38 C           5.3992    0.1629   35.3284 C.ar    1  UNL1       -0.0001
     39 C           4.9625   -0.6752   34.1635 C.ar    1  UNL1       -0.0029
@<TRIPOS>UNITY_ATOM_ATTR
16 1
charge 1
17 1
charge -1
@<TRIPOS>BOND
     1     9    10    2
     2    10    11   am
     3     1    11    1
     4     1     2    1
     5     3     2    1
     6     3     4    1
     7     4     5    1
     8     6     5    1
     9     6     7    1
    10     6     8    1
    11     8    28    1
    12    28    29    1
    13    29    30   ar
    14    30    31   ar
    15    31    32   ar
    16    32    33   ar
    17    33    34   ar
    18    34    35    1
    19    34    36   ar
    20    36    37   ar
    21    37    38   ar
    22    38    39   ar
    23    10    13    1
    24    13    14   ar
    25    14    15   ar
    26    15    16   ar
    27    16    17    1
    28    16    18   ar
    29    18    19   ar
    30    19    20    1
    31    20    21    2
    32    20    22   am
    33    22    23    1
    34    23    24    1
    35    24    25    1
    36    25    26    1
    37    26    27    1
    38     7     1    1
    39    39    29   ar
    40    19    13   ar
    41    27    22    1
    42     8     3    1
    43    38    32   ar
    44    11    12    1
