@<TRIPOS>MOLECULE
*****
 33 37 0 0 0
SMALL
GASTEIGER

@<TRIPOS>ATOM
      1 C          -0.5187    2.0947   21.4037 C.3     1  UNL1        0.2026
      2 C           0.0495    2.3453   22.7691 C.ar    1  UNL1        0.0163
      3 C           0.8031    1.4634   23.7200 C.ar    1  UNL1        0.0104
      4 C           1.2545    2.0022   25.0451 C.ar    1  UNL1        0.0583
      5 CL          2.0081    1.1202   25.9961 Cl      1  UNL1       -0.0822
      6 C           0.9523    3.4230   25.4193 C.ar    1  UNL1        0.0224
      7 C           0.1988    4.3050   24.4684 C.ar    1  UNL1        0.0544
      8 CL         -0.1034    5.7258   24.8426 Cl      1  UNL1       -0.0826
      9 C          -0.2526    3.7661   23.1433 C.ar    1  UNL1       -0.0106
     10 C          -1.0077    4.3936   22.0092 C.3     1  UNL1        0.0470
     11 C          -1.1721    3.3606   20.9341 C.3     1  UNL1        0.1066
     12 N          -1.8678    3.5587   19.6200 N.3     1  UNL1       -0.2691
     13 C          -0.9731    3.6919   18.4235 C.3     1  UNL1        0.0736
     14 C          -1.3559    3.8967   16.9877 C.3     1  UNL1        0.0344
     15 C          -2.7278    4.0189   16.3937 C.3     1  UNL1        0.0700
     16 N          -4.0560    3.9664   17.0889 N.3     1  UNL1       -0.2963
     17 C          -4.3400    3.7788   18.5498 C.3     1  UNL1        0.0861
     18 C          -3.3663    3.5974   19.6763 C.3     1  UNL1        0.0895
     19 H          -4.5537    3.2025   16.6317 H       1  UNL1        0.1233
     20 O          -0.4463    0.8046   20.6418 O.3     1  UNL1       -0.4734
     21 C           3.4610   -0.5402   18.8603 C.ar    1  UNL1        0.0664
     22 C           3.1138   -0.9097   20.2720 C.ar    1  UNL1        0.0207
     23 C           1.8113   -0.4614   20.8658 C.ar    1  UNL1        0.0384
     24 C           0.8561    0.3564   20.0480 C.ar    1  UNL1        0.1390
     25 C           1.2034    0.7258   18.6363 C.ar    1  UNL1        0.0384
     26 C           2.5058    0.2775   18.0425 C.ar    1  UNL1        0.0207
     27 C           5.7267    1.3923   17.5256 C.3     1  UNL1        0.0742
     28 C           5.8049   -0.1003   17.6530 C.ar    1  UNL1        0.1473
     29 N           6.9382   -0.9666   17.1893 N.ar    1  UNL1       -0.1333
     30 N           6.5972   -2.3903   17.5162 N.ar    1  UNL1       -0.1333
     31 C           5.2532   -2.4039   18.1819 C.ar    1  UNL1        0.1473
     32 C           4.5263   -3.6193   18.6763 C.3     1  UNL1        0.0742
     33 N           4.7635   -0.9885   18.2665 N.ar    1  UNL1       -0.2807
@<TRIPOS>BOND
     1    27    28    1
     2    28    29   ar
     3    29    30   ar
     4    30    31   ar
     5    31    32    1
     6    31    33   ar
     7    33    21    1
     8    21    22   ar
     9    22    23   ar
    10    23    24   ar
    11    24    20    1
    12     1    20    1
    13     1     2    1
    14     2     3   ar
    15     3     4   ar
    16     4     5    1
    17     4     6   ar
    18     6     7   ar
    19     7     8    1
    20     7     9   ar
    21     9    10    1
    22    10    11    1
    23    11    12    1
    24    12    13    1
    25    13    14    1
    26    14    15    1
    27    15    16    1
    28    16    17    1
    29    17    18    1
    30    24    25   ar
    31    25    26   ar
    32    33    28   ar
    33    26    21   ar
    34    11     1    1
    35    18    12    1
    36     9     2   ar
    37    16    19    1
@<TRIPOS>MOLECULE
*****
 33 37 0 0 0
SMALL
GASTEIGER

@<TRIPOS>ATOM
      1 C          -0.4242    2.0831   21.5908 C.3     1  UNL1        0.2026
      2 C           0.1120    2.3398   22.9680 C.ar    1  UNL1        0.0163
      3 C           0.8207    1.4549   23.9502 C.ar    1  UNL1        0.0104
      4 C           1.2472    2.0016   25.2803 C.ar    1  UNL1        0.0583
      5 CL          1.9559    1.1168   26.2626 Cl      1  UNL1       -0.0822
      6 C           0.9649    3.4331   25.6282 C.ar    1  UNL1        0.0224
      7 C           0.2562    4.3180   24.6460 C.ar    1  UNL1        0.0544
      8 CL         -0.0261    5.7495   24.9940 Cl      1  UNL1       -0.0826
      9 C          -0.1703    3.7713   23.3159 C.ar    1  UNL1       -0.0106
     10 C          -0.8809    4.3993   22.1537 C.3     1  UNL1        0.0470
     11 C          -1.0378    3.3560   21.0875 C.3     1  UNL1        0.1066
     12 N          -1.6932    3.5512   19.7525 N.3     1  UNL1       -0.2691
     13 C          -3.1921    3.6077   19.7654 C.3     1  UNL1        0.0736
     14 C          -4.1310    3.7911   18.6101 C.3     1  UNL1        0.0344
     15 C          -3.8030    3.9633   17.1565 C.3     1  UNL1        0.0700
     16 N          -2.4550    3.9946   16.4993 N.3     1  UNL1       -0.2963
     17 C          -1.1021    3.8614   17.1334 C.3     1  UNL1        0.0861
     18 C          -0.7630    3.6641   18.5811 C.3     1  UNL1        0.0895
     19 H          -2.4252    4.8945   16.0201 H       1  UNL1        0.1233
     20 O          -0.3582    0.7820   20.8474 O.3     1  UNL1       -0.4734
     21 C           3.5042   -0.5315   18.9484 C.ar    1  UNL1        0.0664
     22 C           2.4523    0.1437   18.1191 C.ar    1  UNL1        0.0207
     23 C           1.1648    0.5815   18.7521 C.ar    1  UNL1        0.0384
     24 C           0.9292    0.3442   20.2144 C.ar    1  UNL1        0.1390
     25 C           1.9811   -0.3310   21.0436 C.ar    1  UNL1        0.0384
     26 C           3.2686   -0.7688   20.4106 C.ar    1  UNL1        0.0207
     27 C           4.5610   -3.6072   18.6798 C.3     1  UNL1        0.0742
     28 C           5.2775   -2.3830   18.1919 C.ar    1  UNL1        0.1473
     29 N           6.6054   -2.3577   17.4949 N.ar    1  UNL1       -0.1333
     30 N           6.9404   -0.9282   17.1875 N.ar    1  UNL1       -0.1333
     31 C           5.8195   -0.0701   17.6946 C.ar    1  UNL1        0.1473
     32 C           5.7402    1.4247   17.5980 C.3     1  UNL1        0.0742
     33 N           4.7917   -0.9693   18.3153 N.ar    1  UNL1       -0.2807
@<TRIPOS>BOND
     1    27    28    1
     2    28    29   ar
     3    29    30   ar
     4    30    31   ar
     5    31    32    1
     6    31    33   ar
     7    33    21    1
     8    21    22   ar
     9    22    23   ar
    10    23    24   ar
    11    24    20    1
    12     1    20    1
    13     1     2    1
    14     2     3   ar
    15     3     4   ar
    16     4     5    1
    17     4     6   ar
    18     6     7   ar
    19     7     8    1
    20     7     9   ar
    21     9    10    1
    22    10    11    1
    23    11    12    1
    24    12    13    1
    25    13    14    1
    26    14    15    1
    27    15    16    1
    28    16    17    1
    29    17    18    1
    30    24    25   ar
    31    25    26   ar
    32    33    28   ar
    33    26    21   ar
    34    11     1    1
    35    18    12    1
    36     9     2   ar
    37    16    19    1
@<TRIPOS>MOLECULE
*****
 33 37 0 0 0
SMALL
GASTEIGER

@<TRIPOS>ATOM
      1 C          -0.6381    2.7018   20.9656 C.3     1  UNL1        0.2026
      2 C          -0.8995    3.7652   19.9404 C.ar    1  UNL1        0.0163
      3 C          -1.1334    3.6967   18.4604 C.ar    1  UNL1        0.0104
      4 C          -1.3725    4.9550   17.6799 C.ar    1  UNL1        0.0583
      5 CL         -1.6065    4.8865   16.1997 Cl      1  UNL1       -0.0822
      6 C          -1.3777    6.2819   18.3793 C.ar    1  UNL1        0.0224
      7 C          -1.1438    6.3505   19.8594 C.ar    1  UNL1        0.0544
      8 CL         -1.1490    7.6774   20.5589 Cl      1  UNL1       -0.0826
      9 C          -0.9047    5.0921   20.6399 C.ar    1  UNL1       -0.0106
     10 C          -0.6465    4.8488   22.0974 C.3     1  UNL1        0.0470
     11 C          -0.4818    3.3715   22.2986 C.3     1  UNL1        0.1066
     12 N          -0.2086    2.6845   23.6038 N.3     1  UNL1       -0.2691
     13 C          -1.2155    2.9255   24.6893 C.3     1  UNL1        0.0736
     14 C          -1.2271    2.3888   26.0900 C.3     1  UNL1        0.0344
     15 C          -0.2348    1.4788   26.7511 C.3     1  UNL1        0.0700
     16 N           1.0142    0.8805   26.1749 N.3     1  UNL1       -0.2963
     17 C           1.5794    1.0447   24.7951 C.3     1  UNL1        0.0861
     18 C           1.0352    1.8475   23.6509 C.3     1  UNL1        0.0895
     19 H           0.8881   -0.1260   26.2813 H       1  UNL1        0.1233
     20 O          -0.5488    1.2276   20.7036 O.3     1  UNL1       -0.4734
     21 C           3.2220   -0.5283   18.9866 C.ar    1  UNL1        0.0664
     22 C           2.8795   -0.7528   20.4297 C.ar    1  UNL1        0.0207
     23 C           1.6226   -0.1675   21.0020 C.ar    1  UNL1        0.0384
     24 C           0.7081    0.6423   20.1313 C.ar    1  UNL1        0.1390
     25 C           1.0506    0.8667   18.6883 C.ar    1  UNL1        0.0384
     26 C           2.3075    0.2814   18.1160 C.ar    1  UNL1        0.0207
     27 C           5.6602    1.1433   17.6047 C.3     1  UNL1        0.0742
     28 C           5.5997   -0.3454   17.7791 C.ar    1  UNL1        0.1473
     29 N           6.6492   -1.3269   17.3490 N.ar    1  UNL1       -0.1333
     30 N           6.1770   -2.7019   17.7183 N.ar    1  UNL1       -0.1333
     31 C           4.8357   -2.5701   18.3768 C.ar    1  UNL1        0.1473
     32 C           3.9983   -3.6970   18.9049 C.3     1  UNL1        0.0742
     33 N           4.4789   -1.1137   18.4143 N.ar    1  UNL1       -0.2807
@<TRIPOS>BOND
     1    27    28    1
     2    28    29   ar
     3    29    30   ar
     4    30    31   ar
     5    31    32    1
     6    31    33   ar
     7    33    21    1
     8    21    22   ar
     9    22    23   ar
    10    23    24   ar
    11    24    20    1
    12     1    20    1
    13     1     2    1
    14     2     3   ar
    15     3     4   ar
    16     4     5    1
    17     4     6   ar
    18     6     7   ar
    19     7     8    1
    20     7     9   ar
    21     9    10    1
    22    10    11    1
    23    11    12    1
    24    12    13    1
    25    13    14    1
    26    14    15    1
    27    15    16    1
    28    16    17    1
    29    17    18    1
    30    24    25   ar
    31    25    26   ar
    32    33    28   ar
    33    26    21   ar
    34    11     1    1
    35    18    12    1
    36     9     2   ar
    37    16    19    1
@<TRIPOS>MOLECULE
*****
 33 37 0 0 0
SMALL
GASTEIGER

@<TRIPOS>ATOM
      1 C          -2.3285    4.1731   22.9786 C.3     1  UNL1        0.2026
      2 C          -3.5505    4.4167   23.8138 C.ar    1  UNL1        0.0163
      3 C          -3.7217    4.8474   25.2404 C.ar    1  UNL1        0.0104
      4 C          -5.0978    5.0108   25.8144 C.ar    1  UNL1        0.0583
      5 CL         -5.2690    5.4414   27.2411 Cl      1  UNL1       -0.0822
      6 C          -6.3027    4.7435   24.9620 C.ar    1  UNL1        0.0224
      7 C          -6.1315    4.3128   23.5354 C.ar    1  UNL1        0.0544
      8 CL         -7.3364    4.0456   22.6829 Cl      1  UNL1       -0.0826
      9 C          -4.7554    4.1495   22.9613 C.ar    1  UNL1       -0.0106
     10 C          -4.2781    3.7407   21.5993 C.3     1  UNL1        0.0470
     11 C          -2.7782    3.7553   21.6099 C.3     1  UNL1        0.1066
     12 N          -1.8849    3.4123   20.4548 N.3     1  UNL1       -0.2691
     13 C          -0.7824    2.4392   20.7512 C.3     1  UNL1        0.0736
     14 C           0.2650    1.9013   19.8220 C.3     1  UNL1        0.0344
     15 C           0.4688    2.2035   18.3669 C.3     1  UNL1        0.0700
     16 N          -0.3246    3.1184   17.4817 N.3     1  UNL1       -0.2963
     17 C          -1.5177    3.9569   17.8330 C.3     1  UNL1        0.0861
     18 C          -2.2121    4.0878   19.1561 C.3     1  UNL1        0.0895
     19 H          -0.6473    2.5210   16.7206 H       1  UNL1        0.1233
     20 O          -0.9066    4.3213   23.4324 O.3     1  UNL1       -0.4734
     21 C           0.6191    1.8757   26.8881 C.ar    1  UNL1        0.0664
     22 C           0.4881    1.2540   25.5293 C.ar    1  UNL1        0.0207
     23 C          -0.0205    2.0692   24.3774 C.ar    1  UNL1        0.0384
     24 C          -0.3980    3.5062   24.5843 C.ar    1  UNL1        0.1390
     25 C          -0.2670    4.1278   25.9431 C.ar    1  UNL1        0.0384
     26 C           0.2415    3.3126   27.0950 C.ar    1  UNL1        0.0207
     27 C          -1.1737   -0.0638   28.8047 C.3     1  UNL1        0.0742
     28 C           0.3036    0.1690   28.9209 C.ar    1  UNL1        0.1473
     29 N           1.2162   -0.4488   29.9385 N.ar    1  UNL1       -0.1333
     30 N           2.6042    0.0609   29.6864 N.ar    1  UNL1       -0.1333
     31 C           2.5495    0.9937   28.5131 C.ar    1  UNL1        0.1473
     32 C           3.7125    1.7304   27.9173 C.3     1  UNL1        0.0742
     33 N           1.1276    1.0605   28.0399 N.ar    1  UNL1       -0.2807
@<TRIPOS>BOND
     1    27    28    1
     2    28    29   ar
     3    29    30   ar
     4    30    31   ar
     5    31    32    1
     6    31    33   ar
     7    33    21    1
     8    21    22   ar
     9    22    23   ar
    10    23    24   ar
    11    24    20    1
    12     1    20    1
    13     1     2    1
    14     2     3   ar
    15     3     4   ar
    16     4     5    1
    17     4     6   ar
    18     6     7   ar
    19     7     8    1
    20     7     9   ar
    21     9    10    1
    22    10    11    1
    23    11    12    1
    24    12    13    1
    25    13    14    1
    26    14    15    1
    27    15    16    1
    28    16    17    1
    29    17    18    1
    30    24    25   ar
    31    25    26   ar
    32    33    28   ar
    33    26    21   ar
    34    11     1    1
    35    18    12    1
    36     9     2   ar
    37    16    19    1
@<TRIPOS>MOLECULE
*****
 33 37 0 0 0
SMALL
GASTEIGER

@<TRIPOS>ATOM
      1 C          -1.1747    3.2780   21.8471 C.3     1  UNL1        0.2026
      2 C          -2.6482    3.4963   22.0239 C.ar    1  UNL1        0.0163
      3 C          -3.7561    3.7145   21.0366 C.ar    1  UNL1        0.0104
      4 C          -5.1632    3.9078   21.5190 C.ar    1  UNL1        0.0583
      5 CL         -6.2712    4.1260   20.5317 Cl      1  UNL1       -0.0822
      6 C          -5.4623    3.8829   22.9886 C.ar    1  UNL1        0.0224
      7 C          -4.3544    3.6647   23.9759 C.ar    1  UNL1        0.0544
      8 CL         -4.6535    3.6399   25.4456 Cl      1  UNL1       -0.0826
      9 C          -2.9473    3.4714   23.4936 C.ar    1  UNL1       -0.0106
     10 C          -1.6587    3.2377   24.2250 C.3     1  UNL1        0.0470
     11 C          -0.5632    3.1182   23.2074 C.3     1  UNL1        0.1066
     12 N           0.8889    2.8806   23.4989 N.3     1  UNL1       -0.2691
     13 C           1.2719    1.4578   23.7803 C.3     1  UNL1        0.0736
     14 C           2.6266    0.9003   24.1027 C.3     1  UNL1        0.0344
     15 C           3.9328    1.6277   24.2235 C.3     1  UNL1        0.0700
     16 N           4.2070    3.0924   24.0516 N.3     1  UNL1       -0.2963
     17 C           3.2426    4.1914   23.7165 C.3     1  UNL1        0.0861
     18 C           1.7659    4.0972   23.4705 C.3     1  UNL1        0.0895
     19 H           4.9103    3.1359   23.3141 H       1  UNL1        0.1233
     20 O          -0.4415    3.2282   20.5394 O.3     1  UNL1       -0.4734
     21 C           2.5407   -0.0491   19.7550 C.ar    1  UNL1        0.0664
     22 C           2.9746    1.3862   19.7105 C.ar    1  UNL1        0.0207
     23 C           1.9805    2.4786   19.9719 C.ar    1  UNL1        0.0384
     24 C           0.5525    2.1358   20.2779 C.ar    1  UNL1        0.1390
     25 C           0.1188    0.7006   20.3224 C.ar    1  UNL1        0.0384
     26 C           1.1129   -0.3918   20.0610 C.ar    1  UNL1        0.0207
     27 C           3.7387   -0.8948   16.8397 C.3     1  UNL1        0.0742
     28 C           4.0856   -1.5303   18.1536 C.ar    1  UNL1        0.1473
     29 N           5.0439   -2.6659   18.3580 N.ar    1  UNL1       -0.1333
     30 N           5.0855   -2.9790   19.8244 N.ar    1  UNL1       -0.1333
     31 C           4.1529   -2.0369   20.5262 C.ar    1  UNL1        0.1473
     32 C           3.8853   -1.9971   22.0016 C.3     1  UNL1        0.0742
     33 N           3.5349   -1.1414   19.4935 N.ar    1  UNL1       -0.2807
@<TRIPOS>BOND
     1    27    28    1
     2    28    29   ar
     3    29    30   ar
     4    30    31   ar
     5    31    32    1
     6    31    33   ar
     7    33    21    1
     8    21    22   ar
     9    22    23   ar
    10    23    24   ar
    11    24    20    1
    12     1    20    1
    13     1     2    1
    14     2     3   ar
    15     3     4   ar
    16     4     5    1
    17     4     6   ar
    18     6     7   ar
    19     7     8    1
    20     7     9   ar
    21     9    10    1
    22    10    11    1
    23    11    12    1
    24    12    13    1
    25    13    14    1
    26    14    15    1
    27    15    16    1
    28    16    17    1
    29    17    18    1
    30    24    25   ar
    31    25    26   ar
    32    33    28   ar
    33    26    21   ar
    34    11     1    1
    35    18    12    1
    36     9     2   ar
    37    16    19    1
@<TRIPOS>MOLECULE
*****
 33 37 0 0 0
SMALL
GASTEIGER

@<TRIPOS>ATOM
      1 C           6.8352   -2.9483   23.9224 C.3     1  UNL1        0.2026
      2 C           6.9637   -3.8528   25.1121 C.ar    1  UNL1        0.0163
      3 C           6.7600   -3.6165   26.5793 C.ar    1  UNL1        0.0104
      4 C           6.9667   -4.7367   27.5552 C.ar    1  UNL1        0.0583
      5 CL          6.7630   -4.5003   29.0224 Cl      1  UNL1       -0.0822
      6 C           7.3771   -6.0932   27.0639 C.ar    1  UNL1        0.0224
      7 C           7.5808   -6.3296   25.5967 C.ar    1  UNL1        0.0544
      8 CL          7.9912   -7.6861   25.1055 Cl      1  UNL1       -0.0826
      9 C           7.3741   -5.2094   24.6209 C.ar    1  UNL1       -0.0106
     10 C           7.4992   -5.1432   23.1275 C.3     1  UNL1        0.0470
     11 C           7.1662   -3.7458   22.6959 C.3     1  UNL1        0.1066
     12 N           7.1645   -3.2355   21.2853 N.3     1  UNL1       -0.2691
     13 C           5.9132   -3.4967   20.5003 C.3     1  UNL1        0.0736
     14 C           5.6027   -3.1183   19.0824 C.3     1  UNL1        0.0344
     15 C           6.4667   -2.3854   18.0993 C.3     1  UNL1        0.0700
     16 N           7.8546   -1.8499   18.2914 N.3     1  UNL1       -0.2963
     17 C           8.7213   -1.9150   19.5139 C.3     1  UNL1        0.0861
     18 C           8.4142   -2.5316   20.8464 C.3     1  UNL1        0.0895
     19 H           7.7745   -0.8537   18.0876 H       1  UNL1        0.1233
     20 O           6.4443   -1.5005   23.9538 O.3     1  UNL1       -0.4734
     21 C           3.2369    0.0248   21.1906 C.ar    1  UNL1        0.0664
     22 C           4.6017    0.6469   21.1711 C.ar    1  UNL1        0.0207
     23 C           5.6708    0.1385   22.0922 C.ar    1  UNL1        0.0384
     24 C           5.3752   -0.9921   23.0328 C.ar    1  UNL1        0.1390
     25 C           4.0104   -1.6142   23.0521 C.ar    1  UNL1        0.0384
     26 C           2.9413   -1.1057   22.1311 C.ar    1  UNL1        0.0207
     27 C           3.1910   -0.2956   17.9433 C.3     1  UNL1        0.0742
     28 C           2.1466    0.3860   18.7769 C.ar    1  UNL1        0.1473
     29 N           0.8978    1.0400   18.2642 N.ar    1  UNL1       -0.1333
     30 N           0.1472    1.5914   19.4399 N.ar    1  UNL1       -0.1333
     31 C           0.9320    1.2783   20.6793 C.ar    1  UNL1        0.1473
     32 C           0.5484    1.6456   22.0822 C.3     1  UNL1        0.0742
     33 N           2.1677    0.5333   20.2695 N.ar    1  UNL1       -0.2807
@<TRIPOS>BOND
     1    27    28    1
     2    28    29   ar
     3    29    30   ar
     4    30    31   ar
     5    31    32    1
     6    31    33   ar
     7    33    21    1
     8    21    22   ar
     9    22    23   ar
    10    23    24   ar
    11    24    20    1
    12     1    20    1
    13     1     2    1
    14     2     3   ar
    15     3     4   ar
    16     4     5    1
    17     4     6   ar
    18     6     7   ar
    19     7     8    1
    20     7     9   ar
    21     9    10    1
    22    10    11    1
    23    11    12    1
    24    12    13    1
    25    13    14    1
    26    14    15    1
    27    15    16    1
    28    16    17    1
    29    17    18    1
    30    24    25   ar
    31    25    26   ar
    32    33    28   ar
    33    26    21   ar
    34    11     1    1
    35    18    12    1
    36     9     2   ar
    37    16    19    1
@<TRIPOS>MOLECULE
*****
 33 37 0 0 0
SMALL
GASTEIGER

@<TRIPOS>ATOM
      1 C          -0.5589    2.8086   22.5258 C.3     1  UNL1        0.2026
      2 C           0.1413    2.1986   23.7039 C.ar    1  UNL1        0.0163
      3 C           1.4243    1.4306   23.8216 C.ar    1  UNL1        0.0104
      4 C           1.8813    0.9347   25.1615 C.ar    1  UNL1        0.0583
      5 CL          3.1644    0.1666   25.2793 Cl      1  UNL1       -0.0822
      6 C           1.0552    1.2069   26.3836 C.ar    1  UNL1        0.0224
      7 C          -0.2278    1.9749   26.2658 C.ar    1  UNL1        0.0544
      8 CL         -1.0539    2.2471   27.4879 Cl      1  UNL1       -0.0826
      9 C          -0.6848    2.4708   24.9260 C.ar    1  UNL1       -0.0106
     10 C          -1.8955    3.2489   24.5032 C.3     1  UNL1        0.0470
     11 C          -1.8177    3.4577   23.0198 C.3     1  UNL1        0.1066
     12 N          -2.8222    4.1874   22.1782 N.3     1  UNL1       -0.2691
     13 C          -2.8488    5.6782   22.3427 C.3     1  UNL1        0.0736
     14 C          -3.7272    6.6795   21.6529 C.3     1  UNL1        0.0344
     15 C          -4.7959    6.4376   20.6285 C.3     1  UNL1        0.0700
     16 N          -5.2501    5.1345   20.0407 N.3     1  UNL1       -0.2963
     17 C          -4.7478    3.7514   20.3323 C.3     1  UNL1        0.0861
     18 C          -3.6674    3.3299   21.2835 C.3     1  UNL1        0.0895
     19 H          -5.1181    5.2477   19.0356 H       1  UNL1        0.1233
     20 O          -0.0836    2.7752   21.1035 O.3     1  UNL1       -0.4734
     21 C           2.8372   -0.3821   19.7804 C.ar    1  UNL1        0.0664
     22 C           1.4136   -0.7530   20.0737 C.ar    1  UNL1        0.0207
     23 C           0.4401    0.2995   20.5147 C.ar    1  UNL1        0.0384
     24 C           0.8900    1.7228   20.6625 C.ar    1  UNL1        0.1390
     25 C           2.3135    2.0936   20.3692 C.ar    1  UNL1        0.0384
     26 C           3.2871    1.0412   19.9282 C.ar    1  UNL1        0.0207
     27 C           4.2512   -2.6115   21.6985 C.3     1  UNL1        0.0742
     28 C           4.4607   -2.4593   20.2210 C.ar    1  UNL1        0.1473
     29 N           5.3569   -3.3051   19.3658 N.ar    1  UNL1       -0.1333
     30 N           5.2609   -2.8030   17.9556 N.ar    1  UNL1       -0.1333
     31 C           4.3053   -1.6469   17.9393 C.ar    1  UNL1        0.1473
     32 C           3.9130   -0.8442   16.7343 C.3     1  UNL1        0.0742
     33 N           3.8107   -1.4345   19.3394 N.ar    1  UNL1       -0.2807
@<TRIPOS>BOND
     1    27    28    1
     2    28    29   ar
     3    29    30   ar
     4    30    31   ar
     5    31    32    1
     6    31    33   ar
     7    33    21    1
     8    21    22   ar
     9    22    23   ar
    10    23    24   ar
    11    24    20    1
    12     1    20    1
    13     1     2    1
    14     2     3   ar
    15     3     4   ar
    16     4     5    1
    17     4     6   ar
    18     6     7   ar
    19     7     8    1
    20     7     9   ar
    21     9    10    1
    22    10    11    1
    23    11    12    1
    24    12    13    1
    25    13    14    1
    26    14    15    1
    27    15    16    1
    28    16    17    1
    29    17    18    1
    30    24    25   ar
    31    25    26   ar
    32    33    28   ar
    33    26    21   ar
    34    11     1    1
    35    18    12    1
    36     9     2   ar
    37    16    19    1
@<TRIPOS>MOLECULE
*****
 33 37 0 0 0
SMALL
GASTEIGER

@<TRIPOS>ATOM
      1 C          -0.1847    2.2169   21.9458 C.3     1  UNL1        0.2026
      2 C          -0.6742    3.2980   21.0284 C.ar    1  UNL1        0.0163
      3 C          -1.0923    3.2791   19.5881 C.ar    1  UNL1        0.0104
      4 C          -1.5459    4.5443   18.9221 C.ar    1  UNL1        0.0583
      5 CL         -1.9640    4.5254   17.4816 Cl      1  UNL1       -0.0822
      6 C          -1.5813    5.8284   19.6965 C.ar    1  UNL1        0.0224
      7 C          -1.1632    5.8474   21.1369 C.ar    1  UNL1        0.0544
      8 CL         -1.1986    7.1315   21.9113 Cl      1  UNL1       -0.0826
      9 C          -0.7096    4.5822   21.8029 C.ar    1  UNL1       -0.0106
     10 C          -0.2420    4.2947   23.1988 C.3     1  UNL1        0.0470
     11 C           0.0825    2.8328   23.2871 C.3     1  UNL1        0.1066
     12 N           0.5857    2.1133   24.5033 N.3     1  UNL1       -0.2691
     13 C           2.0510    1.7923   24.5097 C.3     1  UNL1        0.0736
     14 C           2.8495    1.0886   25.5667 C.3     1  UNL1        0.0344
     15 C           2.3802    0.5321   26.8782 C.3     1  UNL1        0.0700
     16 N           0.9962    0.5420   27.4567 N.3     1  UNL1       -0.2963
     17 C          -0.2601    1.1107   26.8665 C.3     1  UNL1        0.0861
     18 C          -0.4428    1.8100   25.5522 C.3     1  UNL1        0.0895
     19 H           1.0970    1.0199   28.3522 H       1  UNL1        0.1233
     20 O           0.0045    0.7733   21.5850 O.3     1  UNL1       -0.4734
     21 C           3.6362   -0.5070   19.2566 C.ar    1  UNL1        0.0664
     22 C           2.4453    0.0561   18.5390 C.ar    1  UNL1        0.0207
     23 C           1.2348    0.4829   19.3152 C.ar    1  UNL1        0.0384
     24 C           1.2150    0.3465   20.8090 C.ar    1  UNL1        0.1390
     25 C           2.4059   -0.2166   21.5264 C.ar    1  UNL1        0.0384
     26 C           3.6164   -0.6434   20.7502 C.ar    1  UNL1        0.0207
     27 C           4.6188   -3.5810   18.7725 C.3     1  UNL1        0.0742
     28 C           5.2984   -2.3467   18.2579 C.ar    1  UNL1        0.1473
     29 N           6.5489   -2.3087   17.4304 N.ar    1  UNL1       -0.1333
     30 N           6.8701   -0.8723   17.1415 N.ar    1  UNL1       -0.1333
     31 C           5.8181   -0.0225   17.7904 C.ar    1  UNL1        0.1473
     32 C           5.7494    1.4756   17.7555 C.3     1  UNL1        0.0742
     33 N           4.8467   -0.9338   18.4804 N.ar    1  UNL1       -0.2807
@<TRIPOS>BOND
     1    27    28    1
     2    28    29   ar
     3    29    30   ar
     4    30    31   ar
     5    31    32    1
     6    31    33   ar
     7    33    21    1
     8    21    22   ar
     9    22    23   ar
    10    23    24   ar
    11    24    20    1
    12     1    20    1
    13     1     2    1
    14     2     3   ar
    15     3     4   ar
    16     4     5    1
    17     4     6   ar
    18     6     7   ar
    19     7     8    1
    20     7     9   ar
    21     9    10    1
    22    10    11    1
    23    11    12    1
    24    12    13    1
    25    13    14    1
    26    14    15    1
    27    15    16    1
    28    16    17    1
    29    17    18    1
    30    24    25   ar
    31    25    26   ar
    32    33    28   ar
    33    26    21   ar
    34    11     1    1
    35    18    12    1
    36     9     2   ar
    37    16    19    1
@<TRIPOS>MOLECULE
*****
 33 37 0 0 0
SMALL
GASTEIGER

@<TRIPOS>ATOM
      1 C           5.3294   -1.1197   23.2099 C.3     1  UNL1        0.2026
      2 C           4.9327   -1.4295   21.7969 C.ar    1  UNL1        0.0163
      3 C           5.7141   -1.9459   20.6253 C.ar    1  UNL1        0.0104
      4 C           5.0331   -2.1625   19.3065 C.ar    1  UNL1        0.0583
      5 CL          5.8146   -2.6789   18.1347 Cl      1  UNL1       -0.0822
      6 C           3.5708   -1.8628   19.1592 C.ar    1  UNL1        0.0224
      7 C           2.7894   -1.3464   20.3309 C.ar    1  UNL1        0.0544
      8 CL          1.3270   -1.0467   20.1837 Cl      1  UNL1       -0.0826
      9 C           3.4703   -1.1298   21.6497 C.ar    1  UNL1       -0.0106
     10 C           2.9633   -0.6347   22.9717 C.3     1  UNL1        0.0470
     11 C           4.1122   -0.6284   23.9360 C.3     1  UNL1        0.1066
     12 N           4.0542   -0.2052   25.3739 N.3     1  UNL1       -0.2691
     13 C           3.9108   -1.3145   26.3735 C.3     1  UNL1        0.0736
     14 C           3.8251   -1.2211   27.8681 C.3     1  UNL1        0.0344
     15 C           3.8615    0.0044   28.7324 C.3     1  UNL1        0.0700
     16 N           3.9927    1.4393   28.3154 N.3     1  UNL1       -0.2963
     17 C           4.1199    2.0030   26.9311 C.3     1  UNL1        0.0861
     18 C           4.1473    1.2712   25.6220 C.3     1  UNL1        0.0895
     19 H           4.8236    1.7725   28.8043 H       1  UNL1        0.1233
     20 O           6.7022   -1.2739   23.7942 O.3     1  UNL1       -0.4734
     21 C           7.8677   -5.1211   25.8168 C.ar    1  UNL1        0.0664
     22 C           8.6867   -3.8828   26.0315 C.ar    1  UNL1        0.0207
     23 C           8.2982   -2.6005   25.3573 C.ar    1  UNL1        0.0384
     24 C           7.0907   -2.5563   24.4684 C.ar    1  UNL1        0.1390
     25 C           6.2718   -3.7945   24.2537 C.ar    1  UNL1        0.0384
     26 C           6.6603   -5.0769   24.9280 C.ar    1  UNL1        0.0207
     27 C           7.4256   -5.8415   28.9688 C.3     1  UNL1        0.0742
     28 C           8.0531   -6.7346   27.9398 C.ar    1  UNL1        0.1473
     29 N           8.5874   -8.1156   28.1790 N.ar    1  UNL1       -0.1333
     30 N           9.1208   -8.6380   26.8781 N.ar    1  UNL1       -0.1333
     31 C           8.9162   -7.5798   25.8348 C.ar    1  UNL1        0.1473
     32 C           9.3035   -7.6804   24.3891 C.3     1  UNL1        0.0742
     33 N           8.2562   -6.4035   26.4910 N.ar    1  UNL1       -0.2807
@<TRIPOS>BOND
     1    27    28    1
     2    28    29   ar
     3    29    30   ar
     4    30    31   ar
     5    31    32    1
     6    31    33   ar
     7    33    21    1
     8    21    22   ar
     9    22    23   ar
    10    23    24   ar
    11    24    20    1
    12     1    20    1
    13     1     2    1
    14     2     3   ar
    15     3     4   ar
    16     4     5    1
    17     4     6   ar
    18     6     7   ar
    19     7     8    1
    20     7     9   ar
    21     9    10    1
    22    10    11    1
    23    11    12    1
    24    12    13    1
    25    13    14    1
    26    14    15    1
    27    15    16    1
    28    16    17    1
    29    17    18    1
    30    24    25   ar
    31    25    26   ar
    32    33    28   ar
    33    26    21   ar
    34    11     1    1
    35    18    12    1
    36     9     2   ar
    37    16    19    1
