@<TRIPOS>MOLECULE
*****
 31 35 0 0 0
SMALL
GASTEIGER

@<TRIPOS>ATOM
      1 C           1.4642    2.0112   30.8413 C.ar    1  UNL1        0.0670
      2 C           1.0017    3.0818   31.7845 C.ar    1  UNL1        0.0191
      3 C           1.5058    3.1057   33.1971 C.ar    1  UNL1        0.0203
      4 C           2.4724    2.0591   33.6663 C.ar    1  UNL1        0.0802
      5 C           2.9349    0.9884   32.7230 C.ar    1  UNL1        0.0396
      6 C           3.8853    0.0961   33.4648 C.ar    1  UNL1        0.1216
      7 N           4.0102    0.6152   34.8666 N.ar    1  UNL1       -0.1672
      8 N           3.1370    1.8284   34.9912 N.ar    1  UNL1       -0.2384
      9 C           2.4308    0.9645   31.3105 C.ar    1  UNL1        0.0207
     10 O          -1.0473    0.5138   30.1701 O.2     1  UNL1       -0.2665
     11 C          -0.2956    1.2385   29.0931 C.ar    1  UNL1        0.2679
     12 C          -0.7997    1.2145   27.6805 C.ar    1  UNL1        0.0980
     13 C          -0.0481    1.9392   26.6035 C.ar    1  UNL1        0.1453
     14 C           1.2077    2.6879   26.9391 C.ar    1  UNL1        0.0561
     15 C           1.7117    2.7119   28.3517 C.ar    1  UNL1        0.0860
     16 N           0.9601    1.9872   29.4286 N.ar    1  UNL1       -0.2729
     17 O          -0.5522    1.9152   25.1910 O.3     1  UNL1       -0.4704
     18 C          -1.1519    3.1506   24.5877 C.3     1  UNL1        0.2320
     19 C          -2.5977    3.4741   24.8226 C.ar    1  UNL1        0.0212
     20 C          -3.0638    3.8749   26.1908 C.ar    1  UNL1       -0.0007
     21 C          -4.5096    4.1984   26.4257 C.ar    1  UNL1       -0.0002
     22 C          -5.4892    4.1210   25.2924 C.ar    1  UNL1       -0.0000
     23 C          -5.0231    3.7201   23.9242 C.ar    1  UNL1       -0.0002
     24 C          -3.5773    3.3967   23.6893 C.ar    1  UNL1       -0.0007
     25 C           2.9595    2.6641   36.2240 C.3     1  UNL1        0.2431
     26 C           2.3518    2.0629   37.4566 C.2     1  UNL1        0.3168
     27 N           1.2324    2.6503   38.2642 N.2     1  UNL1       -0.0631
     28 C           0.9455    1.7193   39.4047 C.3     1  UNL1        0.3130
     29 C           1.8875    0.5564   39.3020 C.3     1  UNL1        0.2575
     30 N           2.7566    0.7688   38.0980 N.pl3   1  UNL1       -0.2173
     31 H           3.4678    0.1649   37.7840 H       1  UNL1        0.2921
@<TRIPOS>BOND
     1    10    11    2
     2    11    12   ar
     3    12    13   ar
     4    13    17    1
     5    17    18    1
     6    18    19    1
     7    19    20   ar
     8    20    21   ar
     9    21    22   ar
    10    22    23   ar
    11    23    24   ar
    12    13    14   ar
    13    14    15   ar
    14    15    16   ar
    15    16     1    1
    16     1     2   ar
    17     2     3   ar
    18     3     4   ar
    19     4     5   ar
    20     5     6   ar
    21     6     7   ar
    22     7     8   ar
    23     8    25    1
    24    25    26    1
    25    26    27    2
    26    27    28    1
    27    28    29    1
    28    29    30    1
    29     5     9   ar
    30    16    11   ar
    31     9     1   ar
    32    24    19   ar
    33     8     4   ar
    34    30    26    1
    35    30    31    1
@<TRIPOS>MOLECULE
*****
 31 35 0 0 0
SMALL
GASTEIGER

@<TRIPOS>ATOM
      1 C           6.1708   -2.1352   32.0901 C.ar    1  UNL1        0.0670
      2 C           5.9312   -1.5857   30.7151 C.ar    1  UNL1        0.0191
      3 C           6.1685   -2.4480   29.5110 C.ar    1  UNL1        0.0203
      4 C           6.6453   -3.8599   29.6818 C.ar    1  UNL1        0.0802
      5 C           6.8849   -4.4095   31.0568 C.ar    1  UNL1        0.0396
      6 C           7.3510   -5.8281   30.9142 C.ar    1  UNL1        0.1216
      7 N           7.3995   -6.1553   29.4511 N.ar    1  UNL1       -0.1672
      8 N           6.9634   -4.9389   28.6894 N.ar    1  UNL1       -0.2384
      9 C           6.6476   -3.5472   32.2609 C.ar    1  UNL1        0.0207
     10 O           3.7176   -2.5440   33.7679 O.2     1  UNL1       -0.2665
     11 C           4.7069   -1.4773   34.1332 C.ar    1  UNL1        0.2679
     12 C           4.4696   -0.6150   35.3374 C.ar    1  UNL1        0.0980
     13 C           5.4589    0.4517   35.7028 C.ar    1  UNL1        0.1453
     14 C           6.6855    0.6561   34.8639 C.ar    1  UNL1        0.0561
     15 C           6.9228   -0.2062   33.6596 C.ar    1  UNL1        0.0860
     16 N           5.9335   -1.2729   33.2943 N.ar    1  UNL1       -0.2729
     17 O           5.2216    1.3140   36.9069 O.3     1  UNL1       -0.4704
     18 C           4.0669    2.2712   36.9282 C.3     1  UNL1        0.2320
     19 C           2.8930    2.0104   37.8248 C.ar    1  UNL1        0.0212
     20 C           1.9163    3.1097   38.1204 C.ar    1  UNL1       -0.0007
     21 C           0.7424    2.8489   39.0170 C.ar    1  UNL1       -0.0002
     22 C           0.5452    1.4888   39.6179 C.ar    1  UNL1       -0.0000
     23 C           1.5219    0.3894   39.3223 C.ar    1  UNL1       -0.0002
     24 C           2.6958    0.6502   38.4257 C.ar    1  UNL1       -0.0007
     25 C           6.8630   -4.8220   27.1974 C.3     1  UNL1        0.2431
     26 C           7.6543   -5.7441   26.3179 C.2     1  UNL1        0.3168
     27 N           7.2715   -7.1437   25.9372 N.2     1  UNL1       -0.0631
     28 C           8.3479   -7.6932   25.0487 C.3     1  UNL1        0.3130
     29 C           9.3959   -6.6332   24.8802 C.3     1  UNL1        0.2575
     30 N           8.9672   -5.4287   25.6645 N.pl3   1  UNL1       -0.2173
     31 H           9.4608   -4.5801   25.7377 H       1  UNL1        0.2921
@<TRIPOS>BOND
     1    10    11    2
     2    11    12   ar
     3    12    13   ar
     4    13    17    1
     5    17    18    1
     6    18    19    1
     7    19    20   ar
     8    20    21   ar
     9    21    22   ar
    10    22    23   ar
    11    23    24   ar
    12    13    14   ar
    13    14    15   ar
    14    15    16   ar
    15    16     1    1
    16     1     2   ar
    17     2     3   ar
    18     3     4   ar
    19     4     5   ar
    20     5     6   ar
    21     6     7   ar
    22     7     8   ar
    23     8    25    1
    24    25    26    1
    25    26    27    2
    26    27    28    1
    27    28    29    1
    28    29    30    1
    29     5     9   ar
    30    16    11   ar
    31     9     1   ar
    32    24    19   ar
    33     8     4   ar
    34    30    26    1
    35    30    31    1
@<TRIPOS>MOLECULE
*****
 31 35 0 0 0
SMALL
GASTEIGER

@<TRIPOS>ATOM
      1 C           5.6473   -0.8650   33.4769 C.ar    1  UNL1        0.0670
      2 C           5.9732   -0.5820   34.9134 C.ar    1  UNL1        0.0191
      3 C           5.1417    0.3931   35.6930 C.ar    1  UNL1        0.0203
      4 C           3.9843    1.0852   35.0361 C.ar    1  UNL1        0.0802
      5 C           3.6584    0.8021   33.5996 C.ar    1  UNL1        0.0396
      6 C           2.4657    1.6301   33.2231 C.ar    1  UNL1        0.1216
      7 N           2.0544    2.4248   34.4269 N.ar    1  UNL1       -0.1672
      8 N           2.9930    2.0881   35.5474 N.ar    1  UNL1       -0.2384
      9 C           4.4899   -0.1730   32.8200 C.ar    1  UNL1        0.0207
     10 O           8.2476    0.0133   32.2658 O.2     1  UNL1       -0.2665
     11 C           7.7789   -1.4010   32.0917 C.ar    1  UNL1        0.2679
     12 C           8.6104   -2.3761   31.3120 C.ar    1  UNL1        0.0980
     13 C           8.1417   -3.7903   31.1379 C.ar    1  UNL1        0.1453
     14 C           6.8415   -4.2295   31.7434 C.ar    1  UNL1        0.0561
     15 C           6.0100   -3.2543   32.5231 C.ar    1  UNL1        0.0860
     16 N           6.4788   -1.8402   32.6972 N.ar    1  UNL1       -0.2729
     17 O           8.9732   -4.7654   30.3582 O.3     1  UNL1       -0.4704
     18 C           8.5044   -6.1795   30.1839 C.3     1  UNL1        0.2320
     19 C           8.1249   -6.6814   28.8222 C.ar    1  UNL1        0.0212
     20 C           8.7254   -7.9516   28.2968 C.ar    1  UNL1       -0.0007
     21 C           8.3460   -8.4534   26.9352 C.ar    1  UNL1       -0.0002
     22 C           7.3660   -7.6851   26.0989 C.ar    1  UNL1       -0.0000
     23 C           6.7655   -6.4149   26.6243 C.ar    1  UNL1       -0.0002
     24 C           7.1450   -5.9131   27.9859 C.ar    1  UNL1       -0.0007
     25 C           2.9481    2.6547   36.9356 C.3     1  UNL1        0.2431
     26 C           2.1701    1.9514   38.0079 C.2     1  UNL1        0.3168
     27 N           0.9613    2.4878   38.7160 N.2     1  UNL1       -0.0631
     28 C           0.5083    1.4561   39.7062 C.3     1  UNL1        0.3130
     29 C           1.4371    0.2821   39.6101 C.3     1  UNL1        0.2575
     30 N           2.4641    0.5882   38.5606 N.pl3   1  UNL1       -0.2173
     31 H           3.2016   -0.0019   38.2831 H       1  UNL1        0.2921
@<TRIPOS>BOND
     1    10    11    2
     2    11    12   ar
     3    12    13   ar
     4    13    17    1
     5    17    18    1
     6    18    19    1
     7    19    20   ar
     8    20    21   ar
     9    21    22   ar
    10    22    23   ar
    11    23    24   ar
    12    13    14   ar
    13    14    15   ar
    14    15    16   ar
    15    16     1    1
    16     1     2   ar
    17     2     3   ar
    18     3     4   ar
    19     4     5   ar
    20     5     6   ar
    21     6     7   ar
    22     7     8   ar
    23     8    25    1
    24    25    26    1
    25    26    27    2
    26    27    28    1
    27    28    29    1
    28    29    30    1
    29     5     9   ar
    30    16    11   ar
    31     9     1   ar
    32    24    19   ar
    33     8     4   ar
    34    30    26    1
    35    30    31    1
@<TRIPOS>MOLECULE
*****
 31 35 0 0 0
SMALL
GASTEIGER

@<TRIPOS>ATOM
      1 C           5.1923   -0.3600   34.5729 C.ar    1  UNL1        0.0670
      2 C           5.3973   -0.4368   36.0568 C.ar    1  UNL1        0.0191
      3 C           4.6382    0.4821   36.9674 C.ar    1  UNL1        0.0203
      4 C           3.6740    1.4779   36.3941 C.ar    1  UNL1        0.0802
      5 C           3.4690    1.5548   34.9102 C.ar    1  UNL1        0.0396
      6 C           2.4593    2.6299   34.6369 C.ar    1  UNL1        0.1216
      7 N           2.0404    3.2176   35.9519 N.ar    1  UNL1       -0.1672
      8 N           2.7911    2.5056   37.0379 N.ar    1  UNL1       -0.2384
      9 C           4.2281    0.6359   33.9996 C.ar    1  UNL1        0.0207
     10 O           3.8609   -2.8087   33.4633 O.2     1  UNL1       -0.2665
     11 C           5.2857   -2.5033   33.1074 C.ar    1  UNL1        0.2679
     12 C           6.0448   -3.4222   32.1968 C.ar    1  UNL1        0.0980
     13 C           7.4696   -3.1168   31.8409 C.ar    1  UNL1        0.1453
     14 C           8.1353   -1.8925   32.3956 C.ar    1  UNL1        0.0561
     15 C           7.3762   -0.9735   33.3063 C.ar    1  UNL1        0.0860
     16 N           5.9514   -1.2789   33.6622 N.ar    1  UNL1       -0.2729
     17 O           8.2287   -4.0358   30.9302 O.3     1  UNL1       -0.4704
     18 C           7.7445   -5.4376   30.7060 C.3     1  UNL1        0.2320
     19 C           7.6006   -5.9672   29.3099 C.ar    1  UNL1        0.0212
     20 C           6.5926   -5.3620   28.3784 C.ar    1  UNL1       -0.0007
     21 C           6.4487   -5.8915   26.9824 C.ar    1  UNL1       -0.0002
     22 C           7.3129   -7.0262   26.5179 C.ar    1  UNL1       -0.0000
     23 C           8.3208   -7.6313   27.4494 C.ar    1  UNL1       -0.0002
     24 C           8.4647   -7.1018   28.8454 C.ar    1  UNL1       -0.0007
     25 C           2.6787    2.7741   38.5094 C.3     1  UNL1        0.2431
     26 C           3.8592    3.3052   39.2672 C.2     1  UNL1        0.3168
     27 N           4.8756    2.4843   40.0043 N.2     1  UNL1       -0.0631
     28 C           5.8752    3.4221   40.6136 C.3     1  UNL1        0.3130
     29 C           5.4766    4.8226   40.2531 C.3     1  UNL1        0.2575
     30 N           4.2307    4.7503   39.4210 N.pl3   1  UNL1       -0.2173
     31 H           3.7425    5.5167   39.0423 H       1  UNL1        0.2921
@<TRIPOS>BOND
     1    10    11    2
     2    11    12   ar
     3    12    13   ar
     4    13    17    1
     5    17    18    1
     6    18    19    1
     7    19    20   ar
     8    20    21   ar
     9    21    22   ar
    10    22    23   ar
    11    23    24   ar
    12    13    14   ar
    13    14    15   ar
    14    15    16   ar
    15    16     1    1
    16     1     2   ar
    17     2     3   ar
    18     3     4   ar
    19     4     5   ar
    20     5     6   ar
    21     6     7   ar
    22     7     8   ar
    23     8    25    1
    24    25    26    1
    25    26    27    2
    26    27    28    1
    27    28    29    1
    28    29    30    1
    29     5     9   ar
    30    16    11   ar
    31     9     1   ar
    32    24    19   ar
    33     8     4   ar
    34    30    26    1
    35    30    31    1
@<TRIPOS>MOLECULE
*****
 31 35 0 0 0
SMALL
GASTEIGER

@<TRIPOS>ATOM
      1 C           1.3878    2.1499   30.7478 C.ar    1  UNL1        0.0670
      2 C           2.2813    1.2058   31.4964 C.ar    1  UNL1        0.0191
      3 C           2.6118    1.4684   32.9357 C.ar    1  UNL1        0.0203
      4 C           2.0489    2.6751   33.6264 C.ar    1  UNL1        0.0802
      5 C           1.1555    3.6192   32.8779 C.ar    1  UNL1        0.0396
      6 C           0.7519    4.7176   33.8162 C.ar    1  UNL1        0.1216
      7 N           1.3959    4.4524   35.1447 N.ar    1  UNL1       -0.1672
      8 N           2.1975    3.1901   35.0275 N.ar    1  UNL1       -0.2384
      9 C           0.8249    3.3566   31.4385 C.ar    1  UNL1        0.0207
     10 O          -1.0447    0.5449   30.0361 O.2     1  UNL1       -0.2665
     11 C          -0.1591    1.0848   28.9525 C.ar    1  UNL1        0.2679
     12 C          -0.4897    0.8223   27.5132 C.ar    1  UNL1        0.0980
     13 C           0.3960    1.3622   26.4296 C.ar    1  UNL1        0.1453
     14 C           1.6123    2.1648   26.7854 C.ar    1  UNL1        0.0561
     15 C           1.9429    2.4273   28.2249 C.ar    1  UNL1        0.0860
     16 N           1.0572    1.8874   29.3083 N.ar    1  UNL1       -0.2729
     17 O           0.0654    1.0997   24.9903 O.3     1  UNL1       -0.4704
     18 C           0.9486    1.6434   23.9067 C.3     1  UNL1        0.2320
     19 C           1.2991    0.7884   22.7251 C.ar    1  UNL1        0.0212
     20 C           2.5118   -0.0932   22.7706 C.ar    1  UNL1       -0.0007
     21 C           2.8622   -0.9482   21.5891 C.ar    1  UNL1       -0.0002
     22 C           2.0000   -0.9216   20.3620 C.ar    1  UNL1       -0.0000
     23 C           0.7873   -0.0400   20.3164 C.ar    1  UNL1       -0.0002
     24 C           0.4368    0.8150   21.4979 C.ar    1  UNL1       -0.0007
     25 C           3.0058    2.5543   36.1195 C.3     1  UNL1        0.2431
     26 C           2.3384    2.1196   37.3905 C.2     1  UNL1        0.3168
     27 N           2.6458    0.8728   38.1660 N.2     1  UNL1       -0.0631
     28 C           1.7439    0.8380   39.3641 C.3     1  UNL1        0.3130
     29 C           0.8791    2.0631   39.3291 C.3     1  UNL1        0.2575
     30 N           1.2465    2.8551   38.1094 N.pl3   1  UNL1       -0.2173
     31 H           0.8421    3.7080   37.8297 H       1  UNL1        0.2921
@<TRIPOS>BOND
     1    10    11    2
     2    11    12   ar
     3    12    13   ar
     4    13    17    1
     5    17    18    1
     6    18    19    1
     7    19    20   ar
     8    20    21   ar
     9    21    22   ar
    10    22    23   ar
    11    23    24   ar
    12    13    14   ar
    13    14    15   ar
    14    15    16   ar
    15    16     1    1
    16     1     2   ar
    17     2     3   ar
    18     3     4   ar
    19     4     5   ar
    20     5     6   ar
    21     6     7   ar
    22     7     8   ar
    23     8    25    1
    24    25    26    1
    25    26    27    2
    26    27    28    1
    27    28    29    1
    28    29    30    1
    29     5     9   ar
    30    16    11   ar
    31     9     1   ar
    32    24    19   ar
    33     8     4   ar
    34    30    26    1
    35    30    31    1
@<TRIPOS>MOLECULE
*****
 31 35 0 0 0
SMALL
GASTEIGER

@<TRIPOS>ATOM
      1 C           1.0571    2.5642   30.8381 C.ar    1  UNL1        0.0670
      2 C           1.9276    1.5240   31.4783 C.ar    1  UNL1        0.0191
      3 C           2.3418    1.6718   32.9124 C.ar    1  UNL1        0.0203
      4 C           1.8854    2.8599   33.7062 C.ar    1  UNL1        0.0802
      5 C           1.0148    3.9002   33.0659 C.ar    1  UNL1        0.0396
      6 C           0.7226    4.9551   34.0914 C.ar    1  UNL1        0.1216
      7 N           1.4127    4.5669   35.3655 N.ar    1  UNL1       -0.1672
      8 N           2.1313    3.2720   35.1274 N.ar    1  UNL1       -0.2384
      9 C           0.6006    3.7523   31.6319 C.ar    1  UNL1        0.0207
     10 O          -0.8953    0.4258   30.0535 O.2     1  UNL1       -0.2665
     11 C          -0.3334    1.3471   29.0117 C.ar    1  UNL1        0.2679
     12 C          -0.7476    1.1993   27.5777 C.ar    1  UNL1        0.0980
     13 C          -0.1856    2.1206   26.5358 C.ar    1  UNL1        0.1453
     14 C           0.7905    3.1898   26.9281 C.ar    1  UNL1        0.0561
     15 C           1.2048    3.3377   28.3622 C.ar    1  UNL1        0.0860
     16 N           0.6428    2.4163   29.4040 N.ar    1  UNL1       -0.2729
     17 O          -0.5999    1.9728   25.1018 O.3     1  UNL1       -0.4704
     18 C          -1.2571    3.1174   24.3892 C.3     1  UNL1        0.2320
     19 C          -2.6870    3.4623   24.6832 C.ar    1  UNL1        0.0212
     20 C          -3.7151    3.3910   23.5933 C.ar    1  UNL1       -0.0007
     21 C          -5.1449    3.7359   23.8873 C.ar    1  UNL1       -0.0002
     22 C          -5.5467    4.1521   25.2713 C.ar    1  UNL1       -0.0000
     23 C          -4.5187    4.2234   26.3612 C.ar    1  UNL1       -0.0002
     24 C          -3.0888    3.8785   26.0671 C.ar    1  UNL1       -0.0007
     25 C           2.9518    2.5210   36.1338 C.3     1  UNL1        0.2431
     26 C           2.3268    2.0600   37.4171 C.2     1  UNL1        0.3168
     27 N           2.7040    0.8308   38.1898 N.2     1  UNL1       -0.0631
     28 C           1.8253    0.7582   39.4032 C.3     1  UNL1        0.3130
     29 C           0.9049    1.9425   39.3806 C.3     1  UNL1        0.2575
     30 N           1.2149    2.7470   38.1531 N.pl3   1  UNL1       -0.2173
     31 H           0.7672    3.5798   37.8787 H       1  UNL1        0.2921
@<TRIPOS>BOND
     1    10    11    2
     2    11    12   ar
     3    12    13   ar
     4    13    17    1
     5    17    18    1
     6    18    19    1
     7    19    20   ar
     8    20    21   ar
     9    21    22   ar
    10    22    23   ar
    11    23    24   ar
    12    13    14   ar
    13    14    15   ar
    14    15    16   ar
    15    16     1    1
    16     1     2   ar
    17     2     3   ar
    18     3     4   ar
    19     4     5   ar
    20     5     6   ar
    21     6     7   ar
    22     7     8   ar
    23     8    25    1
    24    25    26    1
    25    26    27    2
    26    27    28    1
    27    28    29    1
    28    29    30    1
    29     5     9   ar
    30    16    11   ar
    31     9     1   ar
    32    24    19   ar
    33     8     4   ar
    34    30    26    1
    35    30    31    1
@<TRIPOS>MOLECULE
*****
 31 35 0 0 0
SMALL
GASTEIGER

@<TRIPOS>ATOM
      1 C           2.8337   -0.5228   21.0395 C.ar    1  UNL1        0.0670
      2 C           1.5682   -0.8008   20.2837 C.ar    1  UNL1        0.0191
      3 C           0.5119    0.2585   20.1743 C.ar    1  UNL1        0.0203
      4 C           0.7211    1.5959   20.8205 C.ar    1  UNL1        0.0802
      5 C           1.9865    1.8739   21.5763 C.ar    1  UNL1        0.0396
      6 C           1.9124    3.2759   22.1046 C.ar    1  UNL1        0.1216
      7 N           0.6011    3.8643   21.6753 N.ar    1  UNL1       -0.1672
      8 N          -0.1352    2.8260   20.8817 N.ar    1  UNL1       -0.2384
      9 C           3.0428    0.8146   21.6858 C.ar    1  UNL1        0.0207
     10 O           4.7808   -0.9369   18.7952 O.2     1  UNL1       -0.2665
     11 C           4.8636   -1.7892   20.0268 C.ar    1  UNL1        0.2679
     12 C           5.9200   -2.8485   20.1363 C.ar    1  UNL1        0.0980
     13 C           6.0028   -3.7007   21.3679 C.ar    1  UNL1        0.1453
     14 C           5.0292   -3.4936   22.4901 C.ar    1  UNL1        0.0561
     15 C           3.9728   -2.4343   22.3806 C.ar    1  UNL1        0.0860
     16 N           3.8900   -1.5821   21.1490 N.ar    1  UNL1       -0.2729
     17 O           7.0591   -4.7600   21.4774 O.3     1  UNL1       -0.4704
     18 C           8.0631   -4.7058   22.5905 C.3     1  UNL1        0.2320
     19 C           7.8581   -5.5309   23.8263 C.ar    1  UNL1        0.0212
     20 C           8.3198   -6.9576   23.8606 C.ar    1  UNL1       -0.0007
     21 C           8.1148   -7.7827   25.0964 C.ar    1  UNL1       -0.0002
     22 C           7.4481   -7.1810   26.2979 C.ar    1  UNL1       -0.0000
     23 C           6.9863   -5.7543   26.2635 C.ar    1  UNL1       -0.0002
     24 C           7.1913   -4.9293   25.0278 C.ar    1  UNL1       -0.0007
     25 C          -1.4899    2.9891   20.2587 C.3     1  UNL1        0.2431
     26 C          -2.6837    3.2700   21.1224 C.2     1  UNL1        0.3168
     27 N          -2.7324    4.2295   22.2745 N.2     1  UNL1       -0.0631
     28 C          -4.1171    4.1932   22.8498 C.3     1  UNL1        0.3130
     29 C          -4.9244    3.2113   22.0534 C.3     1  UNL1        0.2575
     30 N          -4.0385    2.6407   20.9858 N.pl3   1  UNL1       -0.2173
     31 H          -4.3003    1.9709   20.3136 H       1  UNL1        0.2921
@<TRIPOS>BOND
     1    10    11    2
     2    11    12   ar
     3    12    13   ar
     4    13    17    1
     5    17    18    1
     6    18    19    1
     7    19    20   ar
     8    20    21   ar
     9    21    22   ar
    10    22    23   ar
    11    23    24   ar
    12    13    14   ar
    13    14    15   ar
    14    15    16   ar
    15    16     1    1
    16     1     2   ar
    17     2     3   ar
    18     3     4   ar
    19     4     5   ar
    20     5     6   ar
    21     6     7   ar
    22     7     8   ar
    23     8    25    1
    24    25    26    1
    25    26    27    2
    26    27    28    1
    27    28    29    1
    28    29    30    1
    29     5     9   ar
    30    16    11   ar
    31     9     1   ar
    32    24    19   ar
    33     8     4   ar
    34    30    26    1
    35    30    31    1
@<TRIPOS>MOLECULE
*****
 31 35 0 0 0
SMALL
GASTEIGER

@<TRIPOS>ATOM
      1 C           6.8685   -3.6066   22.5524 C.ar    1  UNL1        0.0670
      2 C           6.1463   -2.9551   23.6942 C.ar    1  UNL1        0.0191
      3 C           6.1726   -3.5847   25.0553 C.ar    1  UNL1        0.0203
      4 C           6.9211   -4.8660   25.2747 C.ar    1  UNL1        0.0802
      5 C           7.6434   -5.5175   24.1329 C.ar    1  UNL1        0.0396
      6 C           8.2920   -6.7681   24.6479 C.ar    1  UNL1        0.1216
      7 N           7.9706   -6.8895   26.1081 N.ar    1  UNL1       -0.1672
      8 N           7.1234   -5.7139   26.4955 N.ar    1  UNL1       -0.2384
      9 C           7.6171   -4.8879   22.7717 C.ar    1  UNL1        0.0207
     10 O           4.9147   -4.5720   20.4907 O.2     1  UNL1       -0.2665
     11 C           5.8653   -3.4596   20.1603 C.ar    1  UNL1        0.2679
     12 C           5.8390   -2.8300   18.7991 C.ar    1  UNL1        0.0980
     13 C           6.7897   -1.7177   18.4687 C.ar    1  UNL1        0.1453
     14 C           7.7666   -1.2350   19.4996 C.ar    1  UNL1        0.0561
     15 C           7.7929   -1.8647   20.8608 C.ar    1  UNL1        0.0860
     16 N           6.8422   -2.9770   21.1911 N.ar    1  UNL1       -0.2729
     17 O           6.7633   -1.0881   17.1075 O.3     1  UNL1       -0.4704
     18 C           6.0517    0.2155   16.8979 C.3     1  UNL1        0.2320
     19 C           4.8478    0.5545   17.7260 C.ar    1  UNL1        0.0212
     20 C           3.5419   -0.1374   17.4693 C.ar    1  UNL1       -0.0007
     21 C           2.3381    0.2016   18.2974 C.ar    1  UNL1       -0.0002
     22 C           2.4401    1.2325   19.3822 C.ar    1  UNL1       -0.0000
     23 C           3.7459    1.9245   19.6388 C.ar    1  UNL1       -0.0002
     24 C           4.9498    1.5855   18.8107 C.ar    1  UNL1       -0.0007
     25 C           6.5747   -5.4351   27.8634 C.3     1  UNL1        0.2431
     26 C           7.3737   -5.7974   29.0801 C.2     1  UNL1        0.3168
     27 N           6.9104   -5.6914   30.5029 N.2     1  UNL1       -0.0631
     28 C           8.0265   -6.1579   31.3898 C.3     1  UNL1        0.3130
     29 C           9.1797   -6.5522   30.5152 C.3     1  UNL1        0.2575
     30 N           8.7761   -6.3295   29.0878 N.pl3   1  UNL1       -0.2173
     31 H           9.3339   -6.5021   28.2951 H       1  UNL1        0.2921
@<TRIPOS>BOND
     1    10    11    2
     2    11    12   ar
     3    12    13   ar
     4    13    17    1
     5    17    18    1
     6    18    19    1
     7    19    20   ar
     8    20    21   ar
     9    21    22   ar
    10    22    23   ar
    11    23    24   ar
    12    13    14   ar
    13    14    15   ar
    14    15    16   ar
    15    16     1    1
    16     1     2   ar
    17     2     3   ar
    18     3     4   ar
    19     4     5   ar
    20     5     6   ar
    21     6     7   ar
    22     7     8   ar
    23     8    25    1
    24    25    26    1
    25    26    27    2
    26    27    28    1
    27    28    29    1
    28    29    30    1
    29     5     9   ar
    30    16    11   ar
    31     9     1   ar
    32    24    19   ar
    33     8     4   ar
    34    30    26    1
    35    30    31    1
@<TRIPOS>MOLECULE
*****
 31 35 0 0 0
SMALL
GASTEIGER

@<TRIPOS>ATOM
      1 C           7.8485   -5.0545   24.6720 C.ar    1  UNL1        0.0670
      2 C           8.3179   -4.1287   25.7548 C.ar    1  UNL1        0.0191
      3 C           8.6433   -4.6699   27.1154 C.ar    1  UNL1        0.0203
      4 C           8.4992   -6.1368   27.3932 C.ar    1  UNL1        0.0802
      5 C           8.0297   -7.0627   26.3104 C.ar    1  UNL1        0.0396
      6 C           7.9842   -8.4514   26.8755 C.ar    1  UNL1        0.1216
      7 N           8.4255   -8.3839   28.3076 N.ar    1  UNL1       -0.1672
      8 N           8.7438   -6.9534   28.6276 N.ar    1  UNL1       -0.2384
      9 C           7.7044   -6.5215   24.9499 C.ar    1  UNL1        0.0207
     10 O           5.4305   -3.3212   24.2860 O.2     1  UNL1       -0.2665
     11 C           6.3141   -3.6467   23.1183 C.ar    1  UNL1        0.2679
     12 C           5.9887   -3.1056   21.7577 C.ar    1  UNL1        0.0980
     13 C           6.8724   -3.4311   20.5901 C.ar    1  UNL1        0.1453
     14 C           8.0813   -4.2978   20.7831 C.ar    1  UNL1        0.0561
     15 C           8.4067   -4.8389   22.1438 C.ar    1  UNL1        0.0860
     16 N           7.5231   -4.5134   23.3113 N.ar    1  UNL1       -0.2729
     17 O           6.5470   -2.8900   19.2295 O.3     1  UNL1       -0.4704
     18 C           5.1865   -3.1141   18.6389 C.3     1  UNL1        0.2320
     19 C           4.1411   -2.0427   18.7355 C.ar    1  UNL1        0.0212
     20 C           4.1145   -0.9282   17.7320 C.ar    1  UNL1       -0.0007
     21 C           3.0692    0.1432   17.8286 C.ar    1  UNL1       -0.0002
     22 C           2.0504    0.1000   18.9287 C.ar    1  UNL1       -0.0000
     23 C           2.0770   -1.0145   19.9322 C.ar    1  UNL1       -0.0002
     24 C           3.1223   -2.0859   19.8356 C.ar    1  UNL1       -0.0007
     25 C           9.2226   -6.4311   29.9496 C.3     1  UNL1        0.2431
     26 C           8.4000   -5.4274   30.7019 C.2     1  UNL1        0.3168
     27 N           8.8263   -4.0375   31.0715 N.2     1  UNL1       -0.0631
     28 C           7.6966   -3.3884   31.8147 C.3     1  UNL1        0.3130
     29 C           6.5720   -4.3771   31.9044 C.3     1  UNL1        0.2575
     30 N           7.0068   -5.6372   31.2167 N.pl3   1  UNL1       -0.2173
     31 H           6.4718   -6.4579   31.1201 H       1  UNL1        0.2921
@<TRIPOS>BOND
     1    10    11    2
     2    11    12   ar
     3    12    13   ar
     4    13    17    1
     5    17    18    1
     6    18    19    1
     7    19    20   ar
     8    20    21   ar
     9    21    22   ar
    10    22    23   ar
    11    23    24   ar
    12    13    14   ar
    13    14    15   ar
    14    15    16   ar
    15    16     1    1
    16     1     2   ar
    17     2     3   ar
    18     3     4   ar
    19     4     5   ar
    20     5     6   ar
    21     6     7   ar
    22     7     8   ar
    23     8    25    1
    24    25    26    1
    25    26    27    2
    26    27    28    1
    27    28    29    1
    28    29    30    1
    29     5     9   ar
    30    16    11   ar
    31     9     1   ar
    32    24    19   ar
    33     8     4   ar
    34    30    26    1
    35    30    31    1
