@<TRIPOS>MOLECULE
*****
 30 32 0 0 0
SMALL
GASTEIGER

@<TRIPOS>ATOM
      1 N          -8.0619  -18.2401   22.6193 N.am    1  UNL1       -0.2972
      2 C          -8.5130  -18.3437   21.1925 C.2     1  UNL1        0.2430
      3 O          -9.7639  -17.6449   20.7487 O.2     1  UNL1       -0.2732
      4 H          -7.2409  -18.6988   22.9105 H       1  UNL1        0.1500
      5 C          -8.8618  -17.4378   23.6024 C.3     1  UNL1        0.1166
      6 C         -10.4985  -19.7143   24.6697 C.3     1  UNL1        0.0308
      7 C         -11.1761  -18.5377   24.0320 C.ar    1  UNL1       -0.0240
      8 C         -12.6719  -18.4994   23.9279 C.ar    1  UNL1       -0.0045
      9 C         -13.3495  -17.3229   23.2902 C.ar    1  UNL1       -0.0003
     10 C         -12.5312  -16.1847   22.7566 C.ar    1  UNL1       -0.0003
     11 C         -11.0354  -16.2230   22.8606 C.ar    1  UNL1       -0.0027
     12 C         -10.3578  -17.3995   23.4983 C.ar    1  UNL1       -0.0043
     13 C          -8.1658  -16.6738   24.6895 C.ar    1  UNL1       -0.0003
     14 C          -6.8882  -15.9453   24.3944 C.ar    1  UNL1       -0.0024
     15 C          -6.1922  -15.1812   25.4815 C.ar    1  UNL1       -0.0003
     16 C          -6.7738  -15.1457   26.8637 C.ar    1  UNL1       -0.0000
     17 C          -8.0513  -15.8741   27.1588 C.ar    1  UNL1       -0.0003
     18 C          -8.7474  -16.6382   26.0717 C.ar    1  UNL1       -0.0024
     19 C          -7.7131  -19.1460   20.2094 C.3     1  UNL1        0.1759
     20 N          -6.2835  -18.7850   19.9336 N.am    1  UNL1       -0.2931
     21 C          -5.2038  -19.2224   20.8787 C.2     1  UNL1        0.2462
     22 O          -5.5538  -20.0208   22.0995 O.2     1  UNL1       -0.2701
     23 H          -6.0538  -18.2611   19.1324 H       1  UNL1        0.1502
     24 C          -3.7743  -18.8615   20.6030 C.ar    1  UNL1        0.0535
     25 C          -2.7696  -18.8731   21.7167 C.ar    1  UNL1        0.0068
     26 C          -1.3400  -18.5122   21.4410 C.ar    1  UNL1        0.0298
     27 C          -0.9151  -18.1396   20.0515 C.ar    1  UNL1        0.1401
     28 F           0.5144  -17.7787   19.7758 F       1  UNL1       -0.2042
     29 C          -1.9198  -18.1280   18.9377 C.ar    1  UNL1        0.0298
     30 C          -3.3494  -18.4889   19.2135 C.ar    1  UNL1        0.0068
@<TRIPOS>BOND
     1     6     7    1
     2     7     8   ar
     3     8     9   ar
     4     9    10   ar
     5    10    11   ar
     6    11    12   ar
     7    12     5    1
     8     5     1    1
     9     1     2   am
    10     2     3    2
    11     2    19    1
    12    19    20    1
    13    20    21   am
    14    21    22    2
    15    21    24    1
    16    24    25   ar
    17    25    26   ar
    18    26    27   ar
    19    27    28    1
    20    27    29   ar
    21    29    30   ar
    22     5    13    1
    23    13    14   ar
    24    14    15   ar
    25    15    16   ar
    26    16    17   ar
    27    17    18   ar
    28    12     7   ar
    29    30    24   ar
    30    18    13   ar
    31     1     4    1
    32    20    23    1
@<TRIPOS>MOLECULE
*****
 30 32 0 0 0
SMALL
GASTEIGER

@<TRIPOS>ATOM
      1 N          -7.7785  -17.1494   22.0000 N.am    1  UNL1       -0.2972
      2 C          -7.6133  -16.8632   23.4632 C.2     1  UNL1        0.2430
      3 O          -8.6501  -17.3317   24.4408 O.2     1  UNL1       -0.2732
      4 H          -7.0981  -16.8419   21.3584 H       1  UNL1        0.1500
      5 C          -8.9805  -17.9041   21.5145 C.3     1  UNL1        0.1166
      6 C         -10.4145  -19.9904   23.1242 C.3     1  UNL1        0.0308
      7 C         -11.0511  -18.6518   22.8941 C.ar    1  UNL1       -0.0240
      8 C         -12.4048  -18.3564   23.4689 C.ar    1  UNL1       -0.0045
      9 C         -13.0414  -17.0178   23.2388 C.ar    1  UNL1       -0.0003
     10 C         -12.3244  -15.9747   22.4340 C.ar    1  UNL1       -0.0003
     11 C         -10.9708  -16.2701   21.8592 C.ar    1  UNL1       -0.0027
     12 C         -10.3342  -17.6087   22.0893 C.ar    1  UNL1       -0.0043
     13 C          -8.8288  -18.9542   20.4542 C.ar    1  UNL1       -0.0003
     14 C          -7.5340  -19.6989   20.3159 C.ar    1  UNL1       -0.0024
     15 C          -7.3823  -20.7490   19.2556 C.ar    1  UNL1       -0.0003
     16 C          -8.5253  -21.0544   18.3336 C.ar    1  UNL1       -0.0000
     17 C          -9.8200  -20.3098   18.4718 C.ar    1  UNL1       -0.0003
     18 C          -9.9718  -19.2596   19.5321 C.ar    1  UNL1       -0.0024
     19 C          -6.4114  -16.1085   23.9487 C.3     1  UNL1        0.1759
     20 N          -5.1213  -16.1821   23.1868 N.am    1  UNL1       -0.2931
     21 C          -4.6067  -17.5079   22.7098 C.2     1  UNL1        0.2462
     22 O          -5.3821  -18.7600   22.9947 O.2     1  UNL1       -0.2701
     23 H          -4.6125  -15.3604   22.9998 H       1  UNL1        0.1502
     24 C          -3.3167  -17.5816   21.9479 C.ar    1  UNL1        0.0535
     25 C          -2.4183  -16.3825   21.8765 C.ar    1  UNL1        0.0068
     26 C          -1.1283  -16.4562   21.1146 C.ar    1  UNL1        0.0298
     27 C          -0.7368  -17.7290   20.4241 C.ar    1  UNL1        0.1401
     28 F           0.5532  -17.8027   19.6622 F       1  UNL1       -0.2042
     29 C          -1.6352  -18.9281   20.4955 C.ar    1  UNL1        0.0298
     30 C          -2.9252  -18.8543   21.2574 C.ar    1  UNL1        0.0068
@<TRIPOS>BOND
     1     6     7    1
     2     7     8   ar
     3     8     9   ar
     4     9    10   ar
     5    10    11   ar
     6    11    12   ar
     7    12     5    1
     8     5     1    1
     9     1     2   am
    10     2     3    2
    11     2    19    1
    12    19    20    1
    13    20    21   am
    14    21    22    2
    15    21    24    1
    16    24    25   ar
    17    25    26   ar
    18    26    27   ar
    19    27    28    1
    20    27    29   ar
    21    29    30   ar
    22     5    13    1
    23    13    14   ar
    24    14    15   ar
    25    15    16   ar
    26    16    17   ar
    27    17    18   ar
    28    12     7   ar
    29    30    24   ar
    30    18    13   ar
    31     1     4    1
    32    20    23    1
