@<TRIPOS>MOLECULE
*****
 29 32 0 0 0
SMALL
GASTEIGER

@<TRIPOS>ATOM
      1 C          -9.0419  -17.4121   23.3257 C.ar    1  UNL1        0.1194
      2 N          -8.4097  -16.1301   23.7802 N.ar    1  UNL1       -0.2208
      3 C          -6.9471  -15.8916   23.5481 C.ar    1  UNL1        0.2002
      4 N          -6.1167  -16.9351   22.8614 N.ar    1  UNL1       -0.2058
      5 C          -6.7489  -18.2172   22.4069 C.ar    1  UNL1        0.1695
      6 C          -8.2116  -18.4557   22.6390 C.ar    1  UNL1        0.1834
      7 O          -8.8438  -19.7377   22.1845 O.3     1  UNL1       -0.5020
      8 H          -8.3251  -20.3896   21.7555 H       1  UNL1        0.2924
      9 C         -14.8924  -18.3661   24.2542 C.3     1  UNL1        0.0310
     10 C         -13.4298  -18.1276   24.0220 C.ar    1  UNL1       -0.0218
     11 C         -12.4111  -18.8439   24.8583 C.ar    1  UNL1       -0.0042
     12 C         -10.9485  -18.6054   24.6262 C.ar    1  UNL1        0.0013
     13 C         -10.5045  -17.6506   23.5578 C.ar    1  UNL1        0.0208
     14 C         -11.5232  -16.9343   22.7216 C.ar    1  UNL1        0.0013
     15 C         -12.9858  -17.1728   22.9537 C.ar    1  UNL1       -0.0042
     16 N          -5.9186  -19.2607   21.7202 N.pl3   1  UNL1       -0.2954
     17 H          -6.3071  -20.1414   21.5136 H       1  UNL1        0.1537
     18 C          -4.4963  -18.9624   21.3484 C.ar    1  UNL1        0.0493
     19 C          -3.4192  -19.0278   22.3903 C.ar    1  UNL1        0.0149
     20 C          -1.9970  -18.7295   22.0185 C.ar    1  UNL1        0.0084
     21 C          -1.6519  -18.3658   20.6047 C.ar    1  UNL1        0.0815
     22 C          -2.7290  -18.3004   19.5629 C.ar    1  UNL1        0.0325
     23 C          -4.1512  -18.5987   19.9347 C.ar    1  UNL1        0.0146
     24 C          -2.0913  -17.9167   18.2605 C.3     1  UNL1        0.2269
     25 N          -0.6202  -17.7449   18.4975 N.pl3   1  UNL1       -0.2153
     26 C          -0.3485  -18.0225   19.9463 C.2     1  UNL1        0.3122
     27 N           0.9912  -17.9666   20.6187 N.2     1  UNL1       -0.0993
     28 H           0.0496  -17.4941   17.8209 H       1  UNL1        0.2926
     29 H           1.7932  -17.7302   20.0990 H       1  UNL1        0.3633
@<TRIPOS>BOND
     1     9    10    1
     2    10    11   ar
     3    11    12   ar
     4    12    13   ar
     5    13     1    1
     6     1     2   ar
     7     2     3   ar
     8     3     4   ar
     9     4     5   ar
    10     5    16    1
    11    16    18    1
    12    18    19   ar
    13    19    20   ar
    14    20    21   ar
    15    21    22   ar
    16    22    23   ar
    17    22    24    1
    18    24    25    1
    19    25    26    1
    20    26    27    2
    21     5     6   ar
    22     6     7    1
    23    13    14   ar
    24    14    15   ar
    25    15    10   ar
    26     6     1   ar
    27    23    18   ar
    28    26    21    1
    29    16    17    1
    30    25    28    1
    31    27    29    1
    32     7     8    1
@<TRIPOS>MOLECULE
*****
 29 32 0 0 0
SMALL
GASTEIGER

@<TRIPOS>ATOM
      1 C          -9.8490  -19.2646   21.3904 C.ar    1  UNL1        0.1194
      2 N         -10.0089  -19.1832   19.9012 N.ar    1  UNL1       -0.2208
      3 C          -8.8496  -19.5009   19.0039 C.ar    1  UNL1        0.2002
      4 N          -7.5304  -19.9000   19.5958 N.ar    1  UNL1       -0.2058
      5 C          -7.3704  -19.9814   21.0851 C.ar    1  UNL1        0.1695
      6 C          -8.5297  -19.6637   21.9824 C.ar    1  UNL1        0.1834
      7 O          -8.3698  -19.7451   23.4716 O.3     1  UNL1       -0.5020
      8 H          -7.5457  -19.9944   23.8413 H       1  UNL1        0.2924
      9 C         -14.4861  -17.9940   24.9796 C.3     1  UNL1        0.0310
     10 C         -13.3269  -18.3117   24.0823 C.ar    1  UNL1       -0.0218
     11 C         -13.3219  -17.8260   22.6631 C.ar    1  UNL1       -0.0042
     12 C         -12.1626  -18.1436   21.7658 C.ar    1  UNL1        0.0013
     13 C         -11.0083  -18.9470   22.2877 C.ar    1  UNL1        0.0208
     14 C         -11.0133  -19.4326   23.7069 C.ar    1  UNL1        0.0013
     15 C         -12.1726  -19.1150   24.6042 C.ar    1  UNL1       -0.0042
     16 N          -6.0512  -20.3804   21.6770 N.pl3   1  UNL1       -0.2954
     17 H          -6.0119  -21.0898   22.3585 H       1  UNL1        0.1537
     18 C          -4.7919  -19.6987   21.2305 C.ar    1  UNL1        0.0493
     19 C          -4.0764  -20.1752   20.0012 C.ar    1  UNL1        0.0149
     20 C          -2.8171  -19.4934   19.5548 C.ar    1  UNL1        0.0084
     21 C          -2.2733  -18.3352   20.3375 C.ar    1  UNL1        0.0815
     22 C          -2.9887  -17.8587   21.5668 C.ar    1  UNL1        0.0325
     23 C          -4.2480  -18.5405   22.0132 C.ar    1  UNL1        0.0146
     24 C          -2.2197  -16.7012   22.1313 C.3     1  UNL1        0.2269
     25 N          -1.0289  -16.4623   21.2509 N.pl3   1  UNL1       -0.2153
     26 C          -1.0620  -17.4722   20.1423 C.2     1  UNL1        0.3122
     27 N          -0.0599  -17.5971   19.0332 N.2     1  UNL1       -0.0993
     28 H          -0.3456  -15.7651   21.3783 H       1  UNL1        0.2926
     29 H           0.7061  -16.9801   18.9901 H       1  UNL1        0.3633
@<TRIPOS>BOND
     1     9    10    1
     2    10    11   ar
     3    11    12   ar
     4    12    13   ar
     5    13     1    1
     6     1     2   ar
     7     2     3   ar
     8     3     4   ar
     9     4     5   ar
    10     5    16    1
    11    16    18    1
    12    18    19   ar
    13    19    20   ar
    14    20    21   ar
    15    21    22   ar
    16    22    23   ar
    17    22    24    1
    18    24    25    1
    19    25    26    1
    20    26    27    2
    21     5     6   ar
    22     6     7    1
    23    13    14   ar
    24    14    15   ar
    25    15    10   ar
    26     6     1   ar
    27    23    18   ar
    28    26    21    1
    29    16    17    1
    30    25    28    1
    31    27    29    1
    32     7     8    1
