@<TRIPOS>MOLECULE
*****
 29 33 0 0 0
SMALL
GASTEIGER

@<TRIPOS>ATOM
      1 C         -15.8597   -1.9438   19.6406 C.3     1  UNL1        0.0578
      2 C         -17.0141   -2.9004   19.6881 C.3     1  UNL1        0.0163
      3 C         -16.4706   -4.2905   19.5398 C.3     1  UNL1        0.0058
      4 C         -14.9802   -4.1931   19.4007 C.3     1  UNL1        0.0240
      5 C         -13.5294   -3.8307   19.2835 C.3     1  UNL1        0.0301
      6 C         -12.3496   -4.7398   19.1059 C.ar    1  UNL1       -0.0255
      7 C         -11.0670   -3.9655   19.0334 C.ar    1  UNL1       -0.0046
      8 C          -9.7641   -4.6873   18.8565 C.ar    1  UNL1       -0.0003
      9 C          -9.7438   -6.1836   18.7522 C.ar    1  UNL1       -0.0003
     10 C         -11.0264   -6.9579   18.8247 C.ar    1  UNL1       -0.0042
     11 C         -12.3293   -6.2360   19.0015 C.ar    1  UNL1       -0.0217
     12 C         -13.4838   -7.1926   19.0490 C.3     1  UNL1        0.0520
     13 C         -14.9436   -6.8893   19.2126 C.ar    1  UNL1       -0.0218
     14 C         -15.7678   -8.1425   19.2075 C.ar    1  UNL1       -0.0042
     15 C         -17.2579   -8.0609   19.3589 C.ar    1  UNL1       -0.0003
     16 C         -17.9238   -6.7261   19.5153 C.ar    1  UNL1       -0.0003
     17 C         -17.0997   -5.4727   19.5205 C.ar    1  UNL1       -0.0046
     18 C         -15.6096   -5.5543   19.3691 C.ar    1  UNL1       -0.0261
     19 C         -14.6026   -2.7427   19.4630 C.3     1  UNL1        0.0203
     20 C         -16.1215    2.5363   19.9728 C.3     1  UNL1        0.1678
     21 F         -16.9345    3.5919   20.6617 F       1  UNL1       -0.2342
     22 C         -17.0832    1.6705   20.7314 C.3     1  UNL1        0.0554
     23 C         -16.9960    0.1772   20.6207 C.3     1  UNL1        0.0752
     24 N         -15.9469   -0.4504   19.7514 N.3     1  UNL1       -0.2738
     25 C         -14.9851    0.4154   18.9928 C.3     1  UNL1        0.0752
     26 C         -15.0724    1.9087   19.1035 C.3     1  UNL1        0.0554
     27 O         -15.5029    4.0991   17.9916 O.co2   1  UNL1       -0.5465
     28 C         -15.4420    3.7687   19.4535 C.2     1  UNL1        0.0798
     29 O         -14.7018    4.6707   20.3961 O.co2   1  UNL1       -0.5465
@<TRIPOS>UNITY_ATOM_ATTR
27 1
charge -1
@<TRIPOS>BOND
     1    27    28   ar
     2    28    29   ar
     3    28    20    1
     4    20    21    1
     5    20    22    1
     6    22    23    1
     7    23    24    1
     8    24     1    1
     9     1     2    1
    10     2     3    1
    11     4     3    1
    12     4     5    1
    13     5     6    1
    14     6     7   ar
    15     7     8   ar
    16     8     9   ar
    17     9    10   ar
    18    10    11   ar
    19    11    12    1
    20    12    13    1
    21    13    14   ar
    22    14    15   ar
    23    15    16   ar
    24    16    17   ar
    25    17    18   ar
    26     4    19    1
    27    24    25    1
    28    25    26    1
    29    26    20    1
    30    19     1    1
    31    18     4    1
    32    11     6   ar
    33    18    13   ar
@<TRIPOS>MOLECULE
*****
 29 33 0 0 0
SMALL
GASTEIGER

@<TRIPOS>ATOM
      1 C         -14.0255   -1.9325   19.2130 C.3     1  UNL1        0.0578
      2 C         -12.5395   -2.1186   19.1284 C.3     1  UNL1        0.0163
      3 C         -12.2605   -3.5901   19.0478 C.3     1  UNL1        0.0058
      4 C         -13.5740   -4.3136   19.0827 C.3     1  UNL1        0.0240
      5 C         -14.9950   -4.7912   19.1341 C.3     1  UNL1        0.0301
      6 C         -15.5105   -6.1994   19.0972 C.ar    1  UNL1       -0.0255
      7 C         -17.0081   -6.2370   19.1724 C.ar    1  UNL1       -0.0046
      8 C         -17.7273   -7.5531   19.1501 C.ar    1  UNL1       -0.0003
      9 C         -16.9489   -8.8316   19.0526 C.ar    1  UNL1       -0.0003
     10 C         -15.4513   -8.7940   18.9775 C.ar    1  UNL1       -0.0042
     11 C         -14.7321   -7.4779   18.9998 C.ar    1  UNL1       -0.0217
     12 C         -13.2460   -7.6639   18.9151 C.3     1  UNL1        0.0520
     13 C         -12.1714   -6.6175   18.9071 C.ar    1  UNL1       -0.0218
     14 C         -10.8072   -7.2335   18.8093 C.ar    1  UNL1       -0.0042
     15 C          -9.5891   -6.3585   18.7862 C.ar    1  UNL1       -0.0003
     16 C          -9.7350   -4.8676   18.8607 C.ar    1  UNL1       -0.0003
     17 C         -11.0992   -4.2515   18.9585 C.ar    1  UNL1       -0.0046
     18 C         -12.3174   -5.1264   18.9816 C.ar    1  UNL1       -0.0261
     19 C         -14.6649   -3.2891   19.1848 C.3     1  UNL1        0.0203
     20 C         -16.1861    2.0044   19.5010 C.3     1  UNL1        0.1678
     21 F         -17.4100    2.6000   20.1312 F       1  UNL1       -0.2342
     22 C         -16.7318    0.7963   20.2030 C.3     1  UNL1        0.0554
     23 C         -16.0116   -0.5160   20.1070 C.3     1  UNL1        0.0752
     24 N         -14.7457   -0.6202   19.3090 N.3     1  UNL1       -0.2738
     25 C         -14.2000    0.5879   18.6071 C.3     1  UNL1        0.0752
     26 C         -14.9202    1.9001   18.7031 C.3     1  UNL1        0.0554
     27 O         -17.1716    4.0336   18.2122 O.co2   1  UNL1       -0.5465
     28 C         -16.0655    3.4194   19.0179 C.2     1  UNL1        0.0798
     29 O         -14.8387    4.2200   19.3406 O.co2   1  UNL1       -0.5465
@<TRIPOS>UNITY_ATOM_ATTR
27 1
charge -1
@<TRIPOS>BOND
     1    27    28   ar
     2    28    29   ar
     3    28    20    1
     4    20    21    1
     5    20    22    1
     6    22    23    1
     7    23    24    1
     8    24     1    1
     9     1     2    1
    10     2     3    1
    11     4     3    1
    12     4     5    1
    13     5     6    1
    14     6     7   ar
    15     7     8   ar
    16     8     9   ar
    17     9    10   ar
    18    10    11   ar
    19    11    12    1
    20    12    13    1
    21    13    14   ar
    22    14    15   ar
    23    15    16   ar
    24    16    17   ar
    25    17    18   ar
    26     4    19    1
    27    24    25    1
    28    25    26    1
    29    26    20    1
    30    19     1    1
    31    18     4    1
    32    11     6   ar
    33    18    13   ar
@<TRIPOS>MOLECULE
*****
 29 33 0 0 0
SMALL
GASTEIGER

@<TRIPOS>ATOM
      1 C          -5.4570  -18.3149   21.3404 C.3     1  UNL1        0.0578
      2 C          -6.6517  -19.0819   20.8563 C.3     1  UNL1        0.0163
      3 C          -7.7769  -18.8433   21.8190 C.3     1  UNL1        0.0058
      4 C          -7.2776  -17.9288   22.8981 C.3     1  UNL1        0.0240
      5 C          -6.5461  -17.0208   23.8418 C.3     1  UNL1        0.0301
      6 C          -7.0552  -16.3626   25.0898 C.ar    1  UNL1       -0.0255
      7 C          -5.9923  -15.5296   25.7428 C.ar    1  UNL1       -0.0046
      8 C          -6.2958  -14.7839   27.0083 C.ar    1  UNL1       -0.0003
      9 C          -7.6622  -14.8711   27.6210 C.ar    1  UNL1       -0.0003
     10 C          -8.7251  -15.7040   26.9680 C.ar    1  UNL1       -0.0042
     11 C          -8.4216  -16.4498   25.7024 C.ar    1  UNL1       -0.0217
     12 C          -9.6164  -17.2168   25.2183 C.3     1  UNL1        0.0520
     13 C          -9.7399  -18.0860   24.0021 C.ar    1  UNL1       -0.0218
     14 C         -11.1158  -18.6715   23.8842 C.ar    1  UNL1       -0.0042
     15 C         -11.4509  -19.5739   22.7338 C.ar    1  UNL1       -0.0003
     16 C         -10.4101  -19.8907   21.7013 C.ar    1  UNL1       -0.0003
     17 C          -9.0341  -19.3052   21.8191 C.ar    1  UNL1       -0.0046
     18 C          -8.6990  -18.4029   22.9695 C.ar    1  UNL1       -0.0261
     19 C          -5.8438  -17.6023   22.6023 C.3     1  UNL1        0.0203
     20 C          -1.4209  -18.1763   19.3552 C.3     1  UNL1        0.1678
     21 F          -0.8141  -18.1838   17.9835 F       1  UNL1       -0.2342
     22 C          -2.6647  -18.2572   18.5208 C.3     1  UNL1        0.0554
     23 C          -4.0101  -18.3034   19.1825 C.3     1  UNL1        0.0752
     24 N          -4.1116  -18.2687   20.6787 N.3     1  UNL1       -0.2738
     25 C          -2.8677  -18.1878   21.5131 C.3     1  UNL1        0.0752
     26 C          -1.5224  -18.1416   20.8514 C.3     1  UNL1        0.0554
     27 O           0.8962  -19.3215   19.6188 O.co2   1  UNL1       -0.5465
     28 C           0.0337  -18.0980   19.7133 C.2     1  UNL1        0.0798
     29 O           0.6256  -16.7961   20.1658 O.co2   1  UNL1       -0.5465
@<TRIPOS>UNITY_ATOM_ATTR
27 1
charge -1
@<TRIPOS>BOND
     1    27    28   ar
     2    28    29   ar
     3    28    20    1
     4    20    21    1
     5    20    22    1
     6    22    23    1
     7    23    24    1
     8    24     1    1
     9     1     2    1
    10     2     3    1
    11     4     3    1
    12     4     5    1
    13     5     6    1
    14     6     7   ar
    15     7     8   ar
    16     8     9   ar
    17     9    10   ar
    18    10    11   ar
    19    11    12    1
    20    12    13    1
    21    13    14   ar
    22    14    15   ar
    23    15    16   ar
    24    16    17   ar
    25    17    18   ar
    26     4    19    1
    27    24    25    1
    28    25    26    1
    29    26    20    1
    30    19     1    1
    31    18     4    1
    32    11     6   ar
    33    18    13   ar
@<TRIPOS>MOLECULE
*****
 29 33 0 0 0
SMALL
GASTEIGER

@<TRIPOS>ATOM
      1 C          -4.6050  -17.1080   23.0799 C.3     1  UNL1        0.0578
      2 C          -4.4643  -16.4612   24.4259 C.3     1  UNL1        0.0163
      3 C          -5.8397  -16.1491   24.9364 C.3     1  UNL1        0.0058
      4 C          -6.8306  -16.6031   23.9058 C.3     1  UNL1        0.0240
      5 C          -7.6049  -17.1346   22.7362 C.3     1  UNL1        0.0301
      6 C          -9.0909  -17.1635   22.5335 C.ar    1  UNL1       -0.0255
      7 C          -9.4524  -17.7855   21.2173 C.ar    1  UNL1       -0.0046
      8 C         -10.8927  -17.9119   20.8180 C.ar    1  UNL1       -0.0003
      9 C         -11.9715  -17.4164   21.7349 C.ar    1  UNL1       -0.0003
     10 C         -11.6099  -16.7944   23.0511 C.ar    1  UNL1       -0.0042
     11 C         -10.1696  -16.6680   23.4504 C.ar    1  UNL1       -0.0217
     12 C         -10.0288  -16.0212   24.7964 C.3     1  UNL1        0.0520
     13 C          -8.7745  -15.7101   25.5581 C.ar    1  UNL1       -0.0218
     14 C          -9.0797  -15.0573   26.8736 C.ar    1  UNL1       -0.0042
     15 C          -7.9617  -14.6634   27.7927 C.ar    1  UNL1       -0.0003
     16 C          -6.5384  -14.9224   27.3963 C.ar    1  UNL1       -0.0003
     17 C          -6.2332  -15.5752   26.0808 C.ar    1  UNL1       -0.0046
     18 C          -7.3512  -15.9691   25.1616 C.ar    1  UNL1       -0.0261
     19 C          -6.0676  -17.1957   22.7584 C.3     1  UNL1        0.0203
     20 C          -1.2320  -18.5349   20.4652 C.3     1  UNL1        0.1678
     21 F          -0.6771  -19.8078   19.8981 F       1  UNL1       -0.2342
     22 C          -2.2070  -19.5213   21.0364 C.3     1  UNL1        0.0554
     23 C          -3.3314  -19.0457   21.9080 C.3     1  UNL1        0.0752
     24 N          -3.4807  -17.5836   22.2084 N.3     1  UNL1       -0.2738
     25 C          -2.5056  -16.5972   21.6371 C.3     1  UNL1        0.0752
     26 C          -1.3813  -17.0728   20.7656 C.3     1  UNL1        0.0554
     27 O          -0.1823  -17.7541   18.2205 O.co2   1  UNL1       -0.5465
     28 C          -0.0642  -17.9906   19.6970 C.2     1  UNL1        0.0798
     29 O           1.2217  -17.6828   20.4055 O.co2   1  UNL1       -0.5465
@<TRIPOS>UNITY_ATOM_ATTR
27 1
charge -1
@<TRIPOS>BOND
     1    27    28   ar
     2    28    29   ar
     3    28    20    1
     4    20    21    1
     5    20    22    1
     6    22    23    1
     7    23    24    1
     8    24     1    1
     9     1     2    1
    10     2     3    1
    11     4     3    1
    12     4     5    1
    13     5     6    1
    14     6     7   ar
    15     7     8   ar
    16     8     9   ar
    17     9    10   ar
    18    10    11   ar
    19    11    12    1
    20    12    13    1
    21    13    14   ar
    22    14    15   ar
    23    15    16   ar
    24    16    17   ar
    25    17    18   ar
    26     4    19    1
    27    24    25    1
    28    25    26    1
    29    26    20    1
    30    19     1    1
    31    18     4    1
    32    11     6   ar
    33    18    13   ar
@<TRIPOS>MOLECULE
*****
 29 33 0 0 0
SMALL
GASTEIGER

@<TRIPOS>ATOM
      1 C           4.1390   -1.5128   25.1278 C.3     1  UNL1        0.0578
      2 C           4.8744   -2.5140   24.2872 C.3     1  UNL1        0.0163
      3 C           4.4124   -2.3569   22.8688 C.3     1  UNL1        0.0058
      4 C           3.3914   -1.2585   22.8329 C.3     1  UNL1        0.0240
      5 C           2.4144   -0.1436   23.0617 C.3     1  UNL1        0.0301
      6 C           1.5441    0.5575   22.0611 C.ar    1  UNL1       -0.0255
      7 C           0.7090    1.6206   22.7108 C.ar    1  UNL1       -0.0046
      8 C          -0.2343    2.4431   21.8839 C.ar    1  UNL1       -0.0003
      9 C          -0.3425    2.2023   20.4073 C.ar    1  UNL1       -0.0003
     10 C           0.4927    1.1392   19.7576 C.ar    1  UNL1       -0.0042
     11 C           1.4360    0.3168   20.5845 C.ar    1  UNL1       -0.0217
     12 C           2.1714   -0.6845   19.7438 C.3     1  UNL1        0.0520
     13 C           3.1966   -1.6923   20.1720 C.ar    1  UNL1       -0.0218
     14 C           3.6857   -2.5045   19.0097 C.ar    1  UNL1       -0.0042
     15 C           4.7177   -3.5721   19.2221 C.ar    1  UNL1       -0.0003
     16 C           5.2606   -3.8275   20.5968 C.ar    1  UNL1       -0.0003
     17 C           4.7715   -3.0153   21.7592 C.ar    1  UNL1       -0.0046
     18 C           3.7395   -1.9477   21.5468 C.ar    1  UNL1       -0.0261
     19 C           3.2224   -0.7368   24.2290 C.3     1  UNL1        0.0203
     20 C           4.6012   -0.9379   29.5670 C.3     1  UNL1        0.1678
     21 F           5.6209   -1.1288   30.6504 F       1  UNL1       -0.2342
     22 C           5.7390   -1.4888   28.7596 C.3     1  UNL1        0.0554
     23 C           5.5850   -1.6805   27.2799 C.3     1  UNL1        0.0752
     24 N           4.2931   -1.3211   26.6075 N.3     1  UNL1       -0.2738
     25 C           3.1553   -0.7702   27.4150 C.3     1  UNL1        0.0752
     26 C           3.3094   -0.5785   28.8946 C.3     1  UNL1        0.0554
     27 O           4.4144    0.5607   31.6811 O.co2   1  UNL1       -0.5465
     28 C           3.8176   -0.4532   30.7506 C.2     1  UNL1        0.0798
     29 O           2.4371   -0.9826   31.0038 O.co2   1  UNL1       -0.5465
@<TRIPOS>UNITY_ATOM_ATTR
27 1
charge -1
@<TRIPOS>BOND
     1    27    28   ar
     2    28    29   ar
     3    28    20    1
     4    20    21    1
     5    20    22    1
     6    22    23    1
     7    23    24    1
     8    24     1    1
     9     1     2    1
    10     2     3    1
    11     4     3    1
    12     4     5    1
    13     5     6    1
    14     6     7   ar
    15     7     8   ar
    16     8     9   ar
    17     9    10   ar
    18    10    11   ar
    19    11    12    1
    20    12    13    1
    21    13    14   ar
    22    14    15   ar
    23    15    16   ar
    24    16    17   ar
    25    17    18   ar
    26     4    19    1
    27    24    25    1
    28    25    26    1
    29    26    20    1
    30    19     1    1
    31    18     4    1
    32    11     6   ar
    33    18    13   ar
@<TRIPOS>MOLECULE
*****
 29 33 0 0 0
SMALL
GASTEIGER

@<TRIPOS>ATOM
      1 C           1.2603    0.9749   24.5287 C.3     1  UNL1        0.0578
      2 C           0.5459    1.8153   23.5123 C.3     1  UNL1        0.0163
      3 C           0.9746    1.3589   22.1494 C.3     1  UNL1        0.0058
      4 C           1.9541    0.2362   22.3235 C.3     1  UNL1        0.0240
      5 C           2.8942   -0.8478   22.7606 C.3     1  UNL1        0.0301
      6 C           3.7191   -1.7691   21.9116 C.ar    1  UNL1       -0.0255
      7 C           4.5274   -2.7124   22.7523 C.ar    1  UNL1       -0.0046
      8 C           5.4242   -3.7205   22.0971 C.ar    1  UNL1       -0.0003
      9 C           5.5127   -3.7853   20.6011 C.ar    1  UNL1       -0.0003
     10 C           4.7044   -2.8420   19.7604 C.ar    1  UNL1       -0.0042
     11 C           3.8076   -1.8339   20.4157 C.ar    1  UNL1       -0.0217
     12 C           3.0931   -0.9934   19.3993 C.3     1  UNL1        0.0520
     13 C           2.1137    0.1195   19.6277 C.ar    1  UNL1       -0.0218
     14 C           1.6322    0.7006   18.3314 C.ar    1  UNL1       -0.0042
     15 C           0.6439    1.8290   18.3365 C.ar    1  UNL1       -0.0003
     16 C           0.1370    2.3762   19.6378 C.ar    1  UNL1       -0.0003
     17 C           0.6185    1.7950   20.9342 C.ar    1  UNL1       -0.0046
     18 C           1.6068    0.6667   20.9291 C.ar    1  UNL1       -0.0261
     19 C           2.1307   -0.0011   23.7940 C.3     1  UNL1        0.0203
     20 C           0.8625    1.3207   28.9978 C.3     1  UNL1        0.1678
     21 F          -0.1754    1.6165   30.0396 F       1  UNL1       -0.2342
     22 C          -0.3327    1.5426   28.1190 C.3     1  UNL1        0.0554
     23 C          -0.2001    1.4274   26.6294 C.3     1  UNL1        0.0752
     24 N           1.1277    1.0902   26.0184 N.3     1  UNL1       -0.2738
     25 C           2.3229    0.8683   26.8972 C.3     1  UNL1        0.0752
     26 C           2.1903    0.9835   28.3868 C.3     1  UNL1        0.0554
     27 O           2.2037    2.4363   30.9231 O.co2   1  UNL1       -0.5465
     28 C           1.6973    1.2015   30.2384 C.2     1  UNL1        0.0798
     29 O           2.0256   -0.1525   30.7942 O.co2   1  UNL1       -0.5465
@<TRIPOS>UNITY_ATOM_ATTR
27 1
charge -1
@<TRIPOS>BOND
     1    27    28   ar
     2    28    29   ar
     3    28    20    1
     4    20    21    1
     5    20    22    1
     6    22    23    1
     7    23    24    1
     8    24     1    1
     9     1     2    1
    10     2     3    1
    11     4     3    1
    12     4     5    1
    13     5     6    1
    14     6     7   ar
    15     7     8   ar
    16     8     9   ar
    17     9    10   ar
    18    10    11   ar
    19    11    12    1
    20    12    13    1
    21    13    14   ar
    22    14    15   ar
    23    15    16   ar
    24    16    17   ar
    25    17    18   ar
    26     4    19    1
    27    24    25    1
    28    25    26    1
    29    26    20    1
    30    19     1    1
    31    18     4    1
    32    11     6   ar
    33    18    13   ar
@<TRIPOS>MOLECULE
*****
 29 33 0 0 0
SMALL
GASTEIGER

@<TRIPOS>ATOM
      1 C         -14.5759   -4.9959   18.2416 C.3     1  UNL1        0.0578
      2 C         -13.2475   -4.8330   17.5645 C.3     1  UNL1        0.0163
      3 C         -12.9077   -3.3721   17.5558 C.3     1  UNL1        0.0058
      4 C         -14.0263   -2.6321   18.2275 C.3     1  UNL1        0.0240
      5 C         -15.2555   -2.1352   18.9290 C.3     1  UNL1        0.0301
      6 C         -15.6238   -0.7254   19.2853 C.ar    1  UNL1       -0.0255
      7 C         -16.9485   -0.6655   19.9862 C.ar    1  UNL1       -0.0046
      8 C         -17.5032    0.6557   20.4298 C.ar    1  UNL1       -0.0003
      9 C         -16.7330    1.9169   20.1725 C.ar    1  UNL1       -0.0003
     10 C         -15.4083    1.8570   19.4716 C.ar    1  UNL1       -0.0042
     11 C         -14.8537    0.5358   19.0279 C.ar    1  UNL1       -0.0217
     12 C         -13.5251    0.6987   18.3508 C.3     1  UNL1        0.0520
     13 C         -12.6385   -0.3593   17.7638 C.ar    1  UNL1       -0.0218
     14 C         -11.3910    0.2335   17.1789 C.ar    1  UNL1       -0.0042
     15 C         -10.3665   -0.6559   16.5391 C.ar    1  UNL1       -0.0003
     16 C         -10.5895   -2.1382   16.4843 C.ar    1  UNL1       -0.0003
     17 C         -11.8371   -2.7311   17.0692 C.ar    1  UNL1       -0.0046
     18 C         -12.8616   -1.8417   17.7089 C.ar    1  UNL1       -0.0261
     19 C         -15.0573   -3.6356   18.6514 C.3     1  UNL1        0.0203
     20 C         -16.7379   -8.8832   18.9238 C.3     1  UNL1        0.1678
     21 F         -17.8387   -9.4529   19.7686 F       1  UNL1       -0.2342
     22 C         -17.1170   -7.6655   19.7136 C.3     1  UNL1        0.0554
     23 C         -16.3963   -6.3698   19.4862 C.3     1  UNL1        0.0752
     24 N         -15.2966   -6.2917   18.4690 N.3     1  UNL1       -0.2738
     25 C         -14.9176   -7.5094   17.6793 C.3     1  UNL1        0.0752
     26 C         -15.6382   -8.8050   17.9067 C.3     1  UNL1        0.0554
     27 O         -15.4445  -11.0233   18.2190 O.co2   1  UNL1       -0.5465
     28 C         -16.7412  -10.2987   18.4275 C.2     1  UNL1        0.0798
     29 O         -18.0412  -10.9895   18.1396 O.co2   1  UNL1       -0.5465
@<TRIPOS>UNITY_ATOM_ATTR
27 1
charge -1
@<TRIPOS>BOND
     1    27    28   ar
     2    28    29   ar
     3    28    20    1
     4    20    21    1
     5    20    22    1
     6    22    23    1
     7    23    24    1
     8    24     1    1
     9     1     2    1
    10     2     3    1
    11     4     3    1
    12     4     5    1
    13     5     6    1
    14     6     7   ar
    15     7     8   ar
    16     8     9   ar
    17     9    10   ar
    18    10    11   ar
    19    11    12    1
    20    12    13    1
    21    13    14   ar
    22    14    15   ar
    23    15    16   ar
    24    16    17   ar
    25    17    18   ar
    26     4    19    1
    27    24    25    1
    28    25    26    1
    29    26    20    1
    30    19     1    1
    31    18     4    1
    32    11     6   ar
    33    18    13   ar
@<TRIPOS>MOLECULE
*****
 29 33 0 0 0
SMALL
GASTEIGER

@<TRIPOS>ATOM
      1 C           3.2292   -0.5750   25.2256 C.3     1  UNL1        0.0578
      2 C           4.1513   -1.7082   24.8859 C.3     1  UNL1        0.0163
      3 C           4.1323   -1.8909   23.3972 C.3     1  UNL1        0.0058
      4 C           3.1984   -0.8706   22.8169 C.3     1  UNL1        0.0240
      5 C           2.2290    0.2269   22.4916 C.3     1  UNL1        0.0301
      6 C           1.7122    0.6508   21.1488 C.ar    1  UNL1       -0.0255
      7 C           0.7528    1.7976   21.2679 C.ar    1  UNL1       -0.0046
      8 C           0.1184    2.3756   20.0377 C.ar    1  UNL1       -0.0003
      9 C           0.4435    1.8067   18.6883 C.ar    1  UNL1       -0.0003
     10 C           1.4029    0.6599   18.5692 C.ar    1  UNL1       -0.0042
     11 C           2.0372    0.0819   19.7994 C.ar    1  UNL1       -0.0217
     12 C           2.9594   -1.0514   19.4598 C.3     1  UNL1        0.0520
     13 C           3.7842   -1.8957   20.3854 C.ar    1  UNL1       -0.0218
     14 C           4.5711   -2.9267   19.6320 C.ar    1  UNL1       -0.0042
     15 C           5.4644   -3.8773   20.3725 C.ar    1  UNL1       -0.0003
     16 C           5.5708   -3.7968   21.8665 C.ar    1  UNL1       -0.0003
     17 C           4.7839   -2.7657   22.6201 C.ar    1  UNL1       -0.0046
     18 C           3.8905   -1.8152   21.8795 C.ar    1  UNL1       -0.0261
     19 C           2.6403   -0.0572   23.9469 C.3     1  UNL1        0.0203
     20 C           2.3789    0.9960   29.3559 C.3     1  UNL1        0.1678
     21 F           1.9960    2.2730   30.0433 F       1  UNL1       -0.2342
     22 C           2.2972    1.9143   28.1727 C.3     1  UNL1        0.0554
     23 C           2.5806    1.3907   26.7959 C.3     1  UNL1        0.0752
     24 N           2.9458   -0.0513   26.6024 N.3     1  UNL1       -0.2738
     25 C           3.0274   -0.9696   27.7857 C.3     1  UNL1        0.0752
     26 C           2.7440   -0.4460   29.1623 C.3     1  UNL1        0.0554
     27 O           2.1644    1.5105   31.8935 O.co2   1  UNL1       -0.5465
     28 C           2.3276    0.5211   30.7779 C.2     1  UNL1        0.0798
     29 O           2.4395   -0.9430   31.0842 O.co2   1  UNL1       -0.5465
@<TRIPOS>UNITY_ATOM_ATTR
27 1
charge -1
@<TRIPOS>BOND
     1    27    28   ar
     2    28    29   ar
     3    28    20    1
     4    20    21    1
     5    20    22    1
     6    22    23    1
     7    23    24    1
     8    24     1    1
     9     1     2    1
    10     2     3    1
    11     4     3    1
    12     4     5    1
    13     5     6    1
    14     6     7   ar
    15     7     8   ar
    16     8     9   ar
    17     9    10   ar
    18    10    11   ar
    19    11    12    1
    20    12    13    1
    21    13    14   ar
    22    14    15   ar
    23    15    16   ar
    24    16    17   ar
    25    17    18   ar
    26     4    19    1
    27    24    25    1
    28    25    26    1
    29    26    20    1
    30    19     1    1
    31    18     4    1
    32    11     6   ar
    33    18    13   ar
@<TRIPOS>MOLECULE
*****
 29 33 0 0 0
SMALL
GASTEIGER

@<TRIPOS>ATOM
      1 C           1.9548    0.4609   22.0059 C.3     1  UNL1        0.0578
      2 C           2.0927    0.2618   23.4862 C.3     1  UNL1        0.0163
      3 C           1.0309    1.0757   24.1643 C.3     1  UNL1        0.0058
      4 C           0.2366    1.7778   23.1031 C.3     1  UNL1        0.0240
      5 C          -0.3916    2.3566   21.8701 C.3     1  UNL1        0.0301
      6 C          -1.5546    3.2984   21.7669 C.ar    1  UNL1       -0.0255
      7 C          -1.8641    3.6324   20.3377 C.ar    1  UNL1       -0.0046
      8 C          -2.9956    4.5620   20.0129 C.ar    1  UNL1       -0.0003
      9 C          -3.8176    5.1576   21.1173 C.ar    1  UNL1       -0.0003
     10 C          -3.5081    4.8235   22.5465 C.ar    1  UNL1       -0.0042
     11 C          -2.3766    3.8939   22.8713 C.ar    1  UNL1       -0.0217
     12 C          -2.2386    3.6948   24.3516 C.3     1  UNL1        0.0520
     13 C          -1.2446    2.8510   25.0932 C.ar    1  UNL1       -0.0218
     14 C          -1.4551    2.9320   26.5761 C.ar    1  UNL1       -0.0042
     15 C          -0.5640    2.1600   27.5034 C.ar    1  UNL1       -0.0003
     16 C           0.5375    1.3069   26.9478 C.ar    1  UNL1       -0.0003
     17 C           0.7480    1.2258   25.4648 C.ar    1  UNL1       -0.0046
     18 C          -0.1431    1.9979   24.5375 C.ar    1  UNL1       -0.0261
     19 C           0.8076    1.3979   21.7691 C.3     1  UNL1        0.0203
     20 C           4.5303   -1.4221   18.8324 C.3     1  UNL1        0.1678
     21 F           5.3741   -2.6425   18.6119 F       1  UNL1       -0.2342
     22 C           4.3518   -2.1048   20.1561 C.3     1  UNL1        0.0554
     23 C           3.4933   -1.4771   21.2140 C.3     1  UNL1        0.0752
     24 N           2.8133   -0.1668   20.9481 N.3     1  UNL1       -0.2738
     25 C           2.9918    0.5158   19.6244 C.3     1  UNL1        0.0752
     26 C           3.8503   -0.1118   18.5666 C.3     1  UNL1        0.0554
     27 O           4.0046   -0.9830   16.3263 O.co2   1  UNL1       -0.5465
     28 C           5.0018   -1.1633   17.4322 C.2     1  UNL1        0.0798
     29 O           6.4706   -1.0849   17.1379 O.co2   1  UNL1       -0.5465
@<TRIPOS>UNITY_ATOM_ATTR
27 1
charge -1
@<TRIPOS>BOND
     1    27    28   ar
     2    28    29   ar
     3    28    20    1
     4    20    21    1
     5    20    22    1
     6    22    23    1
     7    23    24    1
     8    24     1    1
     9     1     2    1
    10     2     3    1
    11     4     3    1
    12     4     5    1
    13     5     6    1
    14     6     7   ar
    15     7     8   ar
    16     8     9   ar
    17     9    10   ar
    18    10    11   ar
    19    11    12    1
    20    12    13    1
    21    13    14   ar
    22    14    15   ar
    23    15    16   ar
    24    16    17   ar
    25    17    18   ar
    26     4    19    1
    27    24    25    1
    28    25    26    1
    29    26    20    1
    30    19     1    1
    31    18     4    1
    32    11     6   ar
    33    18    13   ar
