@<TRIPOS>MOLECULE
*****
 20 23 0 0 0
SMALL
GASTEIGER

@<TRIPOS>ATOM
      1 O          -5.9270  -14.8399   25.0650 O.2     1  UNL1       -0.2864
      2 C          -6.5628  -15.9259   24.2487 C.ar    1  UNL1        0.2016
      3 C          -8.0557  -16.0683   24.2227 C.ar    1  UNL1        0.0796
      4 C          -8.6914  -17.1542   23.4063 C.ar    1  UNL1        0.1484
      5 O          -7.8342  -18.0978   22.6159 O.2     1  UNL1       -0.4532
      6 C          -6.3412  -17.9555   22.6419 C.ar    1  UNL1        0.1512
      7 C          -5.7054  -16.8695   23.4583 C.ar    1  UNL1        0.0737
      8 C          -4.2125  -16.7271   23.4843 C.ar    1  UNL1        0.0094
      9 C          -3.3551  -17.6707   22.6939 C.ar    1  UNL1        0.0378
     10 C          -3.9909  -18.7567   21.8775 C.ar    1  UNL1        0.1484
     11 O          -3.4078  -19.8271   21.0033 O.2     1  UNL1       -0.4503
     12 C          -4.5405  -20.6311   20.4370 C.ar    1  UNL1        0.1797
     13 C          -5.8236  -20.0575   20.9613 C.ar    1  UNL1        0.0467
     14 C          -5.4839  -18.8991   21.8515 C.ar    1  UNL1        0.0723
     15 C         -10.1845  -17.2967   23.3802 C.ar    1  UNL1        0.0347
     16 C         -10.8513  -18.3558   24.2070 C.ar    1  UNL1        0.0030
     17 C         -12.3443  -18.4983   24.1810 C.ar    1  UNL1        0.0001
     18 C         -13.1705  -17.5817   23.3283 C.ar    1  UNL1        0.0000
     19 C         -12.5035  -16.5226   22.5015 C.ar    1  UNL1        0.0001
     20 C         -11.0106  -16.3801   22.5275 C.ar    1  UNL1        0.0030
@<TRIPOS>BOND
     1     1     2    2
     2     2     3   ar
     3     3     4   ar
     4     4    15    1
     5    15    16   ar
     6    16    17   ar
     7    17    18   ar
     8    18    19   ar
     9    19    20   ar
    10     4     5   ar
    11     5     6   ar
    12     6     7   ar
    13     7     8   ar
    14     8     9   ar
    15     9    10   ar
    16    10    11   ar
    17    11    12   ar
    18    12    13   ar
    19    13    14   ar
    20     7     2   ar
    21    14    10   ar
    22    20    15   ar
    23    14     6   ar
@<TRIPOS>MOLECULE
*****
 20 23 0 0 0
SMALL
GASTEIGER

@<TRIPOS>ATOM
      1 O          -8.9741  -20.9157   18.1986 O.2     1  UNL1       -0.2864
      2 C          -8.3013  -20.0646   19.2344 C.ar    1  UNL1        0.2016
      3 C          -6.8040  -20.0110   19.3038 C.ar    1  UNL1        0.0796
      4 C          -6.1312  -19.1599   20.3396 C.ar    1  UNL1        0.1484
      5 O          -6.9558  -18.3624   21.3060 O.2     1  UNL1       -0.4532
      6 C          -8.4533  -18.4160   21.2366 C.ar    1  UNL1        0.1512
      7 C          -9.1261  -19.2671   20.2008 C.ar    1  UNL1        0.0737
      8 C         -10.6234  -19.3208   20.1314 C.ar    1  UNL1        0.0094
      9 C         -11.4481  -18.5233   21.0978 C.ar    1  UNL1        0.0378
     10 C         -10.7754  -17.6721   22.1336 C.ar    1  UNL1        0.1484
     11 O         -11.3215  -16.7835   23.2116 O.2     1  UNL1       -0.4503
     12 C         -10.1616  -16.1806   23.9472 C.ar    1  UNL1        0.1797
     13 C          -8.8986  -16.6967   23.3239 C.ar    1  UNL1        0.0467
     14 C          -9.2779  -17.6185   22.2030 C.ar    1  UNL1        0.0723
     15 C          -4.6337  -19.1062   20.4091 C.ar    1  UNL1        0.0347
     16 C          -3.9229  -19.5771   21.6432 C.ar    1  UNL1        0.0030
     17 C          -2.4254  -19.5234   21.7127 C.ar    1  UNL1        0.0001
     18 C          -1.6389  -18.9989   20.5482 C.ar    1  UNL1        0.0000
     19 C          -2.3498  -18.5279   19.3141 C.ar    1  UNL1        0.0001
     20 C          -3.8471  -18.5816   19.2446 C.ar    1  UNL1        0.0030
@<TRIPOS>BOND
     1     1     2    2
     2     2     3   ar
     3     3     4   ar
     4     4    15    1
     5    15    16   ar
     6    16    17   ar
     7    17    18   ar
     8    18    19   ar
     9    19    20   ar
    10     4     5   ar
    11     5     6   ar
    12     6     7   ar
    13     7     8   ar
    14     8     9   ar
    15     9    10   ar
    16    10    11   ar
    17    11    12   ar
    18    12    13   ar
    19    13    14   ar
    20     7     2   ar
    21    14    10   ar
    22    20    15   ar
    23    14     6   ar
@<TRIPOS>MOLECULE
*****
 20 23 0 0 0
SMALL
GASTEIGER

@<TRIPOS>ATOM
      1 O          -5.3088  -14.6149   25.8548 O.2     1  UNL1       -0.2864
      2 C          -5.5917  -15.5953   24.7554 C.ar    1  UNL1        0.2016
      3 C          -4.4575  -16.2398   24.0151 C.ar    1  UNL1        0.0796
      4 C          -4.7403  -17.2202   22.9157 C.ar    1  UNL1        0.1484
      5 O          -6.1574  -17.5562   22.5566 O.2     1  UNL1       -0.4532
      6 C          -7.2917  -16.9117   23.2969 C.ar    1  UNL1        0.1512
      7 C          -7.0089  -15.9313   24.3963 C.ar    1  UNL1        0.0737
      8 C          -8.1430  -15.2868   25.1366 C.ar    1  UNL1        0.0094
      9 C          -9.5602  -15.6228   24.7776 C.ar    1  UNL1        0.0378
     10 C          -9.8431  -16.6032   23.6782 C.ar    1  UNL1        0.1484
     11 O         -11.1270  -17.1269   23.1062 O.2     1  UNL1       -0.4503
     12 C         -10.7863  -18.0950   22.0123 C.ar    1  UNL1        0.1797
     13 C          -9.2917  -18.1697   21.9083 C.ar    1  UNL1        0.0467
     14 C          -8.7088  -17.2477   22.9379 C.ar    1  UNL1        0.0723
     15 C          -3.6061  -17.8648   22.1753 C.ar    1  UNL1        0.0347
     16 C          -2.4380  -17.0381   21.7256 C.ar    1  UNL1        0.0030
     17 C          -1.3038  -17.6825   20.9852 C.ar    1  UNL1        0.0001
     18 C          -1.3376  -19.1537   20.6945 C.ar    1  UNL1        0.0000
     19 C          -2.5057  -19.9804   21.1442 C.ar    1  UNL1        0.0001
     20 C          -3.6399  -19.3359   21.8845 C.ar    1  UNL1        0.0030
@<TRIPOS>BOND
     1     1     2    2
     2     2     3   ar
     3     3     4   ar
     4     4    15    1
     5    15    16   ar
     6    16    17   ar
     7    17    18   ar
     8    18    19   ar
     9    19    20   ar
    10     4     5   ar
    11     5     6   ar
    12     6     7   ar
    13     7     8   ar
    14     8     9   ar
    15     9    10   ar
    16    10    11   ar
    17    11    12   ar
    18    12    13   ar
    19    13    14   ar
    20     7     2   ar
    21    14    10   ar
    22    20    15   ar
    23    14     6   ar
@<TRIPOS>MOLECULE
*****
 20 23 0 0 0
SMALL
GASTEIGER

@<TRIPOS>ATOM
      1 O          -9.4225  -19.9962   19.6401 O.2     1  UNL1       -0.2864
      2 C          -8.3938  -19.2800   20.4640 C.ar    1  UNL1        0.2016
      3 C          -6.9348  -19.4666   20.1700 C.ar    1  UNL1        0.0796
      4 C          -5.9062  -18.7504   20.9939 C.ar    1  UNL1        0.1484
      5 O          -6.3365  -17.8475   22.1117 O.2     1  UNL1       -0.4532
      6 C          -7.7955  -17.6608   22.4057 C.ar    1  UNL1        0.1512
      7 C          -8.8242  -18.3771   21.5818 C.ar    1  UNL1        0.0737
      8 C         -10.2832  -18.1904   21.8757 C.ar    1  UNL1        0.0094
      9 C         -10.7136  -17.2875   22.9936 C.ar    1  UNL1        0.0378
     10 C          -9.6849  -16.5713   23.8175 C.ar    1  UNL1        0.1484
     11 O          -9.8073  -15.6245   24.9745 O.2     1  UNL1       -0.4503
     12 C          -8.4239  -15.2261   25.3956 C.ar    1  UNL1        0.1797
     13 C          -7.4465  -15.9265   24.4989 C.ar    1  UNL1        0.0467
     14 C          -8.2259  -16.7579   23.5235 C.ar    1  UNL1        0.0723
     15 C          -4.4471  -18.9370   20.7000 C.ar    1  UNL1        0.0347
     16 C          -3.8963  -18.5482   19.3601 C.ar    1  UNL1        0.0030
     17 C          -2.4372  -18.7347   19.0661 C.ar    1  UNL1        0.0001
     18 C          -1.5290  -19.3101   20.1121 C.ar    1  UNL1        0.0000
     19 C          -2.0799  -19.6988   21.4521 C.ar    1  UNL1        0.0001
     20 C          -3.5388  -19.5123   21.7460 C.ar    1  UNL1        0.0030
@<TRIPOS>BOND
     1     1     2    2
     2     2     3   ar
     3     3     4   ar
     4     4    15    1
     5    15    16   ar
     6    16    17   ar
     7    17    18   ar
     8    18    19   ar
     9    19    20   ar
    10     4     5   ar
    11     5     6   ar
    12     6     7   ar
    13     7     8   ar
    14     8     9   ar
    15     9    10   ar
    16    10    11   ar
    17    11    12   ar
    18    12    13   ar
    19    13    14   ar
    20     7     2   ar
    21    14    10   ar
    22    20    15   ar
    23    14     6   ar
@<TRIPOS>MOLECULE
*****
 20 23 0 0 0
SMALL
GASTEIGER

@<TRIPOS>ATOM
      1 O         -17.1690   -3.5532   20.1157 O.2     1  UNL1       -0.2864
      2 C         -16.3544   -4.7526   19.7314 C.ar    1  UNL1        0.2016
      3 C         -14.8641   -4.6384   19.6066 C.ar    1  UNL1        0.0796
      4 C         -14.0495   -5.8378   19.2222 C.ar    1  UNL1        0.1484
      5 O         -14.7253   -7.1515   18.9626 O.2     1  UNL1       -0.4532
      6 C         -16.2157   -7.2658   19.0874 C.ar    1  UNL1        0.1512
      7 C         -17.0303   -6.0664   19.4718 C.ar    1  UNL1        0.0737
      8 C         -18.5207   -6.1806   19.5966 C.ar    1  UNL1        0.0094
      9 C         -19.1966   -7.4943   19.3370 C.ar    1  UNL1        0.0378
     10 C         -18.3820   -8.6938   18.9526 C.ar    1  UNL1        0.1484
     11 O         -18.7664  -10.1090   18.6376 O.2     1  UNL1       -0.4503
     12 C         -17.5135  -10.8695   18.3181 C.ar    1  UNL1        0.1797
     13 C         -16.3548   -9.9242   18.4357 C.ar    1  UNL1        0.0467
     14 C         -16.8916   -8.5795   18.8278 C.ar    1  UNL1        0.0723
     15 C         -12.5590   -5.7236   19.0974 C.ar    1  UNL1        0.0347
     16 C         -11.9048   -4.3742   19.1309 C.ar    1  UNL1        0.0030
     17 C         -10.4144   -4.2599   19.0061 C.ar    1  UNL1        0.0001
     18 C          -9.5781   -5.4951   18.8478 C.ar    1  UNL1        0.0000
     19 C         -10.2324   -6.8445   18.8143 C.ar    1  UNL1        0.0001
     20 C         -11.7227   -6.9588   18.9391 C.ar    1  UNL1        0.0030
@<TRIPOS>BOND
     1     1     2    2
     2     2     3   ar
     3     3     4   ar
     4     4    15    1
     5    15    16   ar
     6    16    17   ar
     7    17    18   ar
     8    18    19   ar
     9    19    20   ar
    10     4     5   ar
    11     5     6   ar
    12     6     7   ar
    13     7     8   ar
    14     8     9   ar
    15     9    10   ar
    16    10    11   ar
    17    11    12   ar
    18    12    13   ar
    19    13    14   ar
    20     7     2   ar
    21    14    10   ar
    22    20    15   ar
    23    14     6   ar
@<TRIPOS>MOLECULE
*****
 20 23 0 0 0
SMALL
GASTEIGER

@<TRIPOS>ATOM
      1 O         -15.5787   -1.9561   19.6477 O.2     1  UNL1       -0.2864
      2 C         -15.1693   -3.3955   19.5458 C.ar    1  UNL1        0.2016
      3 C         -16.2044   -4.4776   19.6320 C.ar    1  UNL1        0.0796
      4 C         -15.7950   -5.9170   19.5302 C.ar    1  UNL1        0.1484
      5 O         -14.3504   -6.2743   19.3422 O.2     1  UNL1       -0.4532
      6 C         -13.3151   -5.1922   19.2560 C.ar    1  UNL1        0.1512
      7 C         -13.7246   -3.7528   19.3578 C.ar    1  UNL1        0.0737
      8 C         -12.6894   -2.6708   19.2717 C.ar    1  UNL1        0.0094
      9 C         -11.2447   -3.0280   19.0836 C.ar    1  UNL1        0.0378
     10 C         -10.8353   -4.4675   18.9818 C.ar    1  UNL1        0.1484
     11 O          -9.4973   -5.1196   18.7961 O.2     1  UNL1       -0.4503
     12 C          -9.7057   -6.6048   18.7675 C.ar    1  UNL1        0.1797
     13 C         -11.1723   -6.8706   18.9355 C.ar    1  UNL1        0.0467
     14 C         -11.8705   -5.5496   19.0680 C.ar    1  UNL1        0.0723
     15 C         -16.8301   -6.9992   19.6164 C.ar    1  UNL1        0.0347
     16 C         -16.4095   -8.4387   19.6458 C.ar    1  UNL1        0.0030
     17 C         -17.4446   -9.5209   19.7319 C.ar    1  UNL1        0.0001
     18 C         -18.9003   -9.1637   19.7888 C.ar    1  UNL1        0.0000
     19 C         -19.3209   -7.7241   19.7594 C.ar    1  UNL1        0.0001
     20 C         -18.2858   -6.6419   19.6732 C.ar    1  UNL1        0.0030
@<TRIPOS>BOND
     1     1     2    2
     2     2     3   ar
     3     3     4   ar
     4     4    15    1
     5    15    16   ar
     6    16    17   ar
     7    17    18   ar
     8    18    19   ar
     9    19    20   ar
    10     4     5   ar
    11     5     6   ar
    12     6     7   ar
    13     7     8   ar
    14     8     9   ar
    15     9    10   ar
    16    10    11   ar
    17    11    12   ar
    18    12    13   ar
    19    13    14   ar
    20     7     2   ar
    21    14    10   ar
    22    20    15   ar
    23    14     6   ar
@<TRIPOS>MOLECULE
*****
 20 23 0 0 0
SMALL
GASTEIGER

@<TRIPOS>ATOM
      1 O         -10.6978   -8.3676   16.8660 O.2     1  UNL1       -0.2864
      2 C         -11.7010   -7.4263   17.4639 C.ar    1  UNL1        0.2016
      3 C         -13.0354   -7.9407   17.9162 C.ar    1  UNL1        0.0796
      4 C         -14.0386   -6.9994   18.5141 C.ar    1  UNL1        0.1484
      5 O         -13.7073   -5.5437   18.6598 O.2     1  UNL1       -0.4532
      6 C         -12.3728   -5.0293   18.2076 C.ar    1  UNL1        0.1512
      7 C         -11.3696   -5.9706   17.6096 C.ar    1  UNL1        0.0737
      8 C         -10.0352   -5.4563   17.1574 C.ar    1  UNL1        0.0094
      9 C          -9.7038   -4.0005   17.3031 C.ar    1  UNL1        0.0378
     10 C         -10.7070   -3.0593   17.9011 C.ar    1  UNL1        0.1484
     11 O         -10.6635   -1.5841   18.1697 O.2     1  UNL1       -0.4503
     12 C         -11.9712   -1.1869   18.7879 C.ar    1  UNL1        0.1797
     13 C         -12.8228   -2.4164   18.9014 C.ar    1  UNL1        0.0467
     14 C         -12.0415   -3.5737   18.3533 C.ar    1  UNL1        0.0723
     15 C         -15.3732   -7.5137   18.9664 C.ar    1  UNL1        0.0347
     16 C         -15.6124   -8.9910   19.0677 C.ar    1  UNL1        0.0030
     17 C         -16.9469   -9.5054   19.5199 C.ar    1  UNL1        0.0001
     18 C         -18.0422   -8.5425   19.8709 C.ar    1  UNL1        0.0000
     19 C         -17.8029   -7.0651   19.7696 C.ar    1  UNL1        0.0001
     20 C         -16.4684   -6.5508   19.3173 C.ar    1  UNL1        0.0030
@<TRIPOS>BOND
     1     1     2    2
     2     2     3   ar
     3     3     4   ar
     4     4    15    1
     5    15    16   ar
     6    16    17   ar
     7    17    18   ar
     8    18    19   ar
     9    19    20   ar
    10     4     5   ar
    11     5     6   ar
    12     6     7   ar
    13     7     8   ar
    14     8     9   ar
    15     9    10   ar
    16    10    11   ar
    17    11    12   ar
    18    12    13   ar
    19    13    14   ar
    20     7     2   ar
    21    14    10   ar
    22    20    15   ar
    23    14     6   ar
@<TRIPOS>MOLECULE
*****
 20 23 0 0 0
SMALL
GASTEIGER

@<TRIPOS>ATOM
      1 O         -10.6467   -6.1277   19.0616 O.2     1  UNL1       -0.2864
      2 C         -12.0096   -5.5013   19.0747 C.ar    1  UNL1        0.2016
      3 C         -13.2275   -6.3590   19.2501 C.ar    1  UNL1        0.0796
      4 C         -14.5904   -5.7326   19.2631 C.ar    1  UNL1        0.1484
      5 O         -14.7353   -4.2485   19.1008 O.2     1  UNL1       -0.4532
      6 C         -13.5173   -3.3907   18.9254 C.ar    1  UNL1        0.1512
      7 C         -12.1544   -4.0171   18.9123 C.ar    1  UNL1        0.0737
      8 C         -10.9365   -3.1594   18.7369 C.ar    1  UNL1        0.0094
      9 C         -11.0813   -1.6752   18.5746 C.ar    1  UNL1        0.0378
     10 C         -12.4442   -1.0489   18.5876 C.ar    1  UNL1        0.1484
     11 O         -12.8957    0.3751   18.4514 O.2     1  UNL1       -0.4503
     12 C         -14.3927    0.3973   18.5427 C.ar    1  UNL1        0.1797
     13 C         -14.8665   -1.0128   18.7352 C.ar    1  UNL1        0.0467
     14 C         -13.6622   -1.9066   18.7630 C.ar    1  UNL1        0.0723
     15 C         -15.8085   -6.5903   19.4385 C.ar    1  UNL1        0.0347
     16 C         -15.6684   -8.0804   19.5387 C.ar    1  UNL1        0.0030
     17 C         -16.8864   -8.9381   19.7140 C.ar    1  UNL1        0.0001
     18 C         -18.2445   -8.3058   19.7893 C.ar    1  UNL1        0.0000
     19 C         -18.3846   -6.8157   19.6891 C.ar    1  UNL1        0.0001
     20 C         -17.1666   -5.9580   19.5137 C.ar    1  UNL1        0.0030
@<TRIPOS>BOND
     1     1     2    2
     2     2     3   ar
     3     3     4   ar
     4     4    15    1
     5    15    16   ar
     6    16    17   ar
     7    17    18   ar
     8    18    19   ar
     9    19    20   ar
    10     4     5   ar
    11     5     6   ar
    12     6     7   ar
    13     7     8   ar
    14     8     9   ar
    15     9    10   ar
    16    10    11   ar
    17    11    12   ar
    18    12    13   ar
    19    13    14   ar
    20     7     2   ar
    21    14    10   ar
    22    20    15   ar
    23    14     6   ar
@<TRIPOS>MOLECULE
*****
 20 23 0 0 0
SMALL
GASTEIGER

@<TRIPOS>ATOM
      1 O          -6.0903  -19.8931   21.3721 O.2     1  UNL1       -0.2864
      2 C          -6.9918  -18.8198   21.9061 C.ar    1  UNL1        0.2016
      3 C          -6.6017  -18.0562   23.1367 C.ar    1  UNL1        0.0796
      4 C          -7.5032  -16.9829   23.6707 C.ar    1  UNL1        0.1484
      5 O          -8.7950  -16.6732   22.9739 O.2     1  UNL1       -0.4532
      6 C          -9.1852  -17.4368   21.7432 C.ar    1  UNL1        0.1512
      7 C          -8.2836  -18.5101   21.2092 C.ar    1  UNL1        0.0737
      8 C          -8.6737  -19.2737   19.9786 C.ar    1  UNL1        0.0094
      9 C          -9.9655  -18.9640   19.2818 C.ar    1  UNL1        0.0378
     10 C         -10.8671  -17.8907   19.8158 C.ar    1  UNL1        0.1484
     11 O         -12.1920  -17.3673   19.3460 O.2     1  UNL1       -0.4503
     12 C         -12.6207  -16.2802   20.2864 C.ar    1  UNL1        0.1797
     13 C         -11.5607  -16.1317   21.3374 C.ar    1  UNL1        0.0467
     14 C         -10.4769  -17.1271   21.0465 C.ar    1  UNL1        0.0723
     15 C          -7.1131  -16.2192   24.9014 C.ar    1  UNL1        0.0347
     16 C          -8.1049  -16.0263   26.0101 C.ar    1  UNL1        0.0030
     17 C          -7.7148  -15.2626   27.2408 C.ar    1  UNL1        0.0001
     18 C          -6.3331  -14.6918   27.3629 C.ar    1  UNL1        0.0000
     19 C          -5.3413  -14.8848   26.2541 C.ar    1  UNL1        0.0001
     20 C          -5.7314  -15.6484   25.0234 C.ar    1  UNL1        0.0030
@<TRIPOS>BOND
     1     1     2    2
     2     2     3   ar
     3     3     4   ar
     4     4    15    1
     5    15    16   ar
     6    16    17   ar
     7    17    18   ar
     8    18    19   ar
     9    19    20   ar
    10     4     5   ar
    11     5     6   ar
    12     6     7   ar
    13     7     8   ar
    14     8     9   ar
    15     9    10   ar
    16    10    11   ar
    17    11    12   ar
    18    12    13   ar
    19    13    14   ar
    20     7     2   ar
    21    14    10   ar
    22    20    15   ar
    23    14     6   ar
