@<TRIPOS>MOLECULE
*****
 27 30 0 0 0
SMALL
GASTEIGER

@<TRIPOS>ATOM
      1 C         -13.5692    0.7038   18.5353 C.3     1  UNL1        0.1366
      2 N         -13.1359   -0.7128   18.2997 N.ar    1  UNL1       -0.2630
      3 C         -11.7915   -1.1520   17.8001 C.ar    1  UNL1        0.3331
      4 O         -10.6443   -0.2518   17.4484 O.2     1  UNL1       -0.2462
      5 N         -11.7957   -2.6495   17.7140 N.ar    1  UNL1       -0.2694
      6 C         -13.1426   -3.1358   18.1603 C.ar    1  UNL1        0.0986
      7 C         -13.7219   -4.5139   18.2839 C.ar    1  UNL1        0.0224
      8 C         -15.1295   -4.6949   18.7695 C.ar    1  UNL1        0.0267
      9 C         -15.9579   -3.4979   19.1314 C.ar    1  UNL1        0.1011
     10 N         -15.3786   -2.1199   19.0079 N.ar    1  UNL1       -0.2251
     11 C         -13.9710   -1.9388   18.5223 C.ar    1  UNL1        0.1633
     12 C         -15.7089   -6.0731   18.8931 C.ar    1  UNL1        0.0309
     13 C         -16.9793   -6.4350   19.6037 C.ar    1  UNL1        0.0070
     14 C         -17.1751   -7.9168   19.4776 C.ar    1  UNL1        0.0109
     15 C         -16.0256   -8.4707   18.6889 C.ar    1  UNL1        0.1009
     16 S         -15.1194   -7.3312   18.3277 S.2     1  UNL1       -0.0831
     17 C         -15.8186   -9.9112   18.3254 C.3     1  UNL1        0.4241
     18 F         -15.6116  -11.3516   17.9618 F       1  UNL1       -0.1654
     19 F         -14.5830   -9.5405   17.5599 F       1  UNL1       -0.1654
     20 F         -17.0541  -10.2819   19.0908 F       1  UNL1       -0.1654
     21 C         -10.6534   -3.5098   17.2611 C.3     1  UNL1        0.1956
     22 C         -10.2412   -4.6996   18.0765 C.2     1  UNL1        0.2489
     23 O          -9.4601   -4.5069   19.3424 O.2     1  UNL1       -0.2728
     24 N         -10.6102   -6.0819   17.6258 N.am    1  UNL1       -0.2778
     25 C         -10.3838   -7.4663   18.1569 C.3     1  UNL1        0.0952
     26 C         -11.1319   -8.0368   16.9885 C.3     1  UNL1        0.0430
     27 C         -11.3582   -6.6523   16.4574 C.3     1  UNL1        0.0952
@<TRIPOS>BOND
     1     1     2    1
     2     2     3   ar
     3     3     4    2
     4     3     5   ar
     5     5    21    1
     6    21    22    1
     7    22    23    2
     8    22    24   am
     9    24    25    1
    10    25    26    1
    11    26    27    1
    12     5     6   ar
    13     6     7   ar
    14     7     8   ar
    15     8    12    1
    16    12    13   ar
    17    13    14   ar
    18    14    15   ar
    19    15    17    1
    20    17    18    1
    21    17    19    1
    22    17    20    1
    23    15    16   ar
    24     8     9   ar
    25     9    10   ar
    26    10    11   ar
    27    11     2   ar
    28    27    24    1
    29    11     6   ar
    30    16    12   ar
@<TRIPOS>MOLECULE
*****
 27 30 0 0 0
SMALL
GASTEIGER

@<TRIPOS>ATOM
      1 C           4.0545    0.0739   29.1392 C.3     1  UNL1        0.1366
      2 N           4.7040   -0.8585   28.1599 N.ar    1  UNL1       -0.2630
      3 C           5.8274   -1.8068   28.4573 C.ar    1  UNL1        0.3331
      4 O           6.4987   -1.9894   29.7862 O.2     1  UNL1       -0.2462
      5 N           6.1617   -2.5406   27.1924 N.ar    1  UNL1       -0.2694
      6 C           5.2449   -2.0457   26.1133 C.ar    1  UNL1        0.0986
      7 C           5.1140   -2.4074   24.6635 C.ar    1  UNL1        0.0224
      8 C           4.0822   -1.7295   23.8116 C.ar    1  UNL1        0.0267
      9 C           3.1813   -0.6899   24.4095 C.ar    1  UNL1        0.1011
     10 N           3.3121   -0.3282   25.8593 N.ar    1  UNL1       -0.2251
     11 C           4.3439   -1.0061   26.7112 C.ar    1  UNL1        0.1633
     12 C           3.9513   -2.0912   22.3617 C.ar    1  UNL1        0.0309
     13 C           3.2917   -1.2599   21.3017 C.ar    1  UNL1        0.0070
     14 C           3.3898   -2.0026   20.0022 C.ar    1  UNL1        0.0109
     15 C           4.1101   -3.2931   20.2591 C.ar    1  UNL1        0.1009
     16 S           4.4571   -3.3478   21.7173 S.2     1  UNL1       -0.0831
     17 C           4.4276   -4.3442   19.2372 C.3     1  UNL1        0.4241
     18 F           4.7451   -5.3953   18.2152 F       1  UNL1       -0.1654
     19 F           2.9627   -4.5313   18.9745 F       1  UNL1       -0.1654
     20 F           5.8925   -4.1571   19.4998 F       1  UNL1       -0.1654
     21 C           7.2260   -3.5857   27.0344 C.3     1  UNL1        0.1956
     22 C           6.9051   -5.0281   27.2930 C.2     1  UNL1        0.2489
     23 O           6.1272   -5.4158   28.5155 O.2     1  UNL1       -0.2728
     24 N           7.3621   -6.0826   26.3290 N.am    1  UNL1       -0.2778
     25 C           7.2366   -7.5753   26.2521 C.3     1  UNL1        0.0952
     26 C           8.0084   -7.5738   24.9658 C.3     1  UNL1        0.0430
     27 C           8.1339   -6.0811   25.0428 C.3     1  UNL1        0.0952
@<TRIPOS>BOND
     1     1     2    1
     2     2     3   ar
     3     3     4    2
     4     3     5   ar
     5     5    21    1
     6    21    22    1
     7    22    23    2
     8    22    24   am
     9    24    25    1
    10    25    26    1
    11    26    27    1
    12     5     6   ar
    13     6     7   ar
    14     7     8   ar
    15     8    12    1
    16    12    13   ar
    17    13    14   ar
    18    14    15   ar
    19    15    17    1
    20    17    18    1
    21    17    19    1
    22    17    20    1
    23    15    16   ar
    24     8     9   ar
    25     9    10   ar
    26    10    11   ar
    27    11     2   ar
    28    27    24    1
    29    11     6   ar
    30    16    12   ar
@<TRIPOS>MOLECULE
*****
 27 30 0 0 0
SMALL
GASTEIGER

@<TRIPOS>ATOM
      1 C         -15.6771    0.6594   19.3249 C.3     1  UNL1        0.1366
      2 N         -15.2286   -0.7244   18.9591 N.ar    1  UNL1       -0.2630
      3 C         -13.9243   -1.0865   18.3126 C.ar    1  UNL1        0.3331
      4 O         -12.8397   -0.1283   17.9184 O.2     1  UNL1       -0.2462
      5 N         -13.8952   -2.5750   18.1297 N.ar    1  UNL1       -0.2694
      6 C         -15.1814   -3.1329   18.6630 C.ar    1  UNL1        0.0986
      7 C         -15.7086   -4.5345   18.7481 C.ar    1  UNL1        0.0224
      8 C         -17.0600   -4.7925   19.3459 C.ar    1  UNL1        0.0267
      9 C         -17.8840   -3.6488   19.8586 C.ar    1  UNL1        0.1011
     10 N         -17.3568   -2.2471   19.7734 N.ar    1  UNL1       -0.2251
     11 C         -16.0055   -1.9892   19.1757 C.ar    1  UNL1        0.1633
     12 C         -17.5873   -6.1942   19.4310 C.ar    1  UNL1        0.0309
     13 C         -18.9940   -6.5879   19.7719 C.ar    1  UNL1        0.0070
     14 C         -19.0765   -8.0853   19.7418 C.ar    1  UNL1        0.0109
     15 C         -17.7208   -8.6171   19.3823 C.ar    1  UNL1        0.1009
     16 S         -16.8004   -7.4484   19.1903 S.2     1  UNL1       -0.0831
     17 C         -17.3505  -10.0637   19.2399 C.3     1  UNL1        0.4241
     18 F         -16.9802  -11.5103   19.0975 F       1  UNL1       -0.1654
     19 F         -16.4355   -9.9459   20.4227 F       1  UNL1       -0.1654
     20 F         -18.2654  -10.1815   18.0571 F       1  UNL1       -0.1654
     21 C         -12.7763   -3.3666   17.5203 C.3     1  UNL1        0.1956
     22 C         -11.4798   -3.5234   18.2583 C.2     1  UNL1        0.2489
     23 O         -10.7592   -2.3130   18.7739 O.2     1  UNL1       -0.2728
     24 N         -10.9038   -4.8904   18.4806 N.am    1  UNL1       -0.2778
     25 C          -9.6732   -5.4269   19.1496 C.3     1  UNL1        0.0952
     26 C         -10.0893   -6.8238   18.7950 C.3     1  UNL1        0.0430
     27 C         -11.3200   -6.2872   18.1260 C.3     1  UNL1        0.0952
@<TRIPOS>BOND
     1     1     2    1
     2     2     3   ar
     3     3     4    2
     4     3     5   ar
     5     5    21    1
     6    21    22    1
     7    22    23    2
     8    22    24   am
     9    24    25    1
    10    25    26    1
    11    26    27    1
    12     5     6   ar
    13     6     7   ar
    14     7     8   ar
    15     8    12    1
    16    12    13   ar
    17    13    14   ar
    18    14    15   ar
    19    15    17    1
    20    17    18    1
    21    17    19    1
    22    17    20    1
    23    15    16   ar
    24     8     9   ar
    25     9    10   ar
    26    10    11   ar
    27    11     2   ar
    28    27    24    1
    29    11     6   ar
    30    16    12   ar
@<TRIPOS>MOLECULE
*****
 27 30 0 0 0
SMALL
GASTEIGER

@<TRIPOS>ATOM
      1 C          -4.6836  -14.9258   25.4015 C.3     1  UNL1        0.1366
      2 N          -5.3358  -15.9685   24.5427 N.ar    1  UNL1       -0.2630
      3 C          -4.6282  -17.0333   23.7581 C.ar    1  UNL1        0.3331
      4 O          -3.1442  -17.2423   23.6945 O.2     1  UNL1       -0.2462
      5 N          -5.6651  -17.8523   23.0483 N.ar    1  UNL1       -0.2694
      6 C          -7.0136  -17.2938   23.3942 C.ar    1  UNL1        0.0986
      7 C          -8.4006  -17.6949   22.9875 C.ar    1  UNL1        0.0224
      8 C          -9.5839  -16.9318   23.5043 C.ar    1  UNL1        0.0267
      9 C          -9.3804  -15.7675   24.4279 C.ar    1  UNL1        0.1011
     10 N          -7.9935  -15.3664   24.8347 N.ar    1  UNL1       -0.2251
     11 C          -6.8101  -16.1295   24.3178 C.ar    1  UNL1        0.1633
     12 C         -10.9710  -17.3329   23.0976 C.ar    1  UNL1        0.0309
     13 C         -11.4902  -17.4099   21.6925 C.ar    1  UNL1        0.0070
     14 C         -12.9224  -17.8520   21.7511 C.ar    1  UNL1        0.0109
     15 C         -13.2883  -18.0483   23.1925 C.ar    1  UNL1        0.1009
     16 S         -12.0822  -17.7275   24.0247 S.2     1  UNL1       -0.0831
     17 C         -14.6254  -18.4882   23.7108 C.3     1  UNL1        0.4241
     18 F         -15.9625  -18.9281   24.2290 F       1  UNL1       -0.1654
     19 F         -15.1306  -18.6100   22.3037 F       1  UNL1       -0.1654
     20 F         -14.1201  -18.3665   25.1178 F       1  UNL1       -0.1654
     21 C          -5.4002  -19.0242   22.1503 C.3     1  UNL1        0.1956
     22 C          -5.0133  -18.7995   20.7185 C.2     1  UNL1        0.2489
     23 O          -6.0749  -18.6310   19.6723 O.2     1  UNL1       -0.2728
     24 N          -3.5647  -18.7434   20.3330 N.am    1  UNL1       -0.2778
     25 C          -2.8160  -18.5431   19.0487 C.3     1  UNL1        0.0952
     26 C          -1.5162  -18.6639   19.7877 C.3     1  UNL1        0.0430
     27 C          -2.2650  -18.8642   21.0720 C.3     1  UNL1        0.0952
@<TRIPOS>BOND
     1     1     2    1
     2     2     3   ar
     3     3     4    2
     4     3     5   ar
     5     5    21    1
     6    21    22    1
     7    22    23    2
     8    22    24   am
     9    24    25    1
    10    25    26    1
    11    26    27    1
    12     5     6   ar
    13     6     7   ar
    14     7     8   ar
    15     8    12    1
    16    12    13   ar
    17    13    14   ar
    18    14    15   ar
    19    15    17    1
    20    17    18    1
    21    17    19    1
    22    17    20    1
    23    15    16   ar
    24     8     9   ar
    25     9    10   ar
    26    10    11   ar
    27    11     2   ar
    28    27    24    1
    29    11     6   ar
    30    16    12   ar
@<TRIPOS>MOLECULE
*****
 27 30 0 0 0
SMALL
GASTEIGER

@<TRIPOS>ATOM
      1 C         -19.2254   -2.6054   20.4215 C.3     1  UNL1        0.1366
      2 N         -17.9752   -2.1085   19.7580 N.ar    1  UNL1       -0.2630
      3 C         -17.8185   -0.8015   19.0389 C.ar    1  UNL1        0.3331
      4 O         -18.8845    0.2381   18.8569 O.2     1  UNL1       -0.2462
      5 N         -16.4088   -0.7166   18.5336 N.ar    1  UNL1       -0.2694
      6 C         -15.6942   -1.9711   18.9405 C.ar    1  UNL1        0.0986
      7 C         -14.2870   -2.4412   18.7197 C.ar    1  UNL1        0.0224
      8 C         -13.8480   -3.7716   19.2556 C.ar    1  UNL1        0.0267
      9 C         -14.8161   -4.6319   20.0124 C.ar    1  UNL1        0.1011
     10 N         -16.2233   -4.1617   20.2332 N.ar    1  UNL1       -0.2251
     11 C         -16.6623   -2.8314   19.6972 C.ar    1  UNL1        0.1633
     12 C         -12.4407   -4.2418   19.0348 C.ar    1  UNL1        0.0309
     13 C         -11.2824   -3.3886   18.6103 C.ar    1  UNL1        0.0070
     14 C         -10.0706   -4.2673   18.5129 C.ar    1  UNL1        0.0109
     15 C         -10.4800   -5.6636   18.8772 C.ar    1  UNL1        0.1009
     16 S         -11.9448   -5.6479   19.1998 S.2     1  UNL1       -0.0831
     17 C          -9.5822   -6.8648   18.9128 C.3     1  UNL1        0.4241
     18 F          -8.6845   -8.0659   18.9483 F       1  UNL1       -0.1654
     19 F          -8.7779   -6.2311   20.0089 F       1  UNL1       -0.1654
     20 F         -10.3866   -7.4984   17.8166 F       1  UNL1       -0.1654
     21 C         -15.8174    0.4228   17.7577 C.3     1  UNL1        0.1956
     22 C         -14.4242    0.8912   18.0575 C.2     1  UNL1        0.2489
     23 O         -14.1750    1.8099   19.2168 O.2     1  UNL1       -0.2728
     24 N         -13.2803    0.4410   17.1979 N.am    1  UNL1       -0.2778
     25 C         -11.8010    0.6890   17.1858 C.3     1  UNL1        0.0952
     26 C         -11.6626   -0.1956   15.9823 C.3     1  UNL1        0.0430
     27 C         -13.1419   -0.4436   15.9944 C.3     1  UNL1        0.0952
@<TRIPOS>BOND
     1     1     2    1
     2     2     3   ar
     3     3     4    2
     4     3     5   ar
     5     5    21    1
     6    21    22    1
     7    22    23    2
     8    22    24   am
     9    24    25    1
    10    25    26    1
    11    26    27    1
    12     5     6   ar
    13     6     7   ar
    14     7     8   ar
    15     8    12    1
    16    12    13   ar
    17    13    14   ar
    18    14    15   ar
    19    15    17    1
    20    17    18    1
    21    17    19    1
    22    17    20    1
    23    15    16   ar
    24     8     9   ar
    25     9    10   ar
    26    10    11   ar
    27    11     2   ar
    28    27    24    1
    29    11     6   ar
    30    16    12   ar
@<TRIPOS>MOLECULE
*****
 27 30 0 0 0
SMALL
GASTEIGER

@<TRIPOS>ATOM
      1 C         -19.4319   -2.5632   20.4416 C.3     1  UNL1        0.1366
      2 N         -18.1679   -2.0288   19.8359 N.ar    1  UNL1       -0.2630
      3 C         -17.9983   -0.6843   19.1928 C.ar    1  UNL1        0.3331
      4 O         -19.0627    0.3618   19.0424 O.2     1  UNL1       -0.2462
      5 N         -16.5772   -0.5696   18.7264 N.ar    1  UNL1       -0.2694
      6 C         -15.8687   -1.8432   19.0813 C.ar    1  UNL1        0.0986
      7 C         -14.4553   -2.2982   18.8687 C.ar    1  UNL1        0.0224
      8 C         -14.0250   -3.6551   19.3417 C.ar    1  UNL1        0.0267
      9 C         -15.0082   -4.5569   20.0274 C.ar    1  UNL1        0.1011
     10 N         -16.4215   -4.1018   20.2401 N.ar    1  UNL1       -0.2251
     11 C         -16.8518   -2.7450   19.7670 C.ar    1  UNL1        0.1633
     12 C         -12.6116   -4.1102   19.1291 C.ar    1  UNL1        0.0309
     13 C         -11.4313   -3.2246   18.8597 C.ar    1  UNL1        0.0070
     14 C         -10.2206   -4.0978   18.7127 C.ar    1  UNL1        0.0109
     15 C         -10.6526   -5.5232   18.8913 C.ar    1  UNL1        0.1009
     16 S         -12.1304   -5.5307   19.1486 S.2     1  UNL1       -0.0831
     17 C          -9.7631   -6.7291   18.8242 C.3     1  UNL1        0.4241
     18 F          -8.8737   -7.9350   18.7572 F       1  UNL1       -0.1654
     19 F          -8.8967   -6.1500   19.9031 F       1  UNL1       -0.1654
     20 F         -10.6296   -7.3082   17.7454 F       1  UNL1       -0.1654
     21 C         -15.9711    0.6113   18.0278 C.3     1  UNL1        0.1956
     22 C         -15.1874    1.6240   18.8092 C.2     1  UNL1        0.2489
     23 O         -13.6899    1.5461   18.8479 O.2     1  UNL1       -0.2728
     24 N         -15.9012    2.7144   19.5517 N.am    1  UNL1       -0.2778
     25 C         -15.4746    3.8671   20.4116 C.3     1  UNL1        0.0952
     26 C         -16.9106    4.2566   20.6019 C.3     1  UNL1        0.0430
     27 C         -17.3372    3.1039   19.7420 C.3     1  UNL1        0.0952
@<TRIPOS>BOND
     1     1     2    1
     2     2     3   ar
     3     3     4    2
     4     3     5   ar
     5     5    21    1
     6    21    22    1
     7    22    23    2
     8    22    24   am
     9    24    25    1
    10    25    26    1
    11    26    27    1
    12     5     6   ar
    13     6     7   ar
    14     7     8   ar
    15     8    12    1
    16    12    13   ar
    17    13    14   ar
    18    14    15   ar
    19    15    17    1
    20    17    18    1
    21    17    19    1
    22    17    20    1
    23    15    16   ar
    24     8     9   ar
    25     9    10   ar
    26    10    11   ar
    27    11     2   ar
    28    27    24    1
    29    11     6   ar
    30    16    12   ar
@<TRIPOS>MOLECULE
*****
 27 30 0 0 0
SMALL
GASTEIGER

@<TRIPOS>ATOM
      1 C           0.4310    1.9800   23.5699 C.3     1  UNL1        0.1366
      2 N           1.2062    0.9410   22.8152 N.ar    1  UNL1       -0.2630
      3 C           1.0339    0.5917   21.3666 C.ar    1  UNL1        0.3331
      4 O           0.0562    1.2202   20.4184 O.2     1  UNL1       -0.2462
      5 N           2.0110   -0.4963   21.0328 N.ar    1  UNL1       -0.2694
      6 C           2.7872   -0.8195   22.2751 C.ar    1  UNL1        0.0986
      7 C           3.8826   -1.8079   22.5455 C.ar    1  UNL1        0.0224
      8 C           4.4805   -1.9080   23.9174 C.ar    1  UNL1        0.0267
      9 C           3.9831   -1.0197   25.0190 C.ar    1  UNL1        0.1011
     10 N           2.8877   -0.0313   24.7486 N.ar    1  UNL1       -0.2251
     11 C           2.2898    0.0688   23.3767 C.ar    1  UNL1        0.1633
     12 C           5.5760   -2.8964   24.1879 C.ar    1  UNL1        0.0309
     13 C           6.3359   -3.0406   25.4731 C.ar    1  UNL1        0.0070
     14 C           7.3334   -4.1475   25.3001 C.ar    1  UNL1        0.0109
     15 C           7.1899   -4.6874   23.9079 C.ar    1  UNL1        0.1009
     16 S           6.1038   -3.9142   23.2206 S.2     1  UNL1       -0.0831
     17 C           7.9917   -5.8044   23.3085 C.3     1  UNL1        0.4241
     18 F           8.7936   -6.9214   22.7090 F       1  UNL1       -0.1654
     19 F           7.7217   -6.6479   24.5190 F       1  UNL1       -0.1654
     20 F           8.2618   -4.9608   22.0979 F       1  UNL1       -0.1654
     21 C           2.1820   -1.1470   19.6922 C.3     1  UNL1        0.1956
     22 C           3.5576   -1.4398   19.1705 C.2     1  UNL1        0.2489
     23 O           4.4834   -0.3122   18.8222 O.2     1  UNL1       -0.2728
     24 N           4.0074   -2.8603   18.9973 N.am    1  UNL1       -0.2778
     25 C           5.2649   -3.5238   18.5196 C.3     1  UNL1        0.0952
     26 C           4.6434   -4.8691   18.7522 C.3     1  UNL1        0.0430
     27 C           3.3859   -4.2055   19.2299 C.3     1  UNL1        0.0952
@<TRIPOS>BOND
     1     1     2    1
     2     2     3   ar
     3     3     4    2
     4     3     5   ar
     5     5    21    1
     6    21    22    1
     7    22    23    2
     8    22    24   am
     9    24    25    1
    10    25    26    1
    11    26    27    1
    12     5     6   ar
    13     6     7   ar
    14     7     8   ar
    15     8    12    1
    16    12    13   ar
    17    13    14   ar
    18    14    15   ar
    19    15    17    1
    20    17    18    1
    21    17    19    1
    22    17    20    1
    23    15    16   ar
    24     8     9   ar
    25     9    10   ar
    26    10    11   ar
    27    11     2   ar
    28    27    24    1
    29    11     6   ar
    30    16    12   ar
@<TRIPOS>MOLECULE
*****
 27 30 0 0 0
SMALL
GASTEIGER

@<TRIPOS>ATOM
      1 C          -0.1356    3.3036   25.2962 C.3     1  UNL1        0.1366
      2 N          -0.2065    3.0465   23.8201 N.ar    1  UNL1       -0.2630
      3 C          -1.1512    3.7002   22.8556 C.ar    1  UNL1        0.3331
      4 O          -2.1908    4.7259   23.1979 O.2     1  UNL1       -0.2462
      5 N          -0.8737    3.1482   21.4888 N.ar    1  UNL1       -0.2694
      6 C           0.2425    2.1533   21.6085 C.ar    1  UNL1        0.0986
      7 C           0.9366    1.2965   20.5916 C.ar    1  UNL1        0.0224
      8 C           2.0431    0.3769   21.0156 C.ar    1  UNL1        0.0267
      9 C           2.4555    0.3140   22.4564 C.ar    1  UNL1        0.1011
     10 N           1.7613    1.1708   23.4733 N.ar    1  UNL1       -0.2251
     11 C           0.6548    2.0904   23.0493 C.ar    1  UNL1        0.1633
     12 C           2.7373   -0.4800   19.9987 C.ar    1  UNL1        0.0309
     13 C           3.2471   -0.0256   18.6632 C.ar    1  UNL1        0.0070
     14 C           3.8684   -1.2065   17.9780 C.ar    1  UNL1        0.0109
     15 C           3.7427   -2.3907   18.8901 C.ar    1  UNL1        0.1009
     16 S           3.0436   -1.9417   20.1389 S.2     1  UNL1       -0.0831
     17 C           4.2304   -3.7800   18.6035 C.3     1  UNL1        0.4241
     18 F           4.7181   -5.1692   18.3170 F       1  UNL1       -0.1654
     19 F           2.9262   -4.3383   19.0907 F       1  UNL1       -0.1654
     20 F           5.5346   -3.2216   18.1164 F       1  UNL1       -0.1654
     21 C          -1.5871    3.5250   20.2242 C.3     1  UNL1        0.1956
     22 C          -3.0691    3.3224   20.1103 C.2     1  UNL1        0.2489
     23 O          -3.8193    2.6365   21.2133 O.2     1  UNL1       -0.2728
     24 N          -3.8007    3.8056   18.8932 N.am    1  UNL1       -0.2778
     25 C          -5.2293    3.7846   18.4366 C.3     1  UNL1        0.0952
     26 C          -4.8354    4.4891   17.1721 C.3     1  UNL1        0.0430
     27 C          -3.4068    4.5101   17.6289 C.3     1  UNL1        0.0952
@<TRIPOS>BOND
     1     1     2    1
     2     2     3   ar
     3     3     4    2
     4     3     5   ar
     5     5    21    1
     6    21    22    1
     7    22    23    2
     8    22    24   am
     9    24    25    1
    10    25    26    1
    11    26    27    1
    12     5     6   ar
    13     6     7   ar
    14     7     8   ar
    15     8    12    1
    16    12    13   ar
    17    13    14   ar
    18    14    15   ar
    19    15    17    1
    20    17    18    1
    21    17    19    1
    22    17    20    1
    23    15    16   ar
    24     8     9   ar
    25     9    10   ar
    26    10    11   ar
    27    11     2   ar
    28    27    24    1
    29    11     6   ar
    30    16    12   ar
@<TRIPOS>MOLECULE
*****
 27 30 0 0 0
SMALL
GASTEIGER

@<TRIPOS>ATOM
      1 C           6.8674   -2.0979   29.4759 C.3     1  UNL1        0.1366
      2 N           5.8747   -1.5281   28.5064 N.ar    1  UNL1       -0.2630
      3 C           4.8788   -0.4451   28.7985 C.ar    1  UNL1        0.3331
      4 O           4.7006    0.2581   30.1114 O.2     1  UNL1       -0.2462
      5 N           4.0923   -0.1890   27.5471 N.ar    1  UNL1       -0.2694
      6 C           4.6022   -1.1135   26.4817 C.ar    1  UNL1        0.0986
      7 C           4.2058   -1.3088   25.0483 C.ar    1  UNL1        0.0224
      8 C           4.9109   -2.3316   24.2078 C.ar    1  UNL1        0.0267
      9 C           6.0125   -3.1592   24.8006 C.ar    1  UNL1        0.1011
     10 N           6.4090   -2.9640   26.2340 N.ar    1  UNL1       -0.2251
     11 C           5.7038   -1.9412   27.0746 C.ar    1  UNL1        0.1633
     12 C           4.5144   -2.5268   22.7743 C.ar    1  UNL1        0.0309
     13 C           3.6645   -1.5970   21.9601 C.ar    1  UNL1        0.0070
     14 C           3.5231   -2.1817   20.5860 C.ar    1  UNL1        0.0109
     15 C           4.2857   -3.4730   20.5510 C.ar    1  UNL1        0.1009
     16 S           4.8984   -3.6862   21.9034 S.2     1  UNL1       -0.0831
     17 C           4.4133   -4.3899   19.3707 C.3     1  UNL1        0.4241
     18 F           4.5408   -5.3068   18.1905 F       1  UNL1       -0.1654
     19 F           2.9513   -4.2205   19.0812 F       1  UNL1       -0.1654
     20 F           5.8752   -4.5593   19.6603 F       1  UNL1       -0.1654
     21 C           2.9895    0.8155   27.3890 C.3     1  UNL1        0.1956
     22 C           1.6281    0.5291   27.9499 C.2     1  UNL1        0.2489
     23 O           1.4486   -0.5627   28.9627 O.2     1  UNL1       -0.2728
     24 N           0.4461    1.3346   27.4981 N.am    1  UNL1       -0.2778
     25 C          -1.0186    1.3415   27.8211 C.3     1  UNL1        0.0952
     26 C          -1.2254    2.4738   26.8591 C.3     1  UNL1        0.0430
     27 C           0.2394    2.4669   26.5362 C.3     1  UNL1        0.0952
@<TRIPOS>BOND
     1     1     2    1
     2     2     3   ar
     3     3     4    2
     4     3     5   ar
     5     5    21    1
     6    21    22    1
     7    22    23    2
     8    22    24   am
     9    24    25    1
    10    25    26    1
    11    26    27    1
    12     5     6   ar
    13     6     7   ar
    14     7     8   ar
    15     8    12    1
    16    12    13   ar
    17    13    14   ar
    18    14    15   ar
    19    15    17    1
    20    17    18    1
    21    17    19    1
    22    17    20    1
    23    15    16   ar
    24     8     9   ar
    25     9    10   ar
    26    10    11   ar
    27    11     2   ar
    28    27    24    1
    29    11     6   ar
    30    16    12   ar
