@<TRIPOS>MOLECULE
*****
 29 31 0 0 0
SMALL
GASTEIGER

@<TRIPOS>ATOM
      1 N          -9.9258  -19.7321   20.2818 N.3     1  UNL1       -0.2971
      2 H          -9.8971  -20.6155   20.7909 H       1  UNL1        0.1233
      3 C         -10.2736  -18.6680   21.2804 C.3     1  UNL1        0.0476
      4 C         -10.6134  -17.7289   20.1612 C.3     1  UNL1        0.0162
      5 C          -9.9337  -19.6072   22.3995 C.3     1  UNL1        0.0162
      6 C         -10.6213  -17.6040   22.2788 C.3     1  UNL1        0.0602
      7 C          -9.5654  -17.0627   23.1964 C.2     1  UNL1        0.0599
      8 C          -9.6647  -16.9564   24.6893 C.2     1  UNL1        0.0159
      9 C          -8.3855  -16.3606   25.1978 C.2     1  UNL1        0.0150
     10 C          -7.9161  -16.0227   26.5818 C.2     1  UNL1        0.0009
     11 C          -6.5567  -15.4229   26.7871 C.2     1  UNL1       -0.0041
     12 C          -5.6666  -15.1610   25.6084 C.2     1  UNL1       -0.0198
     13 C          -6.1361  -15.4989   24.2244 C.3     1  UNL1        0.0717
     14 C          -7.4955  -16.0986   24.0191 C.2     1  UNL1        0.0630
     15 N          -8.2247  -16.5326   22.7822 N.2     1  UNL1       -0.2536
     16 C          -8.6478  -19.6399   19.5020 C.3     1  UNL1        0.1020
     17 C          -7.3566  -19.3525   20.2094 C.3     1  UNL1        0.1697
     18 O          -7.0098  -17.9449   20.5947 O.3     1  UNL1       -0.3793
     19 H          -7.7219  -17.3484   20.3155 H       1  UNL1        0.2106
     20 C          -6.4124  -20.4726   20.5313 C.3     1  UNL1        0.2357
     21 O          -4.9382  -20.2953   20.3184 O.3     1  UNL1       -0.4731
     22 C          -3.0699  -18.5025   20.5317 C.ar    1  UNL1        0.0118
     23 C          -2.3054  -17.5156   21.3633 C.ar    1  UNL1       -0.0013
     24 C          -2.6446  -17.3346   22.8132 C.ar    1  UNL1       -0.0001
     25 C          -3.7483  -18.1405   23.4315 C.ar    1  UNL1        0.0031
     26 C          -4.5128  -19.1274   22.5999 C.ar    1  UNL1        0.0366
     27 C          -4.1736  -19.3084   21.1500 C.ar    1  UNL1        0.1346
     28 C          -1.7918  -17.7285   18.4064 C.3     1  UNL1        0.0051
     29 C          -2.7307  -18.6834   19.0818 C.3     1  UNL1        0.0294
@<TRIPOS>BOND
     1    28    29    1
     2    29    22    1
     3    22    23   ar
     4    23    24   ar
     5    24    25   ar
     6    25    26   ar
     7    26    27   ar
     8    27    21    1
     9    21    20    1
    10    20    17    1
    11    17    18    1
    12    17    16    1
    13    16     1    1
    14     1     3    1
    15     3     4    1
    16     3     5    1
    17     3     6    1
    18     6     7    1
    19     7     8    2
    20     8     9    1
    21     9    10    2
    22    10    11    1
    23    11    12    2
    24    12    13    1
    25    13    14    1
    26    14    15    2
    27    27    22   ar
    28    15     7    1
    29    14     9    1
    30    18    19    1
    31     1     2    1
@<TRIPOS>MOLECULE
*****
 29 31 0 0 0
SMALL
GASTEIGER

@<TRIPOS>ATOM
      1 N          -2.4069  -18.3088   20.7813 N.3     1  UNL1       -0.2971
      2 H          -1.5122  -18.7536   20.5766 H       1  UNL1        0.1233
      3 C          -3.4736  -19.3126   20.4577 C.3     1  UNL1        0.0476
      4 C          -3.8628  -18.5101   19.2516 C.3     1  UNL1        0.0162
      5 C          -3.0844  -20.1150   21.6637 C.3     1  UNL1        0.0162
      6 C          -4.5402  -20.3163   20.1340 C.3     1  UNL1        0.0602
      7 C          -5.9409  -20.1082   20.6287 C.2     1  UNL1        0.0599
      8 C          -6.4185  -20.3124   22.0359 C.2     1  UNL1        0.0159
      9 C          -7.8827  -19.9897   22.0799 C.2     1  UNL1        0.0150
     10 C          -8.8820  -20.0112   23.1983 C.2     1  UNL1        0.0009
     11 C         -10.3088  -19.6292   22.9367 C.2     1  UNL1       -0.0041
     12 C         -10.7362  -19.2256   21.5567 C.2     1  UNL1       -0.0198
     13 C          -9.7368  -19.2040   20.4383 C.3     1  UNL1        0.0717
     14 C          -8.3101  -19.5861   20.6999 C.2     1  UNL1        0.0630
     15 N          -7.1100  -19.6593   19.8030 N.2     1  UNL1       -0.2536
     16 C          -2.3032  -17.7452   22.1675 C.3     1  UNL1        0.1020
     17 C          -3.1553  -16.5775   22.5681 C.3     1  UNL1        0.1697
     18 O          -2.8724  -15.2152   22.0075 O.3     1  UNL1       -0.3793
     19 H          -2.1119  -15.2642   21.4073 H       1  UNL1        0.2106
     20 C          -4.2903  -16.7720   23.5293 C.3     1  UNL1        0.2357
     21 O          -5.4351  -15.8029   23.5440 O.3     1  UNL1       -0.4731
     22 C          -7.7972  -15.9844   24.6105 C.ar    1  UNL1        0.0118
     23 C          -8.6900  -15.8965   25.8126 C.ar    1  UNL1       -0.0013
     24 C          -8.1135  -15.5391   27.1505 C.ar    1  UNL1       -0.0001
     25 C          -6.6441  -15.2696   27.2862 C.ar    1  UNL1        0.0031
     26 C          -5.7514  -15.3575   26.0840 C.ar    1  UNL1        0.0366
     27 C          -6.3279  -15.7150   24.7462 C.ar    1  UNL1        0.1346
     28 C          -9.8268  -16.0969   22.9925 C.3     1  UNL1        0.0051
     29 C          -8.3738  -16.3418   23.2726 C.3     1  UNL1        0.0294
@<TRIPOS>BOND
     1    28    29    1
     2    29    22    1
     3    22    23   ar
     4    23    24   ar
     5    24    25   ar
     6    25    26   ar
     7    26    27   ar
     8    27    21    1
     9    21    20    1
    10    20    17    1
    11    17    18    1
    12    17    16    1
    13    16     1    1
    14     1     3    1
    15     3     4    1
    16     3     5    1
    17     3     6    1
    18     6     7    1
    19     7     8    2
    20     8     9    1
    21     9    10    2
    22    10    11    1
    23    11    12    2
    24    12    13    1
    25    13    14    1
    26    14    15    2
    27    27    22   ar
    28    15     7    1
    29    14     9    1
    30    18    19    1
    31     1     2    1
@<TRIPOS>MOLECULE
*****
 29 31 0 0 0
SMALL
GASTEIGER

@<TRIPOS>ATOM
      1 N          -6.5053  -14.7093   25.6755 N.3     1  UNL1       -0.2971
      2 H          -6.5055  -13.9410   25.0047 H       1  UNL1        0.1233
      3 C          -7.8317  -15.3978   25.5458 C.3     1  UNL1        0.0476
      4 C          -8.0378  -14.7489   24.2093 C.3     1  UNL1        0.0162
      5 C          -7.6256  -16.0468   26.8823 C.3     1  UNL1        0.0162
      6 C          -9.1580  -16.0863   25.4161 C.3     1  UNL1        0.0602
      7 C          -9.5433  -16.7336   24.1190 C.2     1  UNL1        0.0599
      8 C          -9.0709  -18.0690   23.6255 C.2     1  UNL1        0.0159
      9 C          -9.7043  -18.3200   22.2892 C.2     1  UNL1        0.0150
     10 C          -9.6061  -19.4708   21.3321 C.2     1  UNL1        0.0009
     11 C         -10.3717  -19.4412   20.0426 C.2     1  UNL1       -0.0041
     12 C         -11.2356  -18.2609   19.7102 C.2     1  UNL1       -0.0198
     13 C         -11.3339  -17.1101   20.6672 C.3     1  UNL1        0.0717
     14 C         -10.5683  -17.1397   21.9567 C.2     1  UNL1        0.0630
     15 N         -10.4687  -16.1593   23.0876 N.2     1  UNL1       -0.2536
     16 C          -5.2365  -15.4778   25.4532 C.3     1  UNL1        0.1020
     17 C          -4.7733  -15.7732   24.0574 C.3     1  UNL1        0.1697
     18 O          -4.9154  -14.7346   22.9844 O.3     1  UNL1       -0.3793
     19 H          -5.3222  -13.9373   23.3581 H       1  UNL1        0.2106
     20 C          -4.1679  -17.1071   23.7345 C.3     1  UNL1        0.2357
     21 O          -3.7770  -17.4314   22.3232 O.3     1  UNL1       -0.4731
     22 C          -3.5395  -19.3553   20.5933 C.ar    1  UNL1        0.0118
     23 C          -4.0982  -20.5746   19.9217 C.ar    1  UNL1       -0.0013
     24 C          -5.4530  -21.0895   20.3084 C.ar    1  UNL1       -0.0001
     25 C          -6.2491  -20.3850   21.3666 C.ar    1  UNL1        0.0031
     26 C          -5.6904  -19.1657   22.0382 C.ar    1  UNL1        0.0366
     27 C          -4.3356  -18.6508   21.6515 C.ar    1  UNL1        0.1346
     28 C          -2.0004  -18.1179   18.9051 C.3     1  UNL1        0.0051
     29 C          -2.1848  -18.8404   20.2067 C.3     1  UNL1        0.0294
@<TRIPOS>BOND
     1    28    29    1
     2    29    22    1
     3    22    23   ar
     4    23    24   ar
     5    24    25   ar
     6    25    26   ar
     7    26    27   ar
     8    27    21    1
     9    21    20    1
    10    20    17    1
    11    17    18    1
    12    17    16    1
    13    16     1    1
    14     1     3    1
    15     3     4    1
    16     3     5    1
    17     3     6    1
    18     6     7    1
    19     7     8    2
    20     8     9    1
    21     9    10    2
    22    10    11    1
    23    11    12    2
    24    12    13    1
    25    13    14    1
    26    14    15    2
    27    27    22   ar
    28    15     7    1
    29    14     9    1
    30    18    19    1
    31     1     2    1
@<TRIPOS>MOLECULE
*****
 29 31 0 0 0
SMALL
GASTEIGER

@<TRIPOS>ATOM
      1 N          -6.6038  -14.7073   25.6222 N.3     1  UNL1       -0.2971
      2 H          -6.5950  -13.8583   25.0569 H       1  UNL1        0.1233
      3 C          -7.8851  -15.4221   25.3102 C.3     1  UNL1        0.0476
      4 C          -7.7556  -16.2088   26.5808 C.3     1  UNL1        0.0162
      5 C          -8.0147  -14.6354   24.0397 C.3     1  UNL1        0.0162
      6 C          -9.1664  -16.1369   24.9983 C.3     1  UNL1        0.0602
      7 C          -9.3015  -16.9111   23.7206 C.2     1  UNL1        0.0599
      8 C         -10.5585  -17.0776   22.9193 C.2     1  UNL1        0.0159
      9 C         -10.2372  -17.9241   21.7234 C.2     1  UNL1        0.0150
     10 C         -11.0820  -18.4163   20.5858 C.2     1  UNL1        0.0009
     11 C         -10.4711  -19.2651   19.5105 C.2     1  UNL1       -0.0041
     12 C          -9.0155  -19.6217   19.5727 C.2     1  UNL1       -0.0198
     13 C          -8.1707  -19.1296   20.7103 C.3     1  UNL1        0.0717
     14 C          -8.7815  -18.2808   21.7856 C.2     1  UNL1        0.0630
     15 N          -8.2033  -17.6547   23.0200 N.2     1  UNL1       -0.2536
     16 C          -5.2886  -15.3920   25.3955 C.3     1  UNL1        0.1020
     17 C          -4.8396  -15.7106   24.0002 C.3     1  UNL1        0.1697
     18 O          -4.9177  -14.6629   22.9296 O.3     1  UNL1       -0.3793
     19 H          -5.2782  -13.8440   23.3043 H       1  UNL1        0.2106
     20 C          -4.3125  -17.0768   23.6754 C.3     1  UNL1        0.2357
     21 O          -4.4651  -17.6297   22.2895 O.3     1  UNL1       -0.4731
     22 C          -3.3137  -18.5289   20.1410 C.ar    1  UNL1        0.0118
     23 C          -2.1392  -18.5497   19.2083 C.ar    1  UNL1       -0.0013
     24 C          -0.9415  -17.6921   19.4912 C.ar    1  UNL1       -0.0001
     25 C          -0.9183  -16.8137   20.7069 C.ar    1  UNL1        0.0031
     26 C          -2.0929  -16.7929   21.6396 C.ar    1  UNL1        0.0366
     27 C          -3.2905  -17.6505   21.3567 C.ar    1  UNL1        0.1346
     28 C          -4.4411  -20.8687   20.0773 C.3     1  UNL1        0.0051
     29 C          -4.5114  -19.3865   19.8581 C.3     1  UNL1        0.0294
@<TRIPOS>BOND
     1    28    29    1
     2    29    22    1
     3    22    23   ar
     4    23    24   ar
     5    24    25   ar
     6    25    26   ar
     7    26    27   ar
     8    27    21    1
     9    21    20    1
    10    20    17    1
    11    17    18    1
    12    17    16    1
    13    16     1    1
    14     1     3    1
    15     3     4    1
    16     3     5    1
    17     3     6    1
    18     6     7    1
    19     7     8    2
    20     8     9    1
    21     9    10    2
    22    10    11    1
    23    11    12    2
    24    12    13    1
    25    13    14    1
    26    14    15    2
    27    27    22   ar
    28    15     7    1
    29    14     9    1
    30    18    19    1
    31     1     2    1
@<TRIPOS>MOLECULE
*****
 29 31 0 0 0
SMALL
GASTEIGER

@<TRIPOS>ATOM
      1 N          -4.5113  -19.6316   21.7090 N.3     1  UNL1       -0.2971
      2 H          -4.7787  -19.5001   22.6846 H       1  UNL1        0.1233
      3 C          -5.7776  -19.8709   20.9414 C.3     1  UNL1        0.0476
      4 C          -6.2798  -20.7538   22.0451 C.3     1  UNL1        0.0162
      5 C          -5.2755  -18.9880   19.8377 C.3     1  UNL1        0.0162
      6 C          -7.0439  -20.1102   20.1738 C.3     1  UNL1        0.0602
      7 C          -8.3168  -19.4403   20.5992 C.2     1  UNL1        0.0599
      8 C          -8.9397  -19.5147   21.9617 C.2     1  UNL1        0.0159
      9 C         -10.1981  -18.6987   21.9413 C.2     1  UNL1        0.0150
     10 C         -11.2230  -18.4079   22.9972 C.2     1  UNL1        0.0009
     11 C         -12.4028  -17.5383   22.6780 C.2     1  UNL1       -0.0041
     12 C         -12.5577  -16.9596   21.3028 C.2     1  UNL1       -0.0198
     13 C         -11.5328  -17.2504   20.2469 C.3     1  UNL1        0.0717
     14 C         -10.3530  -18.1199   20.5662 C.2     1  UNL1        0.0630
     15 N          -9.1903  -18.5783   19.7367 N.2     1  UNL1       -0.2536
     16 C          -3.6199  -18.4812   21.3456 C.3     1  UNL1        0.1020
     17 C          -3.1155  -17.5566   22.4137 C.3     1  UNL1        0.1697
     18 O          -1.7439  -16.9598   22.3025 O.3     1  UNL1       -0.3793
     19 H          -1.3205  -17.2720   21.4876 H       1  UNL1        0.2106
     20 C          -3.9828  -17.2288   23.5928 C.3     1  UNL1        0.2357
     21 O          -4.8621  -16.0140   23.5623 O.3     1  UNL1       -0.4731
     22 C          -7.3660  -15.9865   24.2551 C.ar    1  UNL1        0.0118
     23 C          -8.4216  -15.7982   25.3040 C.ar    1  UNL1       -0.0013
     24 C          -8.0290  -15.4493   26.7090 C.ar    1  UNL1       -0.0001
     25 C          -6.5809  -15.2885   27.0651 C.ar    1  UNL1        0.0031
     26 C          -5.5252  -15.4767   26.0163 C.ar    1  UNL1        0.0366
     27 C          -5.9178  -15.8257   24.6112 C.ar    1  UNL1        0.1346
     28 C          -8.4498  -15.3193   21.9901 C.3     1  UNL1        0.0051
     29 C          -7.7586  -16.3355   22.8501 C.3     1  UNL1        0.0294
@<TRIPOS>BOND
     1    28    29    1
     2    29    22    1
     3    22    23   ar
     4    23    24   ar
     5    24    25   ar
     6    25    26   ar
     7    26    27   ar
     8    27    21    1
     9    21    20    1
    10    20    17    1
    11    17    18    1
    12    17    16    1
    13    16     1    1
    14     1     3    1
    15     3     4    1
    16     3     5    1
    17     3     6    1
    18     6     7    1
    19     7     8    2
    20     8     9    1
    21     9    10    2
    22    10    11    1
    23    11    12    2
    24    12    13    1
    25    13    14    1
    26    14    15    2
    27    27    22   ar
    28    15     7    1
    29    14     9    1
    30    18    19    1
    31     1     2    1
@<TRIPOS>MOLECULE
*****
 29 31 0 0 0
SMALL
GASTEIGER

@<TRIPOS>ATOM
      1 N          -8.3049  -15.5507   24.9616 N.3     1  UNL1       -0.2971
      2 H          -8.5310  -15.2790   25.9184 H       1  UNL1        0.1233
      3 C          -6.8228  -15.3822   24.8023 C.3     1  UNL1        0.0476
      4 C          -6.6373  -15.6265   26.2705 C.3     1  UNL1        0.0162
      5 C          -7.0084  -15.1378   23.3340 C.3     1  UNL1        0.0162
      6 C          -5.3409  -15.2137   24.6431 C.3     1  UNL1        0.0602
      7 C          -4.5745  -16.1323   23.7381 C.2     1  UNL1        0.0599
      8 C          -4.6815  -17.6280   23.7043 C.2     1  UNL1        0.0159
      9 C          -3.7398  -18.1366   22.6534 C.2     1  UNL1        0.0150
     10 C          -3.4206  -19.5228   22.1775 C.2     1  UNL1        0.0009
     11 C          -2.4125  -19.7275   21.0860 C.2     1  UNL1       -0.0041
     12 C          -1.7234  -18.5460   20.4702 C.2     1  UNL1       -0.0198
     13 C          -2.0425  -17.1597   20.9460 C.3     1  UNL1        0.0717
     14 C          -3.0507  -16.9550   22.0376 C.2     1  UNL1        0.0630
     15 N          -3.5666  -15.7163   22.7080 N.2     1  UNL1       -0.2536
     16 C          -8.9362  -16.8917   24.7316 C.3     1  UNL1        0.1020
     17 C         -10.1054  -17.0206   23.8007 C.3     1  UNL1        0.1697
     18 O         -10.3891  -15.9407   22.7990 O.3     1  UNL1       -0.3793
     19 H          -9.7270  -15.2372   22.8859 H       1  UNL1        0.2106
     20 C         -10.9908  -18.2293   23.8715 C.3     1  UNL1        0.2357
     21 O         -10.8603  -19.3157   22.8455 O.3     1  UNL1       -0.4731
     22 C          -9.5659  -19.2501   20.5937 C.ar    1  UNL1        0.0118
     23 C          -8.2872  -19.4064   19.8255 C.ar    1  UNL1       -0.0013
     24 C          -7.0240  -19.7846   20.5406 C.ar    1  UNL1       -0.0001
     25 C          -7.0396  -20.0065   22.0239 C.ar    1  UNL1        0.0031
     26 C          -8.3183  -19.8502   22.7922 C.ar    1  UNL1        0.0366
     27 C          -9.5815  -19.4720   22.0771 C.ar    1  UNL1        0.1346
     28 C         -11.2476  -17.4334   19.8055 C.3     1  UNL1        0.0051
     29 C         -10.8291  -18.8720   19.8786 C.3     1  UNL1        0.0294
@<TRIPOS>BOND
     1    28    29    1
     2    29    22    1
     3    22    23   ar
     4    23    24   ar
     5    24    25   ar
     6    25    26   ar
     7    26    27   ar
     8    27    21    1
     9    21    20    1
    10    20    17    1
    11    17    18    1
    12    17    16    1
    13    16     1    1
    14     1     3    1
    15     3     4    1
    16     3     5    1
    17     3     6    1
    18     6     7    1
    19     7     8    2
    20     8     9    1
    21     9    10    2
    22    10    11    1
    23    11    12    2
    24    12    13    1
    25    13    14    1
    26    14    15    2
    27    27    22   ar
    28    15     7    1
    29    14     9    1
    30    18    19    1
    31     1     2    1
@<TRIPOS>MOLECULE
*****
 29 31 0 0 0
SMALL
GASTEIGER

@<TRIPOS>ATOM
      1 N          -2.7995  -19.1809   21.2079 N.3     1  UNL1       -0.2971
      2 H          -2.3439  -18.8015   20.3780 H       1  UNL1        0.1233
      3 C          -3.0072  -18.0330   22.1509 C.3     1  UNL1        0.0476
      4 C          -2.2175  -17.1413   21.2392 C.3     1  UNL1        0.0162
      5 C          -3.7969  -18.9247   23.0626 C.3     1  UNL1        0.0162
      6 C          -3.2149  -16.8850   23.0938 C.3     1  UNL1        0.0602
      7 C          -4.5857  -16.5911   23.6271 C.2     1  UNL1        0.0599
      8 C          -4.9023  -16.0131   24.9746 C.2     1  UNL1        0.0159
      9 C          -6.3929  -15.8883   25.0869 C.2     1  UNL1        0.0150
     10 C          -7.2777  -15.3834   26.1878 C.2     1  UNL1        0.0009
     11 C          -8.7672  -15.3792   26.0106 C.2     1  UNL1       -0.0041
     12 C          -9.3718  -15.8800   24.7325 C.2     1  UNL1       -0.0198
     13 C          -8.4870  -16.3850   23.6316 C.3     1  UNL1        0.0717
     14 C          -6.9976  -16.3891   23.8088 C.2     1  UNL1        0.0630
     15 N          -5.8806  -16.8235   22.9066 N.2     1  UNL1       -0.2536
     16 C          -3.9749  -19.9805   20.7294 C.3     1  UNL1        0.1020
     17 C          -5.0571  -19.3179   19.9295 C.3     1  UNL1        0.1697
     18 O          -4.7307  -18.1454   19.0527 O.3     1  UNL1       -0.3793
     19 H          -3.7836  -17.9464   19.1182 H       1  UNL1        0.2106
     20 C          -6.4657  -19.8277   20.0065 C.3     1  UNL1        0.2357
     21 O          -7.5828  -18.8934   20.3656 O.3     1  UNL1       -0.4731
     22 C         -10.0595  -19.1055   21.1215 C.ar    1  UNL1        0.0118
     23 C         -11.0736  -19.5095   22.1502 C.ar    1  UNL1       -0.0013
     24 C         -10.6254  -20.1056   23.4516 C.ar    1  UNL1       -0.0001
     25 C          -9.1630  -20.2976   23.7244 C.ar    1  UNL1        0.0031
     26 C          -8.1488  -19.8936   22.6958 C.ar    1  UNL1        0.0366
     27 C          -8.5971  -19.2975   21.3943 C.ar    1  UNL1        0.1346
     28 C         -11.1764  -17.1669   19.8008 C.3     1  UNL1        0.0051
     29 C         -10.5077  -18.5094   19.8201 C.3     1  UNL1        0.0294
@<TRIPOS>BOND
     1    28    29    1
     2    29    22    1
     3    22    23   ar
     4    23    24   ar
     5    24    25   ar
     6    25    26   ar
     7    26    27   ar
     8    27    21    1
     9    21    20    1
    10    20    17    1
    11    17    18    1
    12    17    16    1
    13    16     1    1
    14     1     3    1
    15     3     4    1
    16     3     5    1
    17     3     6    1
    18     6     7    1
    19     7     8    2
    20     8     9    1
    21     9    10    2
    22    10    11    1
    23    11    12    2
    24    12    13    1
    25    13    14    1
    26    14    15    2
    27    27    22   ar
    28    15     7    1
    29    14     9    1
    30    18    19    1
    31     1     2    1
@<TRIPOS>MOLECULE
*****
 29 31 0 0 0
SMALL
GASTEIGER

@<TRIPOS>ATOM
      1 N          -6.6468  -14.5774   25.1040 N.3     1  UNL1       -0.2971
      2 H          -6.3669  -13.9493   25.8574 H       1  UNL1        0.1233
      3 C          -5.4728  -15.4681   24.8240 C.3     1  UNL1        0.0476
      4 C          -5.4569  -15.8987   26.2607 C.3     1  UNL1        0.0162
      5 C          -5.4888  -15.0375   23.3872 C.3     1  UNL1        0.0162
      6 C          -4.2989  -16.3588   24.5440 C.3     1  UNL1        0.0602
      7 C          -4.3930  -17.4113   23.4795 C.2     1  UNL1        0.0599
      8 C          -3.2551  -17.9350   22.6542 C.2     1  UNL1        0.0159
      9 C          -3.8004  -18.9723   21.7179 C.2     1  UNL1        0.0150
     10 C          -3.1445  -19.8251   20.6727 C.2     1  UNL1        0.0009
     11 C          -3.9635  -20.7953   19.8741 C.2     1  UNL1       -0.0041
     12 C          -5.4384  -20.9128   20.1207 C.2     1  UNL1       -0.0198
     13 C          -6.0944  -20.0600   21.1659 C.3     1  UNL1        0.0717
     14 C          -5.2754  -19.0898   21.9645 C.2     1  UNL1        0.0630
     15 N          -5.6416  -18.1251   23.0532 N.2     1  UNL1       -0.2536
     16 C          -7.9629  -15.1750   25.5050 C.3     1  UNL1        0.1020
     17 C          -8.6935  -16.0825   24.5602 C.3     1  UNL1        0.1697
     18 O          -9.0450  -15.6048   23.1825 O.3     1  UNL1       -0.3793
     19 H          -8.7302  -14.6948   23.0656 H       1  UNL1        0.2106
     20 C          -9.0726  -17.4677   24.9932 C.3     1  UNL1        0.2357
     21 O          -9.4867  -18.4856   23.9722 O.3     1  UNL1       -0.4731
     22 C         -10.7584  -18.3766   21.7093 C.ar    1  UNL1        0.0118
     23 C         -12.0360  -18.1950   20.9446 C.ar    1  UNL1       -0.0013
     24 C         -13.3195  -17.9409   21.6781 C.ar    1  UNL1       -0.0001
     25 C         -13.3254  -17.8683   23.1763 C.ar    1  UNL1        0.0031
     26 C         -12.0478  -18.0499   23.9410 C.ar    1  UNL1        0.0366
     27 C         -10.7643  -18.3040   23.2075 C.ar    1  UNL1        0.1346
     28 C          -9.4926  -19.3534   19.6615 C.3     1  UNL1        0.0051
     29 C          -9.4749  -18.6308   20.9757 C.3     1  UNL1        0.0294
@<TRIPOS>BOND
     1    28    29    1
     2    29    22    1
     3    22    23   ar
     4    23    24   ar
     5    24    25   ar
     6    25    26   ar
     7    26    27   ar
     8    27    21    1
     9    21    20    1
    10    20    17    1
    11    17    18    1
    12    17    16    1
    13    16     1    1
    14     1     3    1
    15     3     4    1
    16     3     5    1
    17     3     6    1
    18     6     7    1
    19     7     8    2
    20     8     9    1
    21     9    10    2
    22    10    11    1
    23    11    12    2
    24    12    13    1
    25    13    14    1
    26    14    15    2
    27    27    22   ar
    28    15     7    1
    29    14     9    1
    30    18    19    1
    31     1     2    1
@<TRIPOS>MOLECULE
*****
 29 31 0 0 0
SMALL
GASTEIGER

@<TRIPOS>ATOM
      1 N          -3.3466  -19.3199   20.8824 N.3     1  UNL1       -0.2971
      2 H          -2.4541  -19.2911   20.3895 H       1  UNL1        0.1233
      3 C          -3.3063  -18.2324   21.9149 C.3     1  UNL1        0.0476
      4 C          -2.6087  -17.3318   20.9391 C.3     1  UNL1        0.0162
      5 C          -4.0038  -19.1331   22.8908 C.3     1  UNL1        0.0162
      6 C          -3.2659  -17.1451   22.9473 C.3     1  UNL1        0.0602
      7 C          -4.5259  -16.7263   23.6452 C.2     1  UNL1        0.0599
      8 C          -4.6467  -16.3374   25.0889 C.2     1  UNL1        0.0159
      9 C          -6.0817  -15.9936   25.3579 C.2     1  UNL1        0.0150
     10 C          -6.7898  -15.5427   26.6010 C.2     1  UNL1        0.0009
     11 C          -8.2641  -15.2683   26.5667 C.2     1  UNL1       -0.0041
     12 C          -9.0303  -15.4449   25.2893 C.2     1  UNL1       -0.0198
     13 C          -8.3222  -15.8958   24.0462 C.3     1  UNL1        0.0717
     14 C          -6.8480  -16.1702   24.0805 C.2     1  UNL1        0.0630
     15 N          -5.8864  -16.6230   23.0220 N.2     1  UNL1       -0.2536
     16 C          -4.4201  -19.3199   19.8348 C.3     1  UNL1        0.1020
     17 C          -5.7285  -20.0032   20.1016 C.3     1  UNL1        0.1697
     18 O          -5.7871  -21.4988   20.2004 O.3     1  UNL1       -0.3793
     19 H          -4.8993  -21.8666   20.0686 H       1  UNL1        0.2106
     20 C          -6.9783  -19.1910   20.2697 C.3     1  UNL1        0.2357
     21 O          -7.8798  -19.4360   21.4432 O.3     1  UNL1       -0.4731
     22 C         -10.1396  -18.9943   22.6467 C.ar    1  UNL1        0.0118
     23 C         -11.5699  -18.5448   22.6003 C.ar    1  UNL1       -0.0013
     24 C         -12.1707  -18.0872   21.3043 C.ar    1  UNL1       -0.0001
     25 C         -11.3412  -18.0793   20.0546 C.ar    1  UNL1        0.0031
     26 C          -9.9110  -18.5289   20.1009 C.ar    1  UNL1        0.0366
     27 C          -9.3102  -18.9864   21.3969 C.ar    1  UNL1        0.1346
     28 C         -10.1413  -19.0137   25.2446 C.3     1  UNL1        0.0051
     29 C          -9.5389  -19.4518   23.9427 C.3     1  UNL1        0.0294
@<TRIPOS>BOND
     1    28    29    1
     2    29    22    1
     3    22    23   ar
     4    23    24   ar
     5    24    25   ar
     6    25    26   ar
     7    26    27   ar
     8    27    21    1
     9    21    20    1
    10    20    17    1
    11    17    18    1
    12    17    16    1
    13    16     1    1
    14     1     3    1
    15     3     4    1
    16     3     5    1
    17     3     6    1
    18     6     7    1
    19     7     8    2
    20     8     9    1
    21     9    10    2
    22    10    11    1
    23    11    12    2
    24    12    13    1
    25    13    14    1
    26    14    15    2
    27    27    22   ar
    28    15     7    1
    29    14     9    1
    30    18    19    1
    31     1     2    1
