@<TRIPOS>MOLECULE
*****
 30 32 0 0 0
SMALL
GASTEIGER

@<TRIPOS>ATOM
      1 N           1.5183    3.1629   19.3425 N.am    1  UNL1       -0.2658
      2 C           2.1985    1.9161   18.8603 C.2     1  UNL1        0.3082
      3 O           1.4543    0.9420   17.9958 O.2     1  UNL1       -0.2521
      4 N           3.6232    1.6433   19.2424 N.am    1  UNL1       -0.2680
      5 H           2.0068    3.8022   19.9099 H       1  UNL1        0.1565
      6 H           4.1117    2.2826   19.8098 H       1  UNL1        0.1564
      7 C          -1.0105    3.1641   19.9387 C.ar    1  UNL1        0.1040
      8 C           0.0936    3.4357   18.9603 C.ar    1  UNL1        0.0871
      9 C          -0.2269    3.9800   17.5999 C.ar    1  UNL1        0.1165
     10 N          -1.6516    4.2527   17.2177 N.ar    1  UNL1       -0.2236
     11 C          -2.7557    3.9812   18.1961 C.ar    1  UNL1        0.1660
     12 C          -4.2432    4.1500   18.1030 C.ar    1  UNL1        0.0713
     13 C          -4.8420    3.7100   19.4060 C.ar    1  UNL1        0.1613
     14 CL         -6.3020    3.7107   19.7503 Cl      1  UNL1       -0.0594
     15 N          -3.7246    3.2693   20.3044 N.ar    1  UNL1       -0.1523
     16 N          -2.4351    3.4368   19.5566 N.ar    1  UNL1       -0.2118
     17 C          -0.6899    2.6198   21.2992 C.3     1  UNL1        0.1564
     18 C          -0.9567    3.4487   22.5206 C.3     1  UNL1        0.0387
     19 C           1.1015    1.0303   22.3063 C.3     1  UNL1        0.1745
     20 O          -0.1025    1.2466   21.4384 O.3     1  UNL1       -0.3476
     21 C           4.3035    0.3964   18.7601 C.ar    1  UNL1        0.0546
     22 C           5.5531    0.4946   17.9364 C.ar    1  UNL1        0.0354
     23 C           6.2334   -0.7523   17.4542 C.ar    1  UNL1        0.1000
     24 N           5.6640   -2.0973   17.7956 N.ar    1  UNL1       -0.2398
     25 C           4.4142   -2.1955   18.6193 C.ar    1  UNL1        0.1539
     26 C           3.7339   -0.9486   19.1016 C.ar    1  UNL1        0.0378
     27 C           3.8448   -3.5405   18.9608 C.3     1  UNL1        0.4349
     28 F           3.2753   -4.8856   19.3022 F       1  UNL1       -0.1644
     29 F           2.7171   -2.8769   19.6942 F       1  UNL1       -0.1644
     30 F           4.9725   -4.2041   18.2272 F       1  UNL1       -0.1644
@<TRIPOS>BOND
     1    19    20    1
     2    20    17    1
     3    17    18    1
     4    17     7    1
     5     7     8   ar
     6     8     1    1
     7     1     2   am
     8     2     3    2
     9     2     4   am
    10     4    21    1
    11    21    22   ar
    12    22    23   ar
    13    23    24   ar
    14    24    25   ar
    15    25    27    1
    16    27    28    1
    17    27    29    1
    18    27    30    1
    19    25    26   ar
    20     8     9   ar
    21     9    10   ar
    22    10    11   ar
    23    11    12   ar
    24    12    13   ar
    25    13    14    1
    26    13    15   ar
    27    15    16   ar
    28    16     7   ar
    29    26    21   ar
    30    16    11   ar
    31     1     5    1
    32     4     6    1
@<TRIPOS>MOLECULE
*****
 30 32 0 0 0
SMALL
GASTEIGER

@<TRIPOS>ATOM
      1 N           1.9871    2.9239   35.3123 N.am    1  UNL1       -0.2658
      2 C           2.9162    2.1779   34.4012 C.2     1  UNL1        0.3082
      3 O           4.4000    2.2788   34.5968 O.2     1  UNL1       -0.2521
      4 N           2.3615    1.3309   33.2944 N.am    1  UNL1       -0.2680
      5 H           1.0132    2.8576   35.1839 H       1  UNL1        0.1565
      6 H           1.3877    1.2646   33.1660 H       1  UNL1        0.1564
      7 C           2.8704    3.1512   37.7450 C.ar    1  UNL1        0.1040
      8 C           2.5418    3.7709   36.4191 C.ar    1  UNL1        0.0871
      9 C           2.7679    5.2374   36.2000 C.ar    1  UNL1        0.1165
     10 N           3.3226    6.0844   37.3069 N.ar    1  UNL1       -0.2236
     11 C           3.6512    5.4647   38.6328 C.ar    1  UNL1        0.1660
     12 C           4.2061    6.0427   39.9008 C.ar    1  UNL1        0.0713
     13 C           4.3229    4.9334   40.9036 C.ar    1  UNL1        0.1613
     14 CL          4.8329    5.0646   42.3082 Cl      1  UNL1       -0.0594
     15 N           3.8402    3.6697   40.2553 N.ar    1  UNL1       -0.1523
     16 N           3.4251    3.9981   38.8518 N.ar    1  UNL1       -0.2118
     17 C           2.6443    1.6846   37.9641 C.3     1  UNL1        0.1564
     18 C           3.7635    0.7115   37.7400 C.3     1  UNL1        0.0387
     19 C           1.1927    0.2315   39.5552 C.3     1  UNL1        0.1745
     20 O           1.2988    1.1912   38.4074 O.3     1  UNL1       -0.3476
     21 C           3.2907    0.5849   32.3832 C.ar    1  UNL1        0.0546
     22 C           3.6137    1.1364   31.0263 C.ar    1  UNL1        0.0354
     23 C           4.5428    0.3905   30.1151 C.ar    1  UNL1        0.1000
     24 N           5.1489   -0.9072   30.5609 N.ar    1  UNL1       -0.2398
     25 C           4.8259   -1.4588   31.9179 C.ar    1  UNL1        0.1539
     26 C           3.8968   -0.7128   32.8291 C.ar    1  UNL1        0.0378
     27 C           5.4320   -2.7565   32.3637 C.3     1  UNL1        0.4349
     28 F           6.0381   -4.0541   32.8095 F       1  UNL1       -0.1644
     29 F           6.3279   -2.7514   31.1606 F       1  UNL1       -0.1644
     30 F           4.5361   -2.7615   33.5668 F       1  UNL1       -0.1644
@<TRIPOS>BOND
     1    19    20    1
     2    20    17    1
     3    17    18    1
     4    17     7    1
     5     7     8   ar
     6     8     1    1
     7     1     2   am
     8     2     3    2
     9     2     4   am
    10     4    21    1
    11    21    22   ar
    12    22    23   ar
    13    23    24   ar
    14    24    25   ar
    15    25    27    1
    16    27    28    1
    17    27    29    1
    18    27    30    1
    19    25    26   ar
    20     8     9   ar
    21     9    10   ar
    22    10    11   ar
    23    11    12   ar
    24    12    13   ar
    25    13    14    1
    26    13    15   ar
    27    15    16   ar
    28    16     7   ar
    29    26    21   ar
    30    16    11   ar
    31     1     5    1
    32     4     6    1
@<TRIPOS>MOLECULE
*****
 30 32 0 0 0
SMALL
GASTEIGER

@<TRIPOS>ATOM
      1 N           7.6075   -2.4749   21.9075 N.am    1  UNL1       -0.2658
      2 C           6.4576   -2.2685   20.9667 C.2     1  UNL1        0.3082
      3 O           5.5539   -3.4155   20.6235 O.2     1  UNL1       -0.2521
      4 N           6.2113   -0.9149   20.3690 N.am    1  UNL1       -0.2680
      5 H           8.2006   -1.7221   22.1327 H       1  UNL1        0.1565
      6 H           6.8044   -0.1621   20.5942 H       1  UNL1        0.1564
      7 C           7.3709   -4.1352   23.8918 C.ar    1  UNL1        0.1040
      8 C           7.8537   -3.8286   22.5052 C.ar    1  UNL1        0.0871
      9 C           8.5827   -4.8755   21.7163 C.ar    1  UNL1        0.1165
     10 N           8.8289   -6.2291   22.3139 N.ar    1  UNL1       -0.2236
     11 C           8.3460   -6.5357   23.7006 C.ar    1  UNL1        0.1660
     12 C           8.4414   -7.7708   24.5464 C.ar    1  UNL1        0.0713
     13 C           7.7713   -7.4872   25.8581 C.ar    1  UNL1        0.1613
     14 CL          7.6347   -8.4457   27.0038 Cl      1  UNL1       -0.0594
     15 N           7.2618   -6.0768   25.8230 N.ar    1  UNL1       -0.1523
     16 N           7.6170   -5.4887   24.4896 N.ar    1  UNL1       -0.2118
     17 C           6.6418   -3.0882   24.6808 C.3     1  UNL1        0.1564
     18 C           7.2848   -2.4777   25.8907 C.3     1  UNL1        0.0387
     19 C           4.5277   -1.6284   25.0671 C.3     1  UNL1        0.1745
     20 O           5.2698   -2.6518   24.2598 O.3     1  UNL1       -0.3476
     21 C           5.0614   -0.7084   19.4282 C.ar    1  UNL1        0.0546
     22 C           5.2851   -0.7668   17.9462 C.ar    1  UNL1        0.0354
     23 C           4.1352   -0.5603   17.0054 C.ar    1  UNL1        0.1000
     24 N           2.7616   -0.2954   17.5466 N.ar    1  UNL1       -0.2398
     25 C           2.5379   -0.2369   19.0287 C.ar    1  UNL1        0.1539
     26 C           3.6878   -0.4435   19.9696 C.ar    1  UNL1        0.0378
     27 C           1.1643    0.0280   19.5700 C.3     1  UNL1        0.4349
     28 F          -0.2094    0.2929   20.1112 F       1  UNL1       -0.1644
     29 F           0.8487    0.8596   18.3622 F       1  UNL1       -0.1644
     30 F           1.4798   -0.8037   20.7778 F       1  UNL1       -0.1644
@<TRIPOS>BOND
     1    19    20    1
     2    20    17    1
     3    17    18    1
     4    17     7    1
     5     7     8   ar
     6     8     1    1
     7     1     2   am
     8     2     3    2
     9     2     4   am
    10     4    21    1
    11    21    22   ar
    12    22    23   ar
    13    23    24   ar
    14    24    25   ar
    15    25    27    1
    16    27    28    1
    17    27    29    1
    18    27    30    1
    19    25    26   ar
    20     8     9   ar
    21     9    10   ar
    22    10    11   ar
    23    11    12   ar
    24    12    13   ar
    25    13    14    1
    26    13    15   ar
    27    15    16   ar
    28    16     7   ar
    29    26    21   ar
    30    16    11   ar
    31     1     5    1
    32     4     6    1
@<TRIPOS>MOLECULE
*****
 30 32 0 0 0
SMALL
GASTEIGER

@<TRIPOS>ATOM
      1 N           2.2978    1.6247   21.6637 N.am    1  UNL1       -0.2658
      2 C           0.8142    1.8450   21.6846 C.2     1  UNL1        0.3082
      3 O          -0.1192    0.6737   21.6012 O.2     1  UNL1       -0.2521
      4 N           0.2640    3.2365   21.7889 N.am    1  UNL1       -0.2680
      5 H           2.9104    2.3934   21.7184 H       1  UNL1        0.1565
      6 H           0.8766    4.0052   21.8436 H       1  UNL1        0.1564
      7 C           3.0135   -0.4090   20.2139 C.ar    1  UNL1        0.1040
      8 C           2.8480    0.2331   21.5594 C.ar    1  UNL1        0.0871
      9 C           3.2326   -0.5163   22.8005 C.ar    1  UNL1        0.1165
     10 N           3.7827   -1.9080   22.6962 N.ar    1  UNL1       -0.2236
     11 C           3.9483   -2.5500   21.3507 C.ar    1  UNL1        0.1660
     12 C           4.4601   -3.8983   20.9382 C.ar    1  UNL1        0.0713
     13 C           4.3918   -3.9821   19.4421 C.ar    1  UNL1        0.1613
     14 CL          4.8050   -5.1562   18.6050 Cl      1  UNL1       -0.0594
     15 N           3.8378   -2.6856   18.9300 N.ar    1  UNL1       -0.1523
     16 N           3.5637   -1.8005   20.1096 N.ar    1  UNL1       -0.2118
     17 C           2.6289    0.3405   18.9728 C.3     1  UNL1        0.1564
     18 C           3.6852    1.0037   18.1395 C.3     1  UNL1        0.0387
     19 C           0.5834    1.7564   18.2239 C.3     1  UNL1        0.1745
     20 O           1.1879    0.4268   18.5650 O.3     1  UNL1       -0.3476
     21 C          -1.2197    3.4568   21.8098 C.ar    1  UNL1        0.0546
     22 C          -1.9163    3.7490   23.1055 C.ar    1  UNL1        0.0354
     23 C          -3.3999    3.9693   23.1264 C.ar    1  UNL1        0.1000
     24 N          -4.1868    3.8973   21.8515 N.ar    1  UNL1       -0.2398
     25 C          -3.4901    3.6051   20.5556 C.ar    1  UNL1        0.1539
     26 C          -2.0065    3.3848   20.5347 C.ar    1  UNL1        0.0378
     27 C          -4.2771    3.5331   19.2806 C.3     1  UNL1        0.4349
     28 F          -5.0640    3.4612   18.0057 F       1  UNL1       -0.1644
     29 F          -3.0626    3.9539   18.5073 F       1  UNL1       -0.1644
     30 F          -5.4915    3.1123   20.0540 F       1  UNL1       -0.1644
@<TRIPOS>BOND
     1    19    20    1
     2    20    17    1
     3    17    18    1
     4    17     7    1
     5     7     8   ar
     6     8     1    1
     7     1     2   am
     8     2     3    2
     9     2     4   am
    10     4    21    1
    11    21    22   ar
    12    22    23   ar
    13    23    24   ar
    14    24    25   ar
    15    25    27    1
    16    27    28    1
    17    27    29    1
    18    27    30    1
    19    25    26   ar
    20     8     9   ar
    21     9    10   ar
    22    10    11   ar
    23    11    12   ar
    24    12    13   ar
    25    13    14    1
    26    13    15   ar
    27    15    16   ar
    28    16     7   ar
    29    26    21   ar
    30    16    11   ar
    31     1     5    1
    32     4     6    1
@<TRIPOS>MOLECULE
*****
 30 32 0 0 0
SMALL
GASTEIGER

@<TRIPOS>ATOM
      1 N           6.3624    0.5999   33.4016 N.am    1  UNL1       -0.2658
      2 C           5.9417    0.7301   34.8355 C.2     1  UNL1        0.3082
      3 O           6.3597   -0.3057   35.8369 O.2     1  UNL1       -0.2521
      4 N           5.1030    1.8960   35.2682 N.am    1  UNL1       -0.2680
      5 H           6.0880    1.2797   32.7445 H       1  UNL1        0.1565
      6 H           4.8287    2.5758   34.6111 H       1  UNL1        0.1564
      7 C           6.5436   -1.8213   32.4770 C.ar    1  UNL1        0.1040
      8 C           7.2011   -0.5661   32.9690 C.ar    1  UNL1        0.0871
      9 C           8.6972   -0.4769   33.0284 C.ar    1  UNL1        0.1165
     10 N           9.5359   -1.6428   32.5958 N.ar    1  UNL1       -0.2236
     11 C           8.8784   -2.8980   32.1038 C.ar    1  UNL1        0.1660
     12 C           9.4402   -4.1999   31.6144 C.ar    1  UNL1        0.0713
     13 C           8.2913   -5.0937   31.2526 C.ar    1  UNL1        0.1613
     14 CL          8.3958   -6.4916   30.7187 Cl      1  UNL1       -0.0594
     15 N           7.0193   -4.3443   31.5183 N.ar    1  UNL1       -0.1523
     16 N           7.3822   -2.9873   32.0444 N.ar    1  UNL1       -0.2118
     17 C           5.0474   -1.9105   32.4176 C.3     1  UNL1        0.1564
     18 C           4.3059   -2.7496   33.4156 C.3     1  UNL1        0.0387
     19 C           3.2699   -0.1362   31.7526 C.3     1  UNL1        0.1745
     20 O           4.2927   -1.1606   31.3601 O.3     1  UNL1       -0.3476
     21 C           4.6823    2.0262   36.7022 C.ar    1  UNL1        0.0546
     22 C           5.6819    2.4357   37.7428 C.ar    1  UNL1        0.0354
     23 C           5.2613    2.5659   39.1767 C.ar    1  UNL1        0.1000
     24 N           3.8410    2.2865   39.5699 N.ar    1  UNL1       -0.2398
     25 C           2.8413    1.8769   38.5293 C.ar    1  UNL1        0.1539
     26 C           3.2620    1.7467   37.0953 C.ar    1  UNL1        0.0378
     27 C           1.4210    1.5974   38.9226 C.3     1  UNL1        0.4349
     28 F           0.0007    1.3180   39.3158 F       1  UNL1       -0.1644
     29 F           1.8103    0.2114   39.3436 F       1  UNL1       -0.1644
     30 F           1.0318    2.9835   38.5015 F       1  UNL1       -0.1644
@<TRIPOS>BOND
     1    19    20    1
     2    20    17    1
     3    17    18    1
     4    17     7    1
     5     7     8   ar
     6     8     1    1
     7     1     2   am
     8     2     3    2
     9     2     4   am
    10     4    21    1
    11    21    22   ar
    12    22    23   ar
    13    23    24   ar
    14    24    25   ar
    15    25    27    1
    16    27    28    1
    17    27    29    1
    18    27    30    1
    19    25    26   ar
    20     8     9   ar
    21     9    10   ar
    22    10    11   ar
    23    11    12   ar
    24    12    13   ar
    25    13    14    1
    26    13    15   ar
    27    15    16   ar
    28    16     7   ar
    29    26    21   ar
    30    16    11   ar
    31     1     5    1
    32     4     6    1
@<TRIPOS>MOLECULE
*****
 30 32 0 0 0
SMALL
GASTEIGER

@<TRIPOS>ATOM
      1 N           2.2417    1.6321   21.5079 N.am    1  UNL1       -0.2658
      2 C           0.7579    1.8489   21.5420 C.2     1  UNL1        0.3082
      3 O          -0.1729    0.6729   21.5131 O.2     1  UNL1       -0.2521
      4 N           0.2047    3.2417   21.6049 N.am    1  UNL1       -0.2680
      5 H           2.8525    2.4040   21.5268 H       1  UNL1        0.1565
      6 H           0.8155    4.0136   21.6238 H       1  UNL1        0.1564
      7 C           2.9779   -0.4358   20.1179 C.ar    1  UNL1        0.1040
      8 C           2.7949    0.2392   21.4449 C.ar    1  UNL1        0.0871
      9 C           3.1650   -0.4786   22.7088 C.ar    1  UNL1        0.1165
     10 N           3.7182   -1.8716   22.6459 N.ar    1  UNL1       -0.2236
     11 C           3.9012   -2.5465   21.3189 C.ar    1  UNL1        0.1660
     12 C           4.4198   -3.9038   20.9463 C.ar    1  UNL1        0.0713
     13 C           4.3702   -4.0247   19.4520 C.ar    1  UNL1        0.1613
     14 CL          4.7952   -5.2186   18.6495 Cl      1  UNL1       -0.0594
     15 N           3.8209   -2.7422   18.9011 N.ar    1  UNL1       -0.1523
     16 N           3.5311   -1.8286   20.0549 N.ar    1  UNL1       -0.2118
     17 C           2.6078    0.2821   18.8539 C.3     1  UNL1        0.1564
     18 C           3.6810    0.7633   17.9229 C.3     1  UNL1        0.0387
     19 C           0.6928    1.8981   18.1675 C.3     1  UNL1        0.1745
     20 O           1.1644    0.5189   18.5210 O.3     1  UNL1       -0.3476
     21 C          -1.2793    3.4585   21.6390 C.ar    1  UNL1        0.0546
     22 C          -2.0348    3.6776   20.3619 C.ar    1  UNL1        0.0354
     23 C          -3.5186    3.8944   20.3960 C.ar    1  UNL1        0.1000
     24 N          -4.2470    3.8921   21.7073 N.ar    1  UNL1       -0.2398
     25 C          -3.4915    3.6730   22.9845 C.ar    1  UNL1        0.1539
     26 C          -2.0075    3.4562   22.9504 C.ar    1  UNL1        0.0378
     27 C          -4.2198    3.6707   24.2958 C.3     1  UNL1        0.4349
     28 F          -4.9482    3.6684   25.6070 F       1  UNL1       -0.1644
     29 F          -3.4016    4.8420   24.7523 F       1  UNL1       -0.1644
     30 F          -5.0381    2.4993   23.8391 F       1  UNL1       -0.1644
@<TRIPOS>BOND
     1    19    20    1
     2    20    17    1
     3    17    18    1
     4    17     7    1
     5     7     8   ar
     6     8     1    1
     7     1     2   am
     8     2     3    2
     9     2     4   am
    10     4    21    1
    11    21    22   ar
    12    22    23   ar
    13    23    24   ar
    14    24    25   ar
    15    25    27    1
    16    27    28    1
    17    27    29    1
    18    27    30    1
    19    25    26   ar
    20     8     9   ar
    21     9    10   ar
    22    10    11   ar
    23    11    12   ar
    24    12    13   ar
    25    13    14    1
    26    13    15   ar
    27    15    16   ar
    28    16     7   ar
    29    26    21   ar
    30    16    11   ar
    31     1     5    1
    32     4     6    1
@<TRIPOS>MOLECULE
*****
 30 32 0 0 0
SMALL
GASTEIGER

@<TRIPOS>ATOM
      1 N           7.7634   -2.4146   20.7071 N.am    1  UNL1       -0.2658
      2 C           7.5413   -3.5658   21.6426 C.2     1  UNL1        0.3082
      3 O           6.2140   -4.2640   21.6711 O.2     1  UNL1       -0.2521
      4 N           8.6467   -4.0190   22.5497 N.am    1  UNL1       -0.2680
      5 H           8.6346   -1.9564   20.6884 H       1  UNL1        0.1565
      6 H           9.5179   -3.5609   22.5310 H       1  UNL1        0.1564
      7 C           5.5166   -1.1593   20.3513 C.ar    1  UNL1        0.1040
      8 C           6.6580   -1.9614   19.7999 C.ar    1  UNL1        0.0871
      9 C           6.6939   -2.3103   18.3416 C.ar    1  UNL1        0.1165
     10 N           5.5885   -1.8571   17.4345 N.ar    1  UNL1       -0.2236
     11 C           4.4472   -1.0551   17.9859 C.ar    1  UNL1        0.1660
     12 C           3.2246   -0.4737   17.3399 C.ar    1  UNL1        0.0713
     13 C           2.4331    0.2346   18.3991 C.ar    1  UNL1        0.1613
     14 CL          1.1359    0.9593   18.1938 Cl      1  UNL1       -0.0594
     15 N           3.1665    0.0909   19.6997 N.ar    1  UNL1       -0.1523
     16 N           4.4112   -0.7062   19.4443 N.ar    1  UNL1       -0.2118
     17 C           5.4807   -0.8105   21.8098 C.3     1  UNL1        0.1564
     18 C           4.3703   -1.3252   22.6769 C.3     1  UNL1        0.0387
     19 C           7.2401   -0.3640   23.6686 C.3     1  UNL1        0.1745
     20 O           6.5553    0.0532   22.4010 O.3     1  UNL1       -0.3476
     21 C           8.4247   -5.1704   23.4853 C.ar    1  UNL1        0.0546
     22 C           8.8857   -6.5459   23.1045 C.ar    1  UNL1        0.0354
     23 C           8.6637   -7.6972   24.0400 C.ar    1  UNL1        0.1000
     24 N           7.9806   -7.4729   25.3564 N.ar    1  UNL1       -0.2398
     25 C           7.5195   -6.0972   25.7373 C.ar    1  UNL1        0.1539
     26 C           7.7415   -4.9459   24.8017 C.ar    1  UNL1        0.0378
     27 C           6.8363   -5.8729   27.0537 C.3     1  UNL1        0.4349
     28 F           6.1532   -5.6486   28.3702 F       1  UNL1       -0.1644
     29 F           6.3477   -4.5388   26.5728 F       1  UNL1       -0.1644
     30 F           7.3250   -7.2071   27.5346 F       1  UNL1       -0.1644
@<TRIPOS>BOND
     1    19    20    1
     2    20    17    1
     3    17    18    1
     4    17     7    1
     5     7     8   ar
     6     8     1    1
     7     1     2   am
     8     2     3    2
     9     2     4   am
    10     4    21    1
    11    21    22   ar
    12    22    23   ar
    13    23    24   ar
    14    24    25   ar
    15    25    27    1
    16    27    28    1
    17    27    29    1
    18    27    30    1
    19    25    26   ar
    20     8     9   ar
    21     9    10   ar
    22    10    11   ar
    23    11    12   ar
    24    12    13   ar
    25    13    14    1
    26    13    15   ar
    27    15    16   ar
    28    16     7   ar
    29    26    21   ar
    30    16    11   ar
    31     1     5    1
    32     4     6    1
@<TRIPOS>MOLECULE
*****
 30 32 0 0 0
SMALL
GASTEIGER

@<TRIPOS>ATOM
      1 N         -14.4972   -2.0608   17.6395 N.am    1  UNL1       -0.2658
      2 C         -15.3270   -1.4718   18.7415 C.2     1  UNL1        0.3082
      3 O         -14.8849   -1.6083   20.1684 O.2     1  UNL1       -0.2521
      4 N         -16.5990   -0.7463   18.4166 N.am    1  UNL1       -0.2680
      5 H         -14.7873   -1.9711   16.7030 H       1  UNL1        0.1565
      6 H         -16.8892   -0.6566   17.4801 H       1  UNL1        0.1564
      7 C         -13.2021   -4.2860   17.9877 C.ar    1  UNL1        0.1040
      8 C         -13.2251   -2.7863   17.9644 C.ar    1  UNL1        0.0871
      9 C         -11.9762   -2.0123   18.2659 C.ar    1  UNL1        0.1165
     10 N         -10.7041   -2.7379   18.5908 N.ar    1  UNL1       -0.2236
     11 C         -10.6811   -4.2375   18.6142 C.ar    1  UNL1        0.1660
     12 C          -9.5841   -5.2202   18.8986 C.ar    1  UNL1        0.0713
     13 C         -10.1551   -6.6015   18.7729 C.ar    1  UNL1        0.1613
     14 CL         -9.4074   -7.8863   18.9739 Cl      1  UNL1       -0.0594
     15 N         -11.6050   -6.4726   18.4107 N.ar    1  UNL1       -0.1523
     16 N         -11.9301   -5.0116   18.3127 N.ar    1  UNL1       -0.2118
     17 C         -14.4511   -5.0600   17.6862 C.3     1  UNL1        0.1564
     18 C         -14.5385   -5.8858   16.4370 C.3     1  UNL1        0.0387
     19 C         -16.1451   -6.2739   19.2376 C.3     1  UNL1        0.1745
     20 O         -15.6127   -5.0083   18.6339 O.3     1  UNL1       -0.3476
     21 C         -17.4290   -0.1572   19.5187 C.ar    1  UNL1        0.0546
     22 C         -18.8255   -0.6520   19.7522 C.ar    1  UNL1        0.0354
     23 C         -19.6554   -0.0630   20.8542 C.ar    1  UNL1        0.1000
     24 N         -19.0887    1.0207   21.7226 N.ar    1  UNL1       -0.2398
     25 C         -17.6920    1.5155   21.4891 C.ar    1  UNL1        0.1539
     26 C         -16.8621    0.9265   20.3870 C.ar    1  UNL1        0.0378
     27 C         -17.1253    2.5993   22.3575 C.3     1  UNL1        0.4349
     28 F         -16.5585    3.6831   23.2260 F       1  UNL1       -0.1644
     29 F         -16.5666    3.2801   21.1433 F       1  UNL1       -0.1644
     30 F         -17.6840    1.9184   23.5718 F       1  UNL1       -0.1644
@<TRIPOS>BOND
     1    19    20    1
     2    20    17    1
     3    17    18    1
     4    17     7    1
     5     7     8   ar
     6     8     1    1
     7     1     2   am
     8     2     3    2
     9     2     4   am
    10     4    21    1
    11    21    22   ar
    12    22    23   ar
    13    23    24   ar
    14    24    25   ar
    15    25    27    1
    16    27    28    1
    17    27    29    1
    18    27    30    1
    19    25    26   ar
    20     8     9   ar
    21     9    10   ar
    22    10    11   ar
    23    11    12   ar
    24    12    13   ar
    25    13    14    1
    26    13    15   ar
    27    15    16   ar
    28    16     7   ar
    29    26    21   ar
    30    16    11   ar
    31     1     5    1
    32     4     6    1
@<TRIPOS>MOLECULE
*****
 30 32 0 0 0
SMALL
GASTEIGER

@<TRIPOS>ATOM
      1 N          -4.0377    2.7989   21.0087 N.am    1  UNL1       -0.2658
      2 C          -4.3387    3.6459   22.2095 C.2     1  UNL1        0.3082
      3 O          -3.9984    5.1068   22.2012 O.2     1  UNL1       -0.2521
      4 N          -4.9801    3.0322   23.4186 N.am    1  UNL1       -0.2680
      5 H          -4.2611    1.8400   21.0142 H       1  UNL1        0.1565
      6 H          -5.2035    2.0734   23.4240 H       1  UNL1        0.1564
      7 C          -1.9089    3.6011   19.7540 C.ar    1  UNL1        0.1040
      8 C          -3.3963    3.4127   19.7996 C.ar    1  UNL1        0.0871
      9 C          -4.2422    3.8381   18.6364 C.ar    1  UNL1        0.1165
     10 N          -3.6008    4.4519   17.4272 N.ar    1  UNL1       -0.2236
     11 C          -2.1134    4.6403   17.3816 C.ar    1  UNL1        0.1660
     12 C          -1.2059    5.2123   16.3331 C.ar    1  UNL1        0.0713
     13 C           0.2009    5.1404   16.8485 C.ar    1  UNL1        0.1613
     14 CL          1.4300    5.6036   16.1241 Cl      1  UNL1       -0.0594
     15 N           0.1629    4.5240   18.2155 N.ar    1  UNL1       -0.1523
     16 N          -1.2674    4.2149   18.5449 N.ar    1  UNL1       -0.2118
     17 C          -1.0629    3.1757   20.9173 C.3     1  UNL1        0.1564
     18 C          -0.6073    4.1902   21.9240 C.3     1  UNL1        0.0387
     19 C           0.2891    1.1101   20.1079 C.3     1  UNL1        0.1745
     20 O          -0.6726    1.7358   21.0740 O.3     1  UNL1       -0.3476
     21 C          -5.2811    3.8793   24.6194 C.ar    1  UNL1        0.0546
     22 C          -4.3801    3.8293   25.8175 C.ar    1  UNL1        0.0354
     23 C          -4.6811    4.6763   27.0182 C.ar    1  UNL1        0.1000
     24 N          -5.8832    5.5735   27.0209 N.ar    1  UNL1       -0.2398
     25 C          -6.7843    5.6235   25.8228 C.ar    1  UNL1        0.1539
     26 C          -6.4833    4.7764   24.6219 C.ar    1  UNL1        0.0378
     27 C          -7.9865    6.5207   25.8254 C.3     1  UNL1        0.4349
     28 F          -9.1886    7.4178   25.8280 F       1  UNL1       -0.1644
     29 F          -8.1450    6.3126   24.3484 F       1  UNL1       -0.1644
     30 F          -7.8278    6.7288   27.3025 F       1  UNL1       -0.1644
@<TRIPOS>BOND
     1    19    20    1
     2    20    17    1
     3    17    18    1
     4    17     7    1
     5     7     8   ar
     6     8     1    1
     7     1     2   am
     8     2     3    2
     9     2     4   am
    10     4    21    1
    11    21    22   ar
    12    22    23   ar
    13    23    24   ar
    14    24    25   ar
    15    25    27    1
    16    27    28    1
    17    27    29    1
    18    27    30    1
    19    25    26   ar
    20     8     9   ar
    21     9    10   ar
    22    10    11   ar
    23    11    12   ar
    24    12    13   ar
    25    13    14    1
    26    13    15   ar
    27    15    16   ar
    28    16     7   ar
    29    26    21   ar
    30    16    11   ar
    31     1     5    1
    32     4     6    1
