@<TRIPOS>MOLECULE
*****
 30 32 0 0 0
SMALL
GASTEIGER

@<TRIPOS>ATOM
      1 C           6.9247   -4.0926   29.7534 C.ar    1  UNL1        0.1773
      2 C           6.3574   -2.7951   29.2585 C.ar    1  UNL1        0.1402
      3 N           5.7484   -1.8249   30.2268 N.ar    1  UNL1       -0.2089
      4 C           5.7065   -2.1522   31.6900 C.ar    1  UNL1        0.2205
      5 N           6.2737   -3.4496   32.1849 N.ar    1  UNL1       -0.2089
      6 C           6.8828   -4.4198   31.2166 C.ar    1  UNL1        0.1402
      7 N           5.0974   -1.1820   32.6584 N.pl3   1  UNL1       -0.2747
      8 C           5.6294   -1.0849   34.0575 C.3     1  UNL1        0.1152
      9 C           5.0203   -0.1148   35.0259 C.3     1  UNL1        0.1182
     10 N           3.8793    0.7583   34.5952 N.am    1  UNL1       -0.2425
     11 C           3.2702    1.7285   35.5636 C.2     1  UNL1        0.4052
     12 O           2.1291    2.6016   35.1329 O.2     1  UNL1       -0.2262
     13 C           3.3472    0.6613   33.1961 C.3     1  UNL1        0.1182
     14 C           3.9563   -0.3089   32.2277 C.3     1  UNL1        0.1152
     15 O           3.8022    1.8256   36.9628 O.3     1  UNL1       -0.4252
     16 C           3.1680    1.0277   38.0633 C.3     1  UNL1        0.3125
     17 C           1.8927    1.5022   38.6946 C.3     1  UNL1        0.4382
     18 F           0.6174    1.9767   39.3259 F       1  UNL1       -0.1663
     19 F           1.4408    0.0804   38.8502 F       1  UNL1       -0.1663
     20 F           2.3447    2.9240   38.5390 F       1  UNL1       -0.1663
     21 O           7.5338   -5.0628   28.7850 O.3     1  UNL1       -0.4675
     22 C           6.6646   -5.7796   27.7947 C.3     1  UNL1        0.2329
     23 C           7.6422   -7.0921   25.7768 C.ar    1  UNL1        0.0871
     24 C           8.0389   -7.1455   24.3313 C.ar    1  UNL1        0.1089
     25 N           7.8548   -5.9400   23.4579 N.ar    1  UNL1       -0.2416
     26 C           7.2739   -4.6810   24.0302 C.ar    1  UNL1        0.0987
     27 C           6.8772   -4.6275   25.4757 C.ar    1  UNL1        0.0207
     28 C           7.0614   -5.8331   26.3491 C.ar    1  UNL1        0.0339
     29 N           8.0105   -9.5032   27.5235 N.1     1  UNL1       -0.1908
     30 C           7.8264   -8.2977   26.6502 C.1     1  UNL1        0.1018
@<TRIPOS>BOND
     1    29    30    3
     2    30    23    1
     3    23    24   ar
     4    24    25   ar
     5    25    26   ar
     6    26    27   ar
     7    27    28   ar
     8    28    22    1
     9    22    21    1
    10    21     1    1
    11     1     2   ar
    12     2     3   ar
    13     3     4   ar
    14     4     7    1
    15     7     8    1
    16     8     9    1
    17     9    10    1
    18    10    11   am
    19    11    12    2
    20    11    15    1
    21    15    16    1
    22    16    17    1
    23    17    18    1
    24    17    19    1
    25    17    20    1
    26    10    13    1
    27    13    14    1
    28     4     5   ar
    29     5     6   ar
    30    28    23   ar
    31     6     1   ar
    32    14     7    1
@<TRIPOS>MOLECULE
*****
 30 32 0 0 0
SMALL
GASTEIGER

@<TRIPOS>ATOM
      1 C          -1.7573    3.5976   23.1557 C.ar    1  UNL1        0.1773
      2 C          -2.0914    3.3681   21.7115 C.ar    1  UNL1        0.1402
      3 N          -1.1473    2.5981   20.8365 N.ar    1  UNL1       -0.2089
      4 C           0.1309    2.0577   21.4057 C.ar    1  UNL1        0.2205
      5 N           0.4650    2.2871   22.8499 N.ar    1  UNL1       -0.2089
      6 C          -0.4791    3.0571   23.7249 C.ar    1  UNL1        0.1402
      7 N           1.0751    1.2876   20.5307 N.pl3   1  UNL1       -0.2747
      8 C           2.1771    0.4777   21.1468 C.3     1  UNL1        0.1152
      9 C           3.1213   -0.2923   20.2719 C.3     1  UNL1        0.1182
     10 N           2.9635   -0.2524   18.7808 N.am    1  UNL1       -0.2425
     11 C           3.9077   -1.0224   17.9058 C.2     1  UNL1        0.4052
     12 O           3.7498   -0.9826   16.4147 O.2     1  UNL1       -0.2262
     13 C           1.8615    0.5575   18.1646 C.3     1  UNL1        0.1182
     14 C           0.9173    1.3275   19.0396 C.3     1  UNL1        0.1152
     15 O           5.0097   -1.8323   18.5219 O.3     1  UNL1       -0.4252
     16 C           5.1068   -3.3026   18.2415 C.3     1  UNL1        0.3125
     17 C           4.3672   -4.2813   19.1047 C.3     1  UNL1        0.4382
     18 F           3.6276   -5.2600   19.9679 F       1  UNL1       -0.1663
     19 F           4.1435   -3.2087   20.1291 F       1  UNL1       -0.1663
     20 F           4.5909   -5.3539   18.0802 F       1  UNL1       -0.1663
     21 O          -2.7015    4.3677   24.0308 O.3     1  UNL1       -0.4675
     22 C          -3.9261    3.7000   24.5826 C.3     1  UNL1        0.2329
     23 C          -6.1430    4.9642   25.0696 C.ar    1  UNL1        0.0871
     24 C          -7.5049    5.4147   24.6310 C.ar    1  UNL1        0.1089
     25 N          -8.0118    5.0514   23.2668 N.ar    1  UNL1       -0.2416
     26 C          -7.1568    4.2377   22.3412 C.ar    1  UNL1        0.0987
     27 C          -5.7949    3.7872   22.7798 C.ar    1  UNL1        0.0207
     28 C          -5.2881    4.1505   24.1440 C.ar    1  UNL1        0.0339
     29 N          -5.1293    5.6908   27.7981 N.1     1  UNL1       -0.1908
     30 C          -5.6362    5.3275   26.4339 C.1     1  UNL1        0.1018
@<TRIPOS>BOND
     1    29    30    3
     2    30    23    1
     3    23    24   ar
     4    24    25   ar
     5    25    26   ar
     6    26    27   ar
     7    27    28   ar
     8    28    22    1
     9    22    21    1
    10    21     1    1
    11     1     2   ar
    12     2     3   ar
    13     3     4   ar
    14     4     7    1
    15     7     8    1
    16     8     9    1
    17     9    10    1
    18    10    11   am
    19    11    12    2
    20    11    15    1
    21    15    16    1
    22    16    17    1
    23    17    18    1
    24    17    19    1
    25    17    20    1
    26    10    13    1
    27    13    14    1
    28     4     5   ar
    29     5     6   ar
    30    28    23   ar
    31     6     1   ar
    32    14     7    1
@<TRIPOS>MOLECULE
*****
 30 32 0 0 0
SMALL
GASTEIGER

@<TRIPOS>ATOM
      1 C          -3.3536    4.1578   22.5519 C.ar    1  UNL1        0.1773
      2 C          -3.5599    3.5780   21.1839 C.ar    1  UNL1        0.1402
      3 N          -2.4627    2.7925   20.5289 N.ar    1  UNL1       -0.2089
      4 C          -1.1591    2.5869   21.2419 C.ar    1  UNL1        0.2205
      5 N          -0.9528    3.1667   22.6098 N.ar    1  UNL1       -0.2089
      6 C          -2.0500    3.9521   23.2648 C.ar    1  UNL1        0.1402
      7 N          -0.0618    1.8014   20.5869 N.pl3   1  UNL1       -0.2747
      8 C           0.6984    0.7751   21.3736 C.3     1  UNL1        0.1152
      9 C           1.7957   -0.0103   20.7187 C.3     1  UNL1        0.1182
     10 N           2.1327    0.2304   19.2770 N.am    1  UNL1       -0.2425
     11 C           3.2301   -0.5551   18.6220 C.2     1  UNL1        0.4052
     12 O           3.5671   -0.3144   17.1804 O.2     1  UNL1       -0.2262
     13 C           1.3725    1.2566   18.4903 C.3     1  UNL1        0.1182
     14 C           0.2753    2.0421   19.1452 C.3     1  UNL1        0.1152
     15 O           3.9903   -1.5813   19.4087 O.3     1  UNL1       -0.4252
     16 C           3.4259   -2.9597   19.5862 C.3     1  UNL1        0.3125
     17 C           4.0881   -4.1321   18.9252 C.3     1  UNL1        0.4382
     18 F           4.7503   -5.3046   18.2642 F       1  UNL1       -0.1663
     19 F           5.2345   -3.2549   18.5177 F       1  UNL1       -0.1663
     20 F           2.9416   -5.0094   19.3327 F       1  UNL1       -0.1663
     21 O          -4.4509    4.9433   23.2069 O.3     1  UNL1       -0.4675
     22 C          -5.3503    4.2831   24.2095 C.3     1  UNL1        0.2329
     23 C          -6.4592    5.7174   26.0704 C.ar    1  UNL1        0.0871
     24 C          -7.6516    6.4525   26.6069 C.ar    1  UNL1        0.1089
     25 N          -8.9275    6.4884   25.8189 N.ar    1  UNL1       -0.2416
     26 C          -9.0109    5.7893   24.4945 C.ar    1  UNL1        0.0987
     27 C          -7.8185    5.0542   23.9580 C.ar    1  UNL1        0.0207
     28 C          -6.5427    5.0183   24.7460 C.ar    1  UNL1        0.0339
     29 N          -3.9075    5.6454   27.6464 N.1     1  UNL1       -0.1908
     30 C          -5.1834    5.6814   26.8584 C.1     1  UNL1        0.1018
@<TRIPOS>BOND
     1    29    30    3
     2    30    23    1
     3    23    24   ar
     4    24    25   ar
     5    25    26   ar
     6    26    27   ar
     7    27    28   ar
     8    28    22    1
     9    22    21    1
    10    21     1    1
    11     1     2   ar
    12     2     3   ar
    13     3     4   ar
    14     4     7    1
    15     7     8    1
    16     8     9    1
    17     9    10    1
    18    10    11   am
    19    11    12    2
    20    11    15    1
    21    15    16    1
    22    16    17    1
    23    17    18    1
    24    17    19    1
    25    17    20    1
    26    10    13    1
    27    13    14    1
    28     4     5   ar
    29     5     6   ar
    30    28    23   ar
    31     6     1   ar
    32    14     7    1
@<TRIPOS>MOLECULE
*****
 30 32 0 0 0
SMALL
GASTEIGER

@<TRIPOS>ATOM
      1 C          -2.2378    3.6647   22.3014 C.ar    1  UNL1        0.1773
      2 C          -1.0244    3.2727   23.0914 C.ar    1  UNL1        0.1402
      3 N           0.0533    2.4489   22.4514 N.ar    1  UNL1       -0.2089
      4 C          -0.0823    2.0171   21.0213 C.ar    1  UNL1        0.2205
      5 N          -1.2956    2.4091   20.2313 N.ar    1  UNL1       -0.2089
      6 C          -2.3734    3.2329   20.8714 C.ar    1  UNL1        0.1402
      7 N           0.9956    1.1932   20.3812 N.pl3   1  UNL1       -0.2747
      8 C           1.9687    0.4366   21.2360 C.3     1  UNL1        0.1152
      9 C           3.0464   -0.3872   20.5960 C.3     1  UNL1        0.1182
     10 N           3.1511   -0.4544   19.1012 N.am    1  UNL1       -0.2425
     11 C           4.2289   -1.2783   18.4610 C.2     1  UNL1        0.4052
     12 O           4.3335   -1.3455   16.9662 O.2     1  UNL1       -0.2262
     13 C           2.1780    0.3022   18.2464 C.3     1  UNL1        0.1182
     14 C           1.1002    1.1260   18.8864 C.3     1  UNL1        0.1152
     15 O           5.2020   -2.0349   19.3158 O.3     1  UNL1       -0.4252
     16 C           5.3848   -3.5104   19.1177 C.3     1  UNL1        0.3125
     17 C           4.2506   -4.4511   19.3983 C.3     1  UNL1        0.4382
     18 F           3.1164   -5.3917   19.6789 F       1  UNL1       -0.1663
     19 F           3.8817   -3.6453   20.6085 F       1  UNL1       -0.1663
     20 F           4.6195   -5.2569   18.1881 F       1  UNL1       -0.1663
     21 O          -3.3156    4.4886   22.9415 O.3     1  UNL1       -0.4675
     22 C          -4.2107    3.8774   23.9785 C.3     1  UNL1        0.2329
     23 C          -5.9591    5.1073   25.4552 C.ar    1  UNL1        0.0871
     24 C          -6.2998    5.8747   26.6982 C.ar    1  UNL1        0.1089
     25 N          -5.2328    6.1794   27.7075 N.ar    1  UNL1       -0.2416
     26 C          -3.8252    5.7169   27.4739 C.ar    1  UNL1        0.0987
     27 C          -3.4845    4.9496   26.2309 C.ar    1  UNL1        0.0207
     28 C          -4.5515    4.6448   25.2215 C.ar    1  UNL1        0.0339
     29 N          -8.0929    4.4978   23.4365 N.1     1  UNL1       -0.1908
     30 C          -7.0260    4.8026   24.4458 C.1     1  UNL1        0.1018
@<TRIPOS>BOND
     1    29    30    3
     2    30    23    1
     3    23    24   ar
     4    24    25   ar
     5    25    26   ar
     6    26    27   ar
     7    27    28   ar
     8    28    22    1
     9    22    21    1
    10    21     1    1
    11     1     2   ar
    12     2     3   ar
    13     3     4   ar
    14     4     7    1
    15     7     8    1
    16     8     9    1
    17     9    10    1
    18    10    11   am
    19    11    12    2
    20    11    15    1
    21    15    16    1
    22    16    17    1
    23    17    18    1
    24    17    19    1
    25    17    20    1
    26    10    13    1
    27    13    14    1
    28     4     5   ar
    29     5     6   ar
    30    28    23   ar
    31     6     1   ar
    32    14     7    1
@<TRIPOS>MOLECULE
*****
 30 32 0 0 0
SMALL
GASTEIGER

@<TRIPOS>ATOM
      1 C           1.1762    1.2076   18.8070 C.ar    1  UNL1        0.1773
      2 C           0.6038    0.6075   20.0569 C.ar    1  UNL1        0.1402
      3 N          -0.5377    1.2822   20.7581 N.ar    1  UNL1       -0.2089
      4 C          -1.1068    2.5569   20.2093 C.ar    1  UNL1        0.2205
      5 N          -0.5344    3.1569   18.9594 N.ar    1  UNL1       -0.2089
      6 C           0.6071    2.4823   18.2582 C.ar    1  UNL1        0.1402
      7 N          -2.2484    3.2316   20.9105 N.pl3   1  UNL1       -0.2747
      8 C          -2.0363    3.8591   22.2564 C.3     1  UNL1        0.1152
      9 C          -3.1778    4.5338   22.9575 C.3     1  UNL1        0.1182
     10 N          -4.5314    4.5810   22.3129 N.am    1  UNL1       -0.2425
     11 C          -5.6730    5.2558   23.0141 C.2     1  UNL1        0.4052
     12 O          -7.0265    5.3029   22.3695 O.2     1  UNL1       -0.2262
     13 C          -4.7435    3.9535   20.9671 C.3     1  UNL1        0.1182
     14 C          -3.6020    3.2788   20.2659 C.3     1  UNL1        0.1152
     15 O          -5.4609    5.8833   24.3599 O.3     1  UNL1       -0.4252
     16 C          -5.8257    5.1299   25.6046 C.3     1  UNL1        0.3125
     17 C          -4.7900    4.3105   26.3160 C.3     1  UNL1        0.4382
     18 F          -3.7544    3.4911   27.0273 F       1  UNL1       -0.1663
     19 F          -4.5081    5.4632   27.2334 F       1  UNL1       -0.1663
     20 F          -5.0719    3.1577   25.3985 F       1  UNL1       -0.1663
     21 O           2.3178    0.5328   18.1058 O.3     1  UNL1       -0.4675
     22 C           3.5374    0.1259   18.8784 C.3     1  UNL1        0.2329
     23 C           5.2400   -1.7025   18.1655 C.ar    1  UNL1        0.0871
     24 C           5.6839   -3.1352   18.1662 C.ar    1  UNL1        0.1089
     25 N           4.8692   -4.1725   18.8806 N.ar    1  UNL1       -0.2416
     26 C           3.6106   -3.7769   19.5942 C.ar    1  UNL1        0.0987
     27 C           3.1666   -2.3442   19.5935 C.ar    1  UNL1        0.0207
     28 C           3.9814   -1.3069   18.8791 C.ar    1  UNL1        0.0339
     29 N           6.8694    0.3720   16.7367 N.1     1  UNL1       -0.1908
     30 C           6.0547   -0.6652   17.4511 C.1     1  UNL1        0.1018
@<TRIPOS>BOND
     1    29    30    3
     2    30    23    1
     3    23    24   ar
     4    24    25   ar
     5    25    26   ar
     6    26    27   ar
     7    27    28   ar
     8    28    22    1
     9    22    21    1
    10    21     1    1
    11     1     2   ar
    12     2     3   ar
    13     3     4   ar
    14     4     7    1
    15     7     8    1
    16     8     9    1
    17     9    10    1
    18    10    11   am
    19    11    12    2
    20    11    15    1
    21    15    16    1
    22    16    17    1
    23    17    18    1
    24    17    19    1
    25    17    20    1
    26    10    13    1
    27    13    14    1
    28     4     5   ar
    29     5     6   ar
    30    28    23   ar
    31     6     1   ar
    32    14     7    1
@<TRIPOS>MOLECULE
*****
 30 32 0 0 0
SMALL
GASTEIGER

@<TRIPOS>ATOM
      1 C           6.6016   -3.6246   30.1291 C.ar    1  UNL1        0.1773
      2 C           6.5512   -3.9712   31.5877 C.ar    1  UNL1        0.1402
      3 N           5.9492   -3.0078   32.5671 N.ar    1  UNL1       -0.2089
      4 C           5.3978   -1.6977   32.0881 C.ar    1  UNL1        0.2205
      5 N           5.4482   -1.3511   30.6296 N.ar    1  UNL1       -0.2089
      6 C           6.0501   -2.3145   29.6501 C.ar    1  UNL1        0.1402
      7 N           4.7958   -0.7342   33.0676 N.pl3   1  UNL1       -0.2747
      8 C           5.2152   -0.7682   34.5074 C.3     1  UNL1        0.1152
      9 C           4.6133    0.1952   35.4868 C.3     1  UNL1        0.1182
     10 N           3.5920    1.1927   35.0265 N.am    1  UNL1       -0.2425
     11 C           2.9900    2.1562   36.0060 C.2     1  UNL1        0.4052
     12 O           1.9687    3.1537   35.5457 O.2     1  UNL1       -0.2262
     13 C           3.1726    1.2267   33.5868 C.3     1  UNL1        0.1182
     14 C           3.7745    0.2633   32.6073 C.3     1  UNL1        0.1152
     15 O           3.4094    2.1222   37.4458 O.3     1  UNL1       -0.4252
     16 C           2.3768    2.2120   38.5301 C.3     1  UNL1        0.3125
     17 C           1.8104    0.9603   39.1320 C.3     1  UNL1        0.4382
     18 F           1.2440   -0.2915   39.7338 F       1  UNL1       -0.1663
     19 F           0.4245    1.5128   38.9769 F       1  UNL1       -0.1663
     20 F           3.1963    0.4077   39.2870 F       1  UNL1       -0.1663
     21 O           7.2036   -4.5881   29.1496 O.3     1  UNL1       -0.4675
     22 C           6.3267   -5.3010   28.1634 C.3     1  UNL1        0.2329
     23 C           6.9980   -4.7942   25.7052 C.ar    1  UNL1        0.0871
     24 C           7.5624   -5.2502   24.3924 C.ar    1  UNL1        0.1089
     25 N           8.0196   -6.6690   24.2248 N.ar    1  UNL1       -0.2416
     26 C           7.9126   -7.6317   25.3701 C.ar    1  UNL1        0.0987
     27 C           7.3483   -7.1757   26.6829 C.ar    1  UNL1        0.0207
     28 C           6.8910   -5.7570   26.8505 C.ar    1  UNL1        0.0339
     29 N           6.0835   -1.9568   26.0404 N.1     1  UNL1       -0.1908
     30 C           6.5408   -3.3755   25.8728 C.1     1  UNL1        0.1018
@<TRIPOS>BOND
     1    29    30    3
     2    30    23    1
     3    23    24   ar
     4    24    25   ar
     5    25    26   ar
     6    26    27   ar
     7    27    28   ar
     8    28    22    1
     9    22    21    1
    10    21     1    1
    11     1     2   ar
    12     2     3   ar
    13     3     4   ar
    14     4     7    1
    15     7     8    1
    16     8     9    1
    17     9    10    1
    18    10    11   am
    19    11    12    2
    20    11    15    1
    21    15    16    1
    22    16    17    1
    23    17    18    1
    24    17    19    1
    25    17    20    1
    26    10    13    1
    27    13    14    1
    28     4     5   ar
    29     5     6   ar
    30    28    23   ar
    31     6     1   ar
    32    14     7    1
@<TRIPOS>MOLECULE
*****
 30 32 0 0 0
SMALL
GASTEIGER

@<TRIPOS>ATOM
      1 C          -4.7742  -20.3720   20.4761 C.ar    1  UNL1        0.1773
      2 C          -5.2855  -19.2138   19.6716 C.ar    1  UNL1        0.1402
      3 N          -6.5861  -18.5624   20.0376 N.ar    1  UNL1       -0.2089
      4 C          -7.3755  -19.0692   21.2080 C.ar    1  UNL1        0.2205
      5 N          -6.8642  -20.2274   22.0125 N.ar    1  UNL1       -0.2089
      6 C          -5.5636  -20.8788   21.6466 C.ar    1  UNL1        0.1402
      7 N          -8.6762  -18.4178   21.5740 N.pl3   1  UNL1       -0.2747
      8 C          -9.9302  -19.2374   21.6502 C.3     1  UNL1        0.1152
      9 C         -11.2308  -18.5861   22.0162 C.3     1  UNL1        0.1182
     10 N         -11.2775  -17.1151   22.3060 N.am    1  UNL1       -0.2425
     11 C         -12.5782  -16.4637   22.6720 C.2     1  UNL1        0.4052
     12 O         -12.6249  -14.9927   22.9619 O.2     1  UNL1       -0.2262
     13 C         -10.0236  -16.2955   22.2299 C.3     1  UNL1        0.1182
     14 C          -8.7229  -16.9468   21.8639 C.3     1  UNL1        0.1152
     15 O         -13.8322  -17.2833   22.7482 O.3     1  UNL1       -0.4252
     16 C         -13.8453  -18.5632   23.5302 C.3     1  UNL1        0.3125
     17 C         -14.1361  -18.5403   25.0015 C.3     1  UNL1        0.4382
     18 F         -14.4270  -18.5173   26.4729 F       1  UNL1       -0.1663
     19 F         -15.6075  -18.5704   24.7111 F       1  UNL1       -0.1663
     20 F         -12.6648  -18.5101   25.2919 F       1  UNL1       -0.1663
     21 O          -3.4735  -21.0234   20.1101 O.3     1  UNL1       -0.4675
     22 C          -2.1889  -20.2609   20.2446 C.3     1  UNL1        0.2329
     23 C          -1.8892  -17.6827   20.1295 C.ar    1  UNL1        0.0871
     24 C          -1.8787  -16.3446   20.8074 C.ar    1  UNL1        0.1089
     25 N          -2.1573  -16.2466   22.2780 N.ar    1  UNL1       -0.2416
     26 C          -2.4464  -17.4867   23.0708 C.ar    1  UNL1        0.0987
     27 C          -2.4569  -18.8248   22.3930 C.ar    1  UNL1        0.0207
     28 C          -2.1783  -18.9227   20.9224 C.ar    1  UNL1        0.0339
     29 N          -1.3320  -17.8786   17.1883 N.1     1  UNL1       -0.1908
     30 C          -1.6106  -17.7806   18.6589 C.1     1  UNL1        0.1018
@<TRIPOS>BOND
     1    29    30    3
     2    30    23    1
     3    23    24   ar
     4    24    25   ar
     5    25    26   ar
     6    26    27   ar
     7    27    28   ar
     8    28    22    1
     9    22    21    1
    10    21     1    1
    11     1     2   ar
    12     2     3   ar
    13     3     4   ar
    14     4     7    1
    15     7     8    1
    16     8     9    1
    17     9    10    1
    18    10    11   am
    19    11    12    2
    20    11    15    1
    21    15    16    1
    22    16    17    1
    23    17    18    1
    24    17    19    1
    25    17    20    1
    26    10    13    1
    27    13    14    1
    28     4     5   ar
    29     5     6   ar
    30    28    23   ar
    31     6     1   ar
    32    14     7    1
@<TRIPOS>MOLECULE
*****
 30 32 0 0 0
SMALL
GASTEIGER

@<TRIPOS>ATOM
      1 C           0.4581    1.2197   28.1923 C.ar    1  UNL1        0.1773
      2 C           0.6540    2.4914   28.9632 C.ar    1  UNL1        0.1402
      3 N           1.3029    2.4565   30.3151 N.ar    1  UNL1       -0.2089
      4 C           1.7560    1.1499   30.8960 C.ar    1  UNL1        0.2205
      5 N           1.5601   -0.1218   30.1251 N.ar    1  UNL1       -0.2089
      6 C           0.9111   -0.0869   28.7732 C.ar    1  UNL1        0.1402
      7 N           2.4050    1.1150   32.2480 N.pl3   1  UNL1       -0.2747
      8 C           1.9934    2.0986   33.3031 C.3     1  UNL1        0.1152
      9 C           2.6423    2.0637   34.6550 C.3     1  UNL1        0.1182
     10 N           3.7028    1.0453   34.9518 N.am    1  UNL1       -0.2425
     11 C           4.3518    1.0104   36.3037 C.2     1  UNL1        0.4052
     12 O           5.4122   -0.0080   36.6005 O.2     1  UNL1       -0.2262
     13 C           4.1144    0.0617   33.8967 C.3     1  UNL1        0.1182
     14 C           3.4655    0.0966   32.5448 C.3     1  UNL1        0.1152
     15 O           3.9402    1.9939   37.3588 O.3     1  UNL1       -0.4252
     16 C           3.2939    1.5108   38.6233 C.3     1  UNL1        0.3125
     17 C           1.8321    1.7518   38.8579 C.3     1  UNL1        0.4382
     18 F           0.3703    1.9927   39.0926 F       1  UNL1       -0.1663
     19 F           2.0759    3.2318   38.8571 F       1  UNL1       -0.1663
     20 F           1.5883    0.2717   38.8588 F       1  UNL1       -0.1663
     21 O          -0.1909    1.2546   26.8403 O.3     1  UNL1       -0.4675
     22 C          -0.2661    2.5439   26.0776 C.3     1  UNL1        0.2329
     23 C          -1.9093    3.4483   24.2798 C.ar    1  UNL1        0.0871
     24 C          -3.2441    4.0260   23.9132 C.ar    1  UNL1        0.1089
     25 N          -4.2706    4.2772   24.9777 N.ar    1  UNL1       -0.2416
     26 C          -3.9622    3.9506   26.4089 C.ar    1  UNL1        0.0987
     27 C          -2.6274    3.3729   26.7755 C.ar    1  UNL1        0.0207
     28 C          -1.6009    3.1217   25.7109 C.ar    1  UNL1        0.0339
     29 N           0.1436    2.9459   22.1507 N.1     1  UNL1       -0.1908
     30 C          -0.8828    3.1971   23.2152 C.1     1  UNL1        0.1018
@<TRIPOS>BOND
     1    29    30    3
     2    30    23    1
     3    23    24   ar
     4    24    25   ar
     5    25    26   ar
     6    26    27   ar
     7    27    28   ar
     8    28    22    1
     9    22    21    1
    10    21     1    1
    11     1     2   ar
    12     2     3   ar
    13     3     4   ar
    14     4     7    1
    15     7     8    1
    16     8     9    1
    17     9    10    1
    18    10    11   am
    19    11    12    2
    20    11    15    1
    21    15    16    1
    22    16    17    1
    23    17    18    1
    24    17    19    1
    25    17    20    1
    26    10    13    1
    27    13    14    1
    28     4     5   ar
    29     5     6   ar
    30    28    23   ar
    31     6     1   ar
    32    14     7    1
@<TRIPOS>MOLECULE
*****
 30 32 0 0 0
SMALL
GASTEIGER

@<TRIPOS>ATOM
      1 C           5.1017   -0.3121   34.4001 C.ar    1  UNL1        0.1773
      2 C           6.3792   -0.0530   33.6578 C.ar    1  UNL1        0.1402
      3 N           6.8742   -1.0452   32.6477 N.ar    1  UNL1       -0.2089
      4 C           6.0917   -2.2966   32.3799 C.ar    1  UNL1        0.2205
      5 N           4.8143   -2.5557   33.1222 N.ar    1  UNL1       -0.2089
      6 C           4.3193   -1.5635   34.1323 C.ar    1  UNL1        0.1402
      7 N           6.5867   -3.2890   31.3698 N.pl3   1  UNL1       -0.2747
      8 C           6.7082   -2.8942   29.9278 C.3     1  UNL1        0.1152
      9 C           7.2031   -3.8864   28.9176 C.3     1  UNL1        0.1182
     10 N           7.5767   -5.2735   29.3495 N.am    1  UNL1       -0.2425
     11 C           8.0717   -6.2658   28.3394 C.2     1  UNL1        0.4052
     12 O           8.4452   -7.6528   28.7713 O.2     1  UNL1       -0.2262
     13 C           7.4553   -5.6682   30.7916 C.3     1  UNL1        0.1182
     14 C           6.9603   -4.6760   31.8017 C.3     1  UNL1        0.1152
     15 O           8.1931   -5.8710   26.8974 O.3     1  UNL1       -0.4252
     16 C           7.3973   -6.5949   25.8521 C.3     1  UNL1        0.3125
     17 C           8.0839   -7.1584   24.6434 C.3     1  UNL1        0.4382
     18 F           8.7706   -7.7220   23.4347 F       1  UNL1       -0.1663
     19 F           7.5741   -6.0131   23.8197 F       1  UNL1       -0.1663
     20 F           8.5938   -8.3037   25.4670 F       1  UNL1       -0.1663
     21 O           4.6067    0.6802   35.4103 O.3     1  UNL1       -0.4675
     22 C           4.5183    0.2965   36.8576 C.3     1  UNL1        0.2329
     23 C           4.3731    2.4714   38.2715 C.ar    1  UNL1        0.0871
     24 C           3.6285    3.3468   39.2354 C.ar    1  UNL1        0.1089
     25 N           2.2845    2.9229   39.7493 N.ar    1  UNL1       -0.2416
     26 C           1.6851    1.6237   39.2993 C.ar    1  UNL1        0.0987
     27 C           2.4297    0.7482   38.3354 C.ar    1  UNL1        0.0207
     28 C           3.7737    1.1721   37.8216 C.ar    1  UNL1        0.0339
     29 N           7.0610    3.3191   37.2438 N.1     1  UNL1       -0.1908
     30 C           5.7171    2.8952   37.7577 C.1     1  UNL1        0.1018
@<TRIPOS>BOND
     1    29    30    3
     2    30    23    1
     3    23    24   ar
     4    24    25   ar
     5    25    26   ar
     6    26    27   ar
     7    27    28   ar
     8    28    22    1
     9    22    21    1
    10    21     1    1
    11     1     2   ar
    12     2     3   ar
    13     3     4   ar
    14     4     7    1
    15     7     8    1
    16     8     9    1
    17     9    10    1
    18    10    11   am
    19    11    12    2
    20    11    15    1
    21    15    16    1
    22    16    17    1
    23    17    18    1
    24    17    19    1
    25    17    20    1
    26    10    13    1
    27    13    14    1
    28     4     5   ar
    29     5     6   ar
    30    28    23   ar
    31     6     1   ar
    32    14     7    1
