@<TRIPOS>MOLECULE
*****
 39 42 0 0 0
SMALL
GASTEIGER

@<TRIPOS>ATOM
      1 C          -5.4267  -15.3538   25.6608 C.3     1  UNL1        0.0214
      2 C          -5.3140  -15.7721   24.2247 C.3     1  UNL1        0.0758
      3 N          -6.2074  -15.1530   23.1909 N.am    1  UNL1       -0.2902
      4 C          -7.5611  -15.7400   22.9209 C.2     1  UNL1        0.3044
      5 O          -8.0214  -16.9461   23.6847 O.2     1  UNL1       -0.2525
      6 N          -8.4544  -15.1210   21.8871 N.am    1  UNL1       -0.2683
      7 H          -5.9052  -14.3614   22.6896 H       1  UNL1        0.1509
      8 H          -8.1522  -14.3294   21.3858 H       1  UNL1        0.1564
      9 C          -9.8081  -15.7080   21.6172 C.ar    1  UNL1        0.0517
     10 C         -10.4208  -15.5843   20.2536 C.ar    1  UNL1        0.0147
     11 C         -11.7745  -16.1713   19.9836 C.ar    1  UNL1        0.0014
     12 C         -12.5155  -16.8820   21.0771 C.ar    1  UNL1        0.0032
     13 C         -11.9028  -17.0057   22.4407 C.ar    1  UNL1        0.0386
     14 C         -10.5490  -16.4187   22.7107 C.ar    1  UNL1        0.0178
     15 C         -12.6438  -17.7164   23.5342 C.ar    1  UNL1        0.1839
     16 N         -14.1205  -17.6464   23.7885 N.ar    1  UNL1       -0.1081
     17 N         -14.4275  -18.5087   24.9770 N.ar    1  UNL1       -0.0227
     18 N         -13.1406  -19.1115   25.4571 N.ar    1  UNL1       -0.0429
     19 N         -12.0382  -18.6219   24.5655 N.ar    1  UNL1       -0.2113
     20 C         -10.5854  -18.9757   24.6842 C.3     1  UNL1        0.1573
     21 C          -4.3080  -16.8094   23.8224 C.3     1  UNL1        0.0519
     22 C          -3.5768  -16.6794   22.5192 C.3     1  UNL1        0.1136
     23 N          -2.8593  -15.4050   22.1857 N.3     1  UNL1       -0.3096
     24 H          -2.4209  -15.4916   21.2688 H       1  UNL1        0.1200
     25 H          -2.1432  -15.2238   22.8891 H       1  UNL1        0.1200
     26 N          -3.5630  -17.8237   21.5494 N.3     1  UNL1       -0.2616
     27 C          -2.4152  -17.9864   20.5976 C.3     1  UNL1        0.0732
     28 C          -2.4015  -19.1307   19.6278 C.3     1  UNL1        0.0174
     29 C          -3.5356  -20.1122   19.6100 C.3     1  UNL1        0.0031
     30 C          -4.6834  -19.9496   20.5618 C.3     1  UNL1        0.0204
     31 C          -4.6971  -18.8053   21.5315 C.3     1  UNL1        0.0735
     32 C          -5.8175  -20.9311   20.5439 C.3     1  UNL1        0.0277
     33 C          -7.1954  -20.4783   20.1615 C.ar    1  UNL1       -0.0220
     34 C          -8.0045  -19.6504   21.1155 C.ar    1  UNL1       -0.0020
     35 C          -9.3824  -19.1976   20.7332 C.ar    1  UNL1        0.0293
     36 C          -9.9513  -19.5725   19.3968 C.ar    1  UNL1        0.1401
     37 F         -11.3293  -19.1196   19.0145 F       1  UNL1       -0.2042
     38 C          -9.1422  -20.4003   18.4428 C.ar    1  UNL1        0.0293
     39 C          -7.7642  -20.8532   18.8252 C.ar    1  UNL1       -0.0020
@<TRIPOS>BOND
     1     2     1    1
     2     2    21    1
     3    21    22    1
     4    22    23    1
     5    22    26    1
     6    26    27    1
     7    27    28    1
     8    28    29    1
     9    29    30    1
    10    30    32    1
    11    32    33    1
    12    33    34   ar
    13    34    35   ar
    14    35    36   ar
    15    36    37    1
    16    36    38   ar
    17    38    39   ar
    18    30    31    1
    19     2     3    1
    20     3     4   am
    21     4     5    2
    22     4     6   am
    23     6     9    1
    24     9    10   ar
    25    10    11   ar
    26    11    12   ar
    27    12    13   ar
    28    13    15    1
    29    15    16   ar
    30    16    17   ar
    31    17    18   ar
    32    18    19   ar
    33    19    20    1
    34    13    14   ar
    35    31    26    1
    36    14     9   ar
    37    39    33   ar
    38    19    15   ar
    39    23    24    1
    40    23    25    1
    41     3     7    1
    42     6     8    1
@<TRIPOS>MOLECULE
*****
 39 42 0 0 0
SMALL
GASTEIGER

@<TRIPOS>ATOM
      1 C          -6.7761  -14.6014   27.5748 C.3     1  UNL1        0.0214
      2 C          -6.5159  -15.6910   26.5773 C.3     1  UNL1        0.0758
      3 N          -7.4674  -16.8448   26.4615 N.am    1  UNL1       -0.2902
      4 C          -8.6372  -16.7612   25.5264 C.2     1  UNL1        0.3044
      5 O          -8.8555  -15.5239   24.7071 O.2     1  UNL1       -0.2525
      6 N          -9.5888  -17.9150   25.4106 N.am    1  UNL1       -0.2683
      7 H          -7.3241  -17.6569   26.9993 H       1  UNL1        0.1509
      8 H          -9.4455  -18.7271   25.9484 H       1  UNL1        0.1564
      9 C         -10.7586  -17.8314   24.4755 C.ar    1  UNL1        0.0517
     10 C         -12.0556  -18.4932   24.8359 C.ar    1  UNL1        0.0147
     11 C         -13.2255  -18.4096   23.9007 C.ar    1  UNL1        0.0014
     12 C         -13.0983  -17.6642   22.6053 C.ar    1  UNL1        0.0032
     13 C         -11.8014  -17.0025   22.2449 C.ar    1  UNL1        0.0386
     14 C         -10.6315  -17.0860   23.1800 C.ar    1  UNL1        0.0178
     15 C         -11.6743  -16.2571   20.9494 C.ar    1  UNL1        0.1839
     16 N         -12.7479  -16.0998   19.9137 N.ar    1  UNL1       -0.1081
     17 N         -12.1883  -15.2836   18.7864 N.ar    1  UNL1       -0.0227
     18 N         -10.7689  -14.9365   19.1253 N.ar    1  UNL1       -0.0429
     19 N         -10.4513  -15.5382   20.4622 N.ar    1  UNL1       -0.2113
     20 C          -9.1406  -15.4384   21.1849 C.3     1  UNL1        0.1573
     21 C          -5.3040  -15.6269   25.6956 C.3     1  UNL1        0.0519
     22 C          -5.4526  -15.7390   24.2072 C.3     1  UNL1        0.1136
     23 N          -6.3413  -14.7830   23.4681 N.3     1  UNL1       -0.3096
     24 H          -6.3238  -15.0032   22.4723 H       1  UNL1        0.1200
     25 H          -6.0085  -13.8295   23.6114 H       1  UNL1        0.1200
     26 N          -4.7126  -16.8072   23.4579 N.3     1  UNL1       -0.2616
     27 C          -3.2143  -16.7770   23.3932 C.3     1  UNL1        0.0732
     28 C          -2.4743  -17.8451   22.6439 C.3     1  UNL1        0.0174
     29 C          -3.2326  -18.9435   21.9594 C.3     1  UNL1        0.0031
     30 C          -4.7309  -18.9737   22.0241 C.3     1  UNL1        0.0204
     31 C          -5.4709  -17.9056   22.7734 C.3     1  UNL1        0.0735
     32 C          -5.4892  -20.0721   21.3396 C.3     1  UNL1        0.0277
     33 C          -6.9586  -19.9198   21.0795 C.ar    1  UNL1       -0.0220
     34 C          -7.4517  -19.6717   19.6847 C.ar    1  UNL1       -0.0020
     35 C          -8.9211  -19.5194   19.4247 C.ar    1  UNL1        0.0293
     36 C          -9.8974  -19.6153   20.5594 C.ar    1  UNL1        0.1401
     37 F         -11.3669  -19.4630   20.2993 F       1  UNL1       -0.2042
     38 C          -9.4044  -19.8634   21.9541 C.ar    1  UNL1        0.0293
     39 C          -7.9350  -20.0157   22.2142 C.ar    1  UNL1       -0.0020
@<TRIPOS>BOND
     1     2     1    1
     2     2    21    1
     3    21    22    1
     4    22    23    1
     5    22    26    1
     6    26    27    1
     7    27    28    1
     8    28    29    1
     9    29    30    1
    10    30    32    1
    11    32    33    1
    12    33    34   ar
    13    34    35   ar
    14    35    36   ar
    15    36    37    1
    16    36    38   ar
    17    38    39   ar
    18    30    31    1
    19     2     3    1
    20     3     4   am
    21     4     5    2
    22     4     6   am
    23     6     9    1
    24     9    10   ar
    25    10    11   ar
    26    11    12   ar
    27    12    13   ar
    28    13    15    1
    29    15    16   ar
    30    16    17   ar
    31    17    18   ar
    32    18    19   ar
    33    19    20    1
    34    13    14   ar
    35    31    26    1
    36    14     9   ar
    37    39    33   ar
    38    19    15   ar
    39    23    24    1
    40    23    25    1
    41     3     7    1
    42     6     8    1
@<TRIPOS>MOLECULE
*****
 39 42 0 0 0
SMALL
GASTEIGER

@<TRIPOS>ATOM
      1 C         -10.0978  -20.9697   24.7943 C.3     1  UNL1        0.0214
      2 C         -10.6468  -19.8595   23.9481 C.3     1  UNL1        0.0758
      3 N         -10.1126  -19.6368   22.5642 N.am    1  UNL1       -0.2902
      4 C          -8.6587  -19.8664   22.2755 C.2     1  UNL1        0.3044
      5 O          -7.7390  -20.3187   23.3707 O.2     1  UNL1       -0.2525
      6 N          -8.1245  -19.6437   20.8917 N.am    1  UNL1       -0.2683
      7 H         -10.7163  -19.3400   21.8454 H       1  UNL1        0.1509
      8 H          -8.7282  -19.3469   20.1729 H       1  UNL1        0.1564
      9 C          -6.6706  -19.8733   20.6030 C.ar    1  UNL1        0.0517
     10 C          -6.2211  -21.1727   20.0035 C.ar    1  UNL1        0.0147
     11 C          -4.7671  -21.4023   19.7148 C.ar    1  UNL1        0.0014
     12 C          -3.7627  -20.3325   20.0256 C.ar    1  UNL1        0.0032
     13 C          -4.2122  -19.0331   20.6252 C.ar    1  UNL1        0.0386
     14 C          -5.6662  -18.8035   20.9139 C.ar    1  UNL1        0.0178
     15 C          -3.2078  -17.9633   20.9360 C.ar    1  UNL1        0.1839
     16 N          -3.1373  -17.1609   22.2015 N.ar    1  UNL1       -0.1081
     17 N          -1.9834  -16.2097   22.0835 N.ar    1  UNL1       -0.0227
     18 N          -1.3408  -16.4243   20.7452 N.ar    1  UNL1       -0.0429
     19 N          -2.0975  -17.5080   20.0361 N.ar    1  UNL1       -0.2113
     20 C          -1.7966  -18.0426   18.6672 C.3     1  UNL1        0.1573
     21 C         -11.7301  -18.9720   24.4857 C.3     1  UNL1        0.0519
     22 C         -12.4791  -18.0586   23.5613 C.3     1  UNL1        0.1136
     23 N         -13.9744  -17.9717   23.6418 N.3     1  UNL1       -0.3096
     24 H         -14.3143  -17.3079   22.9459 H       1  UNL1        0.1200
     25 H         -14.2470  -17.6574   24.5731 H       1  UNL1        0.1200
     26 N         -11.7328  -17.2321   22.5562 N.3     1  UNL1       -0.2616
     27 C         -12.3578  -16.9208   21.2287 C.3     1  UNL1        0.0732
     28 C         -11.6115  -16.0943   20.2238 C.3     1  UNL1        0.0174
     29 C         -10.2402  -15.5792   20.5463 C.3     1  UNL1        0.0031
     30 C          -9.6152  -15.8904   21.8739 C.3     1  UNL1        0.0204
     31 C         -10.3615  -16.7169   22.8788 C.3     1  UNL1        0.0735
     32 C          -8.2439  -15.3752   22.1965 C.3     1  UNL1        0.0277
     33 C          -7.7436  -15.4085   23.6101 C.ar    1  UNL1       -0.0220
     34 C          -6.2688  -15.3989   23.8843 C.ar    1  UNL1       -0.0020
     35 C          -5.7685  -15.4321   25.2979 C.ar    1  UNL1        0.0293
     36 C          -6.7429  -15.4749   26.4376 C.ar    1  UNL1        0.1401
     37 F          -6.2425  -15.5081   27.8513 F       1  UNL1       -0.2042
     38 C          -8.2176  -15.4845   26.1635 C.ar    1  UNL1        0.0293
     39 C          -8.7179  -15.4512   24.7498 C.ar    1  UNL1       -0.0020
@<TRIPOS>BOND
     1     2     1    1
     2     2    21    1
     3    21    22    1
     4    22    23    1
     5    22    26    1
     6    26    27    1
     7    27    28    1
     8    28    29    1
     9    29    30    1
    10    30    32    1
    11    32    33    1
    12    33    34   ar
    13    34    35   ar
    14    35    36   ar
    15    36    37    1
    16    36    38   ar
    17    38    39   ar
    18    30    31    1
    19     2     3    1
    20     3     4   am
    21     4     5    2
    22     4     6   am
    23     6     9    1
    24     9    10   ar
    25    10    11   ar
    26    11    12   ar
    27    12    13   ar
    28    13    15    1
    29    15    16   ar
    30    16    17   ar
    31    17    18   ar
    32    18    19   ar
    33    19    20    1
    34    13    14   ar
    35    31    26    1
    36    14     9   ar
    37    39    33   ar
    38    19    15   ar
    39    23    24    1
    40    23    25    1
    41     3     7    1
    42     6     8    1
@<TRIPOS>MOLECULE
*****
 39 42 0 0 0
SMALL
GASTEIGER

@<TRIPOS>ATOM
      1 C          -9.5904   -7.9919   18.9232 C.3     1  UNL1        0.0214
      2 C          -9.9881   -6.7802   18.1335 C.3     1  UNL1        0.0758
      3 N         -10.9226   -6.9178   16.9683 N.am    1  UNL1       -0.2902
      4 C         -12.3940   -6.6955   17.1567 C.2     1  UNL1        0.3044
      5 O         -12.9309   -6.3356   18.5102 O.2     1  UNL1       -0.2525
      6 N         -13.3285   -6.8331   15.9915 N.am    1  UNL1       -0.2683
      7 H         -10.5702   -7.1540   16.0799 H       1  UNL1        0.1509
      8 H         -12.9761   -7.0693   15.1031 H       1  UNL1        0.1564
      9 C         -14.7999   -6.6108   16.1798 C.ar    1  UNL1        0.0517
     10 C         -15.3803   -5.2394   16.0000 C.ar    1  UNL1        0.0147
     11 C         -16.8517   -5.0171   16.1883 C.ar    1  UNL1        0.0014
     12 C         -17.7428   -6.1662   16.5565 C.ar    1  UNL1        0.0032
     13 C         -17.1624   -7.5376   16.7363 C.ar    1  UNL1        0.0386
     14 C         -15.6910   -7.7599   16.5480 C.ar    1  UNL1        0.0178
     15 C         -18.0535   -8.6867   17.1045 C.ar    1  UNL1        0.1839
     16 N         -19.0216   -9.3794   16.1917 N.ar    1  UNL1       -0.1081
     17 N         -19.6993  -10.4657   16.9733 N.ar    1  UNL1       -0.0227
     18 N         -19.1501  -10.4444   18.3689 N.ar    1  UNL1       -0.0429
     19 N         -18.1329   -9.3449   18.4500 N.ar    1  UNL1       -0.2113
     20 C         -17.3353   -8.9696   19.6637 C.3     1  UNL1        0.1573
     21 C          -9.4512   -5.4308   18.5091 C.3     1  UNL1        0.0519
     22 C          -9.6592   -4.2599   17.5950 C.3     1  UNL1        0.1136
     23 N          -8.8579   -4.1424   16.3324 N.3     1  UNL1       -0.3096
     24 H          -9.1269   -3.2924   15.8368 H       1  UNL1        0.1200
     25 H          -9.0369   -4.9528   15.7394 H       1  UNL1        0.1200
     26 N         -10.6686   -3.2064   17.9434 N.3     1  UNL1       -0.2616
     27 C         -10.6713   -1.8983   17.2093 C.3     1  UNL1        0.0732
     28 C         -11.6807   -0.8449   17.5578 C.3     1  UNL1        0.0174
     29 C         -12.6874   -1.0996   18.6402 C.3     1  UNL1        0.0031
     30 C         -12.6847   -2.4076   19.3743 C.3     1  UNL1        0.0204
     31 C         -11.6753   -3.4610   19.0258 C.3     1  UNL1        0.0735
     32 C         -13.6914   -2.6623   20.4567 C.3     1  UNL1        0.0277
     33 C         -15.1022   -3.0247   20.0987 C.ar    1  UNL1       -0.0220
     34 C         -15.5394   -4.4593   20.1317 C.ar    1  UNL1       -0.0020
     35 C         -16.9502   -4.8217   19.7737 C.ar    1  UNL1        0.0293
     36 C         -17.9238   -3.7497   19.3827 C.ar    1  UNL1        0.1401
     37 F         -19.3347   -4.1122   19.0247 F       1  UNL1       -0.2042
     38 C         -17.4867   -2.3152   19.3498 C.ar    1  UNL1        0.0293
     39 C         -16.0758   -1.9527   19.7078 C.ar    1  UNL1       -0.0020
@<TRIPOS>BOND
     1     2     1    1
     2     2    21    1
     3    21    22    1
     4    22    23    1
     5    22    26    1
     6    26    27    1
     7    27    28    1
     8    28    29    1
     9    29    30    1
    10    30    32    1
    11    32    33    1
    12    33    34   ar
    13    34    35   ar
    14    35    36   ar
    15    36    37    1
    16    36    38   ar
    17    38    39   ar
    18    30    31    1
    19     2     3    1
    20     3     4   am
    21     4     5    2
    22     4     6   am
    23     6     9    1
    24     9    10   ar
    25    10    11   ar
    26    11    12   ar
    27    12    13   ar
    28    13    15    1
    29    15    16   ar
    30    16    17   ar
    31    17    18   ar
    32    18    19   ar
    33    19    20    1
    34    13    14   ar
    35    31    26    1
    36    14     9   ar
    37    39    33   ar
    38    19    15   ar
    39    23    24    1
    40    23    25    1
    41     3     7    1
    42     6     8    1
@<TRIPOS>MOLECULE
*****
 39 42 0 0 0
SMALL
GASTEIGER

@<TRIPOS>ATOM
      1 C          -7.1690  -14.9385   27.9936 C.3     1  UNL1        0.0214
      2 C          -7.1160  -15.8533   26.8061 C.3     1  UNL1        0.0758
      3 N          -8.0321  -17.0387   26.7310 N.am    1  UNL1       -0.2902
      4 C          -9.2273  -17.0068   25.8252 C.2     1  UNL1        0.3044
      5 O          -9.5063  -15.7895   24.9945 O.2     1  UNL1       -0.2525
      6 N         -10.1434  -18.1922   25.7501 N.am    1  UNL1       -0.2683
      7 H          -7.8490  -17.8377   27.2763 H       1  UNL1        0.1509
      8 H          -9.9602  -18.9911   26.2954 H       1  UNL1        0.1564
      9 C         -11.3385  -18.1602   24.8443 C.ar    1  UNL1        0.0517
     10 C         -12.6820  -18.5836   25.3600 C.ar    1  UNL1        0.0147
     11 C         -13.8772  -18.5517   24.4542 C.ar    1  UNL1        0.0014
     12 C         -13.7289  -18.0964   23.0327 C.ar    1  UNL1        0.0032
     13 C         -12.3855  -17.6730   22.5170 C.ar    1  UNL1        0.0386
     14 C         -11.1903  -17.7049   23.4228 C.ar    1  UNL1        0.0178
     15 C         -12.2373  -17.2176   21.0955 C.ar    1  UNL1        0.1839
     16 N         -12.7995  -15.9559   20.5106 N.ar    1  UNL1       -0.1081
     17 N         -12.4105  -15.9026   19.0629 N.ar    1  UNL1       -0.0227
     18 N         -11.6078  -17.1313   18.7530 N.ar    1  UNL1       -0.0429
     19 N         -11.5008  -17.9440   20.0092 N.ar    1  UNL1       -0.2113
     20 C         -10.7833  -19.2533   20.1537 C.3     1  UNL1        0.1573
     21 C          -6.1469  -15.5828   25.6935 C.3     1  UNL1        0.0519
     22 C          -6.6364  -15.4891   24.2788 C.3     1  UNL1        0.1136
     23 N          -7.2497  -14.2142   23.7802 N.3     1  UNL1       -0.3096
     24 H          -7.5241  -14.3278   22.8044 H       1  UNL1        0.1200
     25 H          -6.5702  -13.4574   23.8565 H       1  UNL1        0.1200
     26 N          -6.5125  -16.6703   23.3625 N.3     1  UNL1       -0.2616
     27 C          -7.7077  -17.1533   22.5958 C.3     1  UNL1        0.0732
     28 C          -7.5838  -18.3345   21.6795 C.3     1  UNL1        0.0174
     29 C          -6.2645  -19.0325   21.5300 C.3     1  UNL1        0.0031
     30 C          -5.0693  -18.5494   22.2967 C.3     1  UNL1        0.0204
     31 C          -5.1932  -17.3683   23.2130 C.3     1  UNL1        0.0735
     32 C          -3.7500  -19.2475   22.1472 C.3     1  UNL1        0.0277
     33 C          -2.5986  -18.5430   21.4931 C.ar    1  UNL1       -0.0220
     34 C          -2.2956  -17.1162   21.8432 C.ar    1  UNL1       -0.0020
     35 C          -1.1442  -16.4118   21.1890 C.ar    1  UNL1        0.0293
     36 C          -0.2958  -17.1340   20.1847 C.ar    1  UNL1        0.1401
     37 F           0.8556  -16.4295   19.5306 F       1  UNL1       -0.2042
     38 C          -0.5988  -18.5607   19.8346 C.ar    1  UNL1        0.0293
     39 C          -1.7502  -19.2653   20.4888 C.ar    1  UNL1       -0.0020
@<TRIPOS>BOND
     1     2     1    1
     2     2    21    1
     3    21    22    1
     4    22    23    1
     5    22    26    1
     6    26    27    1
     7    27    28    1
     8    28    29    1
     9    29    30    1
    10    30    32    1
    11    32    33    1
    12    33    34   ar
    13    34    35   ar
    14    35    36   ar
    15    36    37    1
    16    36    38   ar
    17    38    39   ar
    18    30    31    1
    19     2     3    1
    20     3     4   am
    21     4     5    2
    22     4     6   am
    23     6     9    1
    24     9    10   ar
    25    10    11   ar
    26    11    12   ar
    27    12    13   ar
    28    13    15    1
    29    15    16   ar
    30    16    17   ar
    31    17    18   ar
    32    18    19   ar
    33    19    20    1
    34    13    14   ar
    35    31    26    1
    36    14     9   ar
    37    39    33   ar
    38    19    15   ar
    39    23    24    1
    40    23    25    1
    41     3     7    1
    42     6     8    1
@<TRIPOS>MOLECULE
*****
 39 42 0 0 0
SMALL
GASTEIGER

@<TRIPOS>ATOM
      1 C           9.1775   -4.9381   31.3619 C.3     1  UNL1        0.0214
      2 C           7.7768   -5.3189   30.9837 C.3     1  UNL1        0.0758
      3 N           6.6390   -5.0083   31.9105 N.am    1  UNL1       -0.2902
      4 C           6.1807   -3.5910   32.0867 C.2     1  UNL1        0.3044
      5 O           6.8602   -2.4843   31.3361 O.2     1  UNL1       -0.2525
      6 N           5.0428   -3.2804   33.0134 N.am    1  UNL1       -0.2683
      7 H           6.1930   -5.7347   32.4031 H       1  UNL1        0.1509
      8 H           4.5969   -4.0068   33.5060 H       1  UNL1        0.1564
      9 C           4.5845   -1.8631   33.1896 C.ar    1  UNL1        0.0517
     10 C           4.9531   -1.1043   34.4300 C.ar    1  UNL1        0.0147
     11 C           4.4948    0.3131   34.6061 C.ar    1  UNL1        0.0014
     12 C           3.6678    0.9717   33.5420 C.ar    1  UNL1        0.0032
     13 C           3.2992    0.2129   32.3017 C.ar    1  UNL1        0.0386
     14 C           3.7575   -1.2045   32.1255 C.ar    1  UNL1        0.0178
     15 C           2.4722    0.8716   31.2376 C.ar    1  UNL1        0.1839
     16 N           1.0608    1.3558   31.3913 N.ar    1  UNL1       -0.1081
     17 N           0.6278    1.9451   30.0815 N.ar    1  UNL1       -0.0227
     18 N           1.7715    1.8250   29.1184 N.ar    1  UNL1       -0.0429
     19 N           2.9114    1.1615   29.8329 N.ar    1  UNL1       -0.2113
     20 C           4.2547    0.8438   29.2458 C.3     1  UNL1        0.1573
     21 C           7.5139   -6.0104   29.6788 C.3     1  UNL1        0.0519
     22 C           7.1122   -5.2116   28.4744 C.3     1  UNL1        0.1136
     23 N           6.4030   -3.9010   28.6460 N.3     1  UNL1       -0.3096
     24 H           6.2074   -3.4978   27.7297 H       1  UNL1        0.1200
     25 H           6.9930   -3.2625   29.1795 H       1  UNL1        0.1200
     26 N           7.4196   -5.7235   27.0983 N.3     1  UNL1       -0.2616
     27 C           7.5604   -7.1978   26.8606 C.3     1  UNL1        0.0732
     28 C           7.8677   -7.7096   25.4845 C.3     1  UNL1        0.0174
     29 C           8.0343   -6.7471   24.3462 C.3     1  UNL1        0.0031
     30 C           7.8935   -5.2728   24.5839 C.3     1  UNL1        0.0204
     31 C           7.5862   -4.7610   25.9599 C.3     1  UNL1        0.0735
     32 C           8.0601   -4.3103   23.4456 C.3     1  UNL1        0.0277
     33 C           6.9123   -4.0388   22.5189 C.ar    1  UNL1       -0.0220
     34 C           7.1345   -4.0188   21.0355 C.ar    1  UNL1       -0.0020
     35 C           5.9867   -3.7472   20.1088 C.ar    1  UNL1        0.0293
     36 C           4.6167   -3.4957   20.6654 C.ar    1  UNL1        0.1401
     37 F           3.4689   -3.2242   19.7386 F       1  UNL1       -0.2042
     38 C           4.3945   -3.5157   22.1487 C.ar    1  UNL1        0.0293
     39 C           5.5423   -3.7872   23.0755 C.ar    1  UNL1       -0.0020
@<TRIPOS>BOND
     1     2     1    1
     2     2    21    1
     3    21    22    1
     4    22    23    1
     5    22    26    1
     6    26    27    1
     7    27    28    1
     8    28    29    1
     9    29    30    1
    10    30    32    1
    11    32    33    1
    12    33    34   ar
    13    34    35   ar
    14    35    36   ar
    15    36    37    1
    16    36    38   ar
    17    38    39   ar
    18    30    31    1
    19     2     3    1
    20     3     4   am
    21     4     5    2
    22     4     6   am
    23     6     9    1
    24     9    10   ar
    25    10    11   ar
    26    11    12   ar
    27    12    13   ar
    28    13    15    1
    29    15    16   ar
    30    16    17   ar
    31    17    18   ar
    32    18    19   ar
    33    19    20    1
    34    13    14   ar
    35    31    26    1
    36    14     9   ar
    37    39    33   ar
    38    19    15   ar
    39    23    24    1
    40    23    25    1
    41     3     7    1
    42     6     8    1
@<TRIPOS>MOLECULE
*****
 39 42 0 0 0
SMALL
GASTEIGER

@<TRIPOS>ATOM
      1 C           6.7727   -1.2367   28.5373 C.3     1  UNL1        0.0214
      2 C           5.6482   -1.3188   27.5481 C.3     1  UNL1        0.0758
      3 N           5.4455   -2.5694   26.7451 N.am    1  UNL1       -0.2902
      4 C           6.2431   -2.7956   25.4951 C.2     1  UNL1        0.3044
      5 O           7.2434   -1.7712   25.0481 O.2     1  UNL1       -0.2525
      6 N           6.0404   -4.0462   24.6920 N.am    1  UNL1       -0.2683
      7 H           4.7889   -3.2417   27.0385 H       1  UNL1        0.1509
      8 H           5.3838   -4.7186   24.9854 H       1  UNL1        0.1564
      9 C           6.8380   -4.2724   23.4420 C.ar    1  UNL1        0.0517
     10 C           8.0605   -5.1409   23.4792 C.ar    1  UNL1        0.0147
     11 C           8.8581   -5.3671   22.2292 C.ar    1  UNL1        0.0014
     12 C           8.4333   -4.7249   20.9419 C.ar    1  UNL1        0.0032
     13 C           7.2109   -3.8565   20.9047 C.ar    1  UNL1        0.0386
     14 C           6.4132   -3.6302   22.1547 C.ar    1  UNL1        0.0178
     15 C           6.7861   -3.2143   19.6174 C.ar    1  UNL1        0.1839
     16 N           7.6412   -2.3495   18.7392 N.ar    1  UNL1       -0.1081
     17 N           6.8151   -1.9248   17.5614 N.ar    1  UNL1       -0.0227
     18 N           5.4496   -2.5271   17.7115 N.ar    1  UNL1       -0.0429
     19 N           5.4316   -3.3240   18.9822 N.ar    1  UNL1       -0.2113
     20 C           4.2642   -4.0953   19.5228 C.3     1  UNL1        0.1573
     21 C           4.7263   -0.1502   27.3618 C.3     1  UNL1        0.0519
     22 C           3.2916   -0.3787   26.9886 C.3     1  UNL1        0.1136
     23 N           2.3397   -0.9616   27.9906 N.3     1  UNL1       -0.3096
     24 H           1.4141   -1.0471   27.5705 H       1  UNL1        0.1200
     25 H           2.2879   -0.3506   28.8057 H       1  UNL1        0.1200
     26 N           2.8088   -0.0245   25.6132 N.3     1  UNL1       -0.2616
     27 C           1.8234    1.0912   25.4285 C.3     1  UNL1        0.0732
     28 C           1.3407    1.4454   24.0532 C.3     1  UNL1        0.0174
     29 C           1.8434    0.6839   22.8626 C.3     1  UNL1        0.0031
     30 C           2.8288   -0.4318   23.0474 C.3     1  UNL1        0.0204
     31 C           3.3115   -0.7860   24.4227 C.3     1  UNL1        0.0735
     32 C           3.3315   -1.1933   21.8568 C.3     1  UNL1        0.0277
     33 C           3.8769   -0.4555   20.6703 C.ar    1  UNL1       -0.0220
     34 C           5.2695    0.1009   20.7083 C.ar    1  UNL1       -0.0020
     35 C           5.8149    0.8388   19.5217 C.ar    1  UNL1        0.0293
     36 C           4.9680    1.0203   18.2971 C.ar    1  UNL1        0.1401
     37 F           5.5135    1.7582   17.1105 F       1  UNL1       -0.2042
     38 C           3.5755    0.4639   18.2590 C.ar    1  UNL1        0.0293
     39 C           3.0300   -0.2740   19.4456 C.ar    1  UNL1       -0.0020
@<TRIPOS>BOND
     1     2     1    1
     2     2    21    1
     3    21    22    1
     4    22    23    1
     5    22    26    1
     6    26    27    1
     7    27    28    1
     8    28    29    1
     9    29    30    1
    10    30    32    1
    11    32    33    1
    12    33    34   ar
    13    34    35   ar
    14    35    36   ar
    15    36    37    1
    16    36    38   ar
    17    38    39   ar
    18    30    31    1
    19     2     3    1
    20     3     4   am
    21     4     5    2
    22     4     6   am
    23     6     9    1
    24     9    10   ar
    25    10    11   ar
    26    11    12   ar
    27    12    13   ar
    28    13    15    1
    29    15    16   ar
    30    16    17   ar
    31    17    18   ar
    32    18    19   ar
    33    19    20    1
    34    13    14   ar
    35    31    26    1
    36    14     9   ar
    37    39    33   ar
    38    19    15   ar
    39    23    24    1
    40    23    25    1
    41     3     7    1
    42     6     8    1
@<TRIPOS>MOLECULE
*****
 39 42 0 0 0
SMALL
GASTEIGER

@<TRIPOS>ATOM
      1 C          -9.3869   -7.6002   19.0480 C.3     1  UNL1        0.0214
      2 C         -10.3018   -7.0006   18.0218 C.3     1  UNL1        0.0758
      3 N         -11.5410   -7.7341   17.6018 N.am    1  UNL1       -0.2902
      4 C         -12.8447   -7.4602   18.2913 C.2     1  UNL1        0.3044
      5 O         -12.9091   -6.4527   19.4008 O.2     1  UNL1       -0.2525
      6 N         -14.0839   -8.1937   17.8714 N.am    1  UNL1       -0.2683
      7 H         -11.4987   -8.3953   16.8737 H       1  UNL1        0.1509
      8 H         -14.0416   -8.8549   17.1432 H       1  UNL1        0.1564
      9 C         -15.3875   -7.9198   18.5609 C.ar    1  UNL1        0.0517
     10 C         -15.9754   -8.9426   19.4874 C.ar    1  UNL1        0.0147
     11 C         -17.2790   -8.6686   20.1769 C.ar    1  UNL1        0.0014
     12 C         -17.9949   -7.3719   19.9399 C.ar    1  UNL1        0.0032
     13 C         -17.4071   -6.3492   19.0135 C.ar    1  UNL1        0.0386
     14 C         -16.1033   -6.6230   18.3239 C.ar    1  UNL1        0.0178
     15 C         -18.1229   -5.0525   18.7765 C.ar    1  UNL1        0.1839
     16 N         -18.1262   -3.8665   19.6950 N.ar    1  UNL1       -0.1081
     17 N         -18.9665   -2.7951   19.0656 N.ar    1  UNL1       -0.0227
     18 N         -19.4824   -3.3189   17.7581 N.ar    1  UNL1       -0.0429
     19 N         -18.9611   -4.7140   17.5795 N.ar    1  UNL1       -0.2113
     20 C         -19.2306   -5.6128   16.4092 C.3     1  UNL1        0.1573
     21 C          -9.9777   -5.6674   17.4154 C.3     1  UNL1        0.0519
     22 C         -10.3574   -4.4054   18.1317 C.3     1  UNL1        0.1136
     23 N          -9.5909   -3.9727   19.3463 N.3     1  UNL1       -0.3096
     24 H          -9.9820   -3.1005   19.7023 H       1  UNL1        0.1200
     25 H          -8.6120   -3.8298   19.0976 H       1  UNL1        0.1200
     26 N         -11.5037   -3.5761   17.6335 N.3     1  UNL1       -0.2616
     27 C         -12.4245   -4.1231   16.5833 C.3     1  UNL1        0.0732
     28 C         -13.5707   -3.2938   16.0851 C.3     1  UNL1        0.0174
     29 C         -13.7962   -1.9174   16.6371 C.3     1  UNL1        0.0031
     30 C         -12.8755   -1.3703   17.6873 C.3     1  UNL1        0.0204
     31 C         -11.7292   -2.1997   18.1855 C.3     1  UNL1        0.0735
     32 C         -13.1010    0.0061   18.2393 C.3     1  UNL1        0.0277
     33 C         -14.4241    0.3617   18.8500 C.ar    1  UNL1       -0.0220
     34 C         -14.9529    1.7605   18.7319 C.ar    1  UNL1       -0.0020
     35 C         -16.2759    2.1162   19.3426 C.ar    1  UNL1        0.0293
     36 C         -17.0702    1.0731   20.0714 C.ar    1  UNL1        0.1401
     37 F         -18.3933    1.4289   20.6821 F       1  UNL1       -0.2042
     38 C         -16.5415   -0.3256   20.1895 C.ar    1  UNL1        0.0293
     39 C         -15.2184   -0.6813   19.5788 C.ar    1  UNL1       -0.0020
@<TRIPOS>BOND
     1     2     1    1
     2     2    21    1
     3    21    22    1
     4    22    23    1
     5    22    26    1
     6    26    27    1
     7    27    28    1
     8    28    29    1
     9    29    30    1
    10    30    32    1
    11    32    33    1
    12    33    34   ar
    13    34    35   ar
    14    35    36   ar
    15    36    37    1
    16    36    38   ar
    17    38    39   ar
    18    30    31    1
    19     2     3    1
    20     3     4   am
    21     4     5    2
    22     4     6   am
    23     6     9    1
    24     9    10   ar
    25    10    11   ar
    26    11    12   ar
    27    12    13   ar
    28    13    15    1
    29    15    16   ar
    30    16    17   ar
    31    17    18   ar
    32    18    19   ar
    33    19    20    1
    34    13    14   ar
    35    31    26    1
    36    14     9   ar
    37    39    33   ar
    38    19    15   ar
    39    23    24    1
    40    23    25    1
    41     3     7    1
    42     6     8    1
@<TRIPOS>MOLECULE
*****
 39 42 0 0 0
SMALL
GASTEIGER

@<TRIPOS>ATOM
      1 C          -1.0863    4.2885   19.0129 C.3     1  UNL1        0.0214
      2 C          -1.4959    3.5320   20.2417 C.3     1  UNL1        0.0758
      3 N          -1.1761    2.0717   20.3648 N.am    1  UNL1       -0.2902
      4 C           0.2287    1.6334   20.6553 C.2     1  UNL1        0.3044
      5 O           1.3137    2.6555   20.8227 O.2     1  UNL1       -0.2525
      6 N           0.5485    0.1731   20.7784 N.am    1  UNL1       -0.2683
      7 H          -1.8882    1.4009   20.2549 H       1  UNL1        0.1509
      8 H          -0.1636   -0.4977   20.6686 H       1  UNL1        0.1564
      9 C           1.9533   -0.2652   21.0689 C.ar    1  UNL1        0.0517
     10 C           2.4037   -0.4478   22.4880 C.ar    1  UNL1        0.0147
     11 C           3.8085   -0.8861   22.7785 C.ar    1  UNL1        0.0014
     12 C           4.7630   -1.1417   21.6500 C.ar    1  UNL1        0.0032
     13 C           4.3126   -0.9591   20.2309 C.ar    1  UNL1        0.0386
     14 C           2.9078   -0.5208   19.9403 C.ar    1  UNL1        0.0178
     15 C           5.2671   -1.2147   19.1023 C.ar    1  UNL1        0.1839
     16 N           6.0714   -0.1777   18.3758 N.ar    1  UNL1       -0.1081
     17 N           6.8862   -0.8743   17.3266 N.ar    1  UNL1       -0.0227
     18 N           6.5855   -2.3418   17.4047 N.ar    1  UNL1       -0.0429
     19 N           5.5849   -2.5521   18.5021 N.ar    1  UNL1       -0.2113
     20 C           5.0040   -3.8688   18.9252 C.3     1  UNL1        0.1573
     21 C          -2.2253    4.2359   21.3474 C.3     1  UNL1        0.0519
     22 C          -3.3359    3.5389   22.0759 C.3     1  UNL1        0.1136
     23 N          -4.2935    2.6636   21.3229 N.3     1  UNL1       -0.3096
     24 H          -4.9783    2.2733   21.9702 H       1  UNL1        0.1200
     25 H          -3.7798    1.9057   20.8734 H       1  UNL1        0.1200
     26 N          -3.4890    3.7172   23.5574 N.3     1  UNL1       -0.2616
     27 C          -4.8563    3.7289   24.1741 C.3     1  UNL1        0.0732
     28 C          -5.0094    3.9072   25.6555 C.3     1  UNL1        0.0174
     29 C          -3.7951    4.0737   26.5203 C.3     1  UNL1        0.0031
     30 C          -2.4278    4.0619   25.9037 C.3     1  UNL1        0.0204
     31 C          -2.2748    3.8837   24.4222 C.3     1  UNL1        0.0735
     32 C          -1.2136    4.2284   26.7685 C.3     1  UNL1        0.0277
     33 C          -0.5908    3.0323   27.4252 C.ar    1  UNL1       -0.0220
     34 C           0.7206    3.1674   28.1407 C.ar    1  UNL1       -0.0020
     35 C           1.3434    1.9712   28.7975 C.ar    1  UNL1        0.0293
     36 C           0.6548    0.6399   28.7388 C.ar    1  UNL1        0.1401
     37 F           1.2776   -0.5562   29.3956 F       1  UNL1       -0.2042
     38 C          -0.6566    0.5048   28.0233 C.ar    1  UNL1        0.0293
     39 C          -1.2795    1.7010   27.3665 C.ar    1  UNL1       -0.0020
@<TRIPOS>BOND
     1     2     1    1
     2     2    21    1
     3    21    22    1
     4    22    23    1
     5    22    26    1
     6    26    27    1
     7    27    28    1
     8    28    29    1
     9    29    30    1
    10    30    32    1
    11    32    33    1
    12    33    34   ar
    13    34    35   ar
    14    35    36   ar
    15    36    37    1
    16    36    38   ar
    17    38    39   ar
    18    30    31    1
    19     2     3    1
    20     3     4   am
    21     4     5    2
    22     4     6   am
    23     6     9    1
    24     9    10   ar
    25    10    11   ar
    26    11    12   ar
    27    12    13   ar
    28    13    15    1
    29    15    16   ar
    30    16    17   ar
    31    17    18   ar
    32    18    19   ar
    33    19    20    1
    34    13    14   ar
    35    31    26    1
    36    14     9   ar
    37    39    33   ar
    38    19    15   ar
    39    23    24    1
    40    23    25    1
    41     3     7    1
    42     6     8    1
