@<TRIPOS>MOLECULE
*****
 36 40 0 0 0
SMALL
GASTEIGER

@<TRIPOS>ATOM
      1 C           7.4269   -3.9664   25.1399 C.ar    1  UNL1        0.0503
      2 C           8.5899   -4.5065   24.3614 C.ar    1  UNL1        0.0143
      3 C           8.5295   -4.5606   22.8636 C.ar    1  UNL1       -0.0029
      4 C           7.3062   -4.0746   22.1443 C.ar    1  UNL1       -0.0208
      5 C           6.1433   -3.5346   22.9228 C.ar    1  UNL1       -0.0029
      6 C           6.2037   -3.4805   24.4206 C.ar    1  UNL1        0.0143
      7 O           6.3046   -6.2218   26.7688 O.2     1  UNL1       -0.2727
      8 C           6.9261   -5.0401   27.4522 C.2     1  UNL1        0.2469
      9 N           7.4873   -3.9123   26.6377 N.am    1  UNL1       -0.2824
     10 H           7.8952   -3.1367   27.0862 H       1  UNL1        0.1549
     11 C           6.9864   -4.9860   28.9500 C.3     1  UNL1        0.1662
     12 C           7.4667   -6.0831   29.8532 C.3     1  UNL1        0.0400
     13 C           7.3542   -5.6004   31.2690 C.3     1  UNL1        0.0665
     14 C           6.8043   -4.2051   31.2407 C.ar    1  UNL1        0.1229
     15 N           6.4813   -3.2312   32.3349 N.ar    1  UNL1       -0.2306
     16 C           5.9310   -1.8777   31.9958 C.ar    1  UNL1        0.1051
     17 C           5.7037   -1.4980   30.5626 C.ar    1  UNL1        0.0814
     18 C           6.0267   -2.4718   29.4684 C.ar    1  UNL1        0.2637
     19 O           5.7995   -2.0921   28.0352 O.2     1  UNL1       -0.2669
     20 N           6.5771   -3.8254   29.8075 N.ar    1  UNL1       -0.2773
     21 C           7.2458   -4.1287   20.6465 C.3     1  UNL1        0.0420
     22 C           5.9861   -3.7376   19.9322 C.3     1  UNL1        0.0585
     23 C           4.7641   -4.5919   19.7678 C.3     1  UNL1        0.0175
     24 C           3.7500   -3.8059   18.9908 C.3     1  UNL1        0.0199
     25 C           4.3451   -2.4658   18.6750 C.3     1  UNL1        0.0855
     26 N           5.7272   -2.4235   19.2568 N.3     1  UNL1       -0.2971
     27 H           5.7936   -1.6659   19.9366 H       1  UNL1        0.1233
     28 C           3.6759   -1.3616   17.9115 C.3     1  UNL1        0.1470
     29 O           3.8584   -1.2592   16.4262 O.3     1  UNL1       -0.3787
     30 H           3.3624   -0.4959   16.0913 H       1  UNL1        0.2108
     31 C           2.8241   -0.3599   18.6333 C.ar    1  UNL1        0.0055
     32 C           1.9491   -0.7995   19.7695 C.ar    1  UNL1       -0.0019
     33 C           1.0973    0.2022   20.4913 C.ar    1  UNL1       -0.0002
     34 C           1.1205    1.6436   20.0768 C.ar    1  UNL1       -0.0000
     35 C           1.9956    2.0833   18.9405 C.ar    1  UNL1       -0.0002
     36 C           2.8473    1.0816   18.2187 C.ar    1  UNL1       -0.0019
@<TRIPOS>BOND
     1     7     8    2
     2     8     9   am
     3     9     1    1
     4     1     2   ar
     5     2     3   ar
     6     3     4   ar
     7     4    21    1
     8    22    21    1
     9    22    23    1
    10    23    24    1
    11    25    24    1
    12    25    28    1
    13    28    29    1
    14    28    31    1
    15    31    32   ar
    16    32    33   ar
    17    33    34   ar
    18    34    35   ar
    19    35    36   ar
    20    25    26    1
    21     4     5   ar
    22     5     6   ar
    23    11     8    1
    24    11    12    1
    25    12    13    1
    26    13    14    1
    27    14    15   ar
    28    15    16   ar
    29    16    17   ar
    30    17    18   ar
    31    18    19    2
    32    18    20   ar
    33     6     1   ar
    34    20    11    1
    35    26    22    1
    36    20    14   ar
    37    36    31   ar
    38     9    10    1
    39    29    30    1
    40    26    27    1
@<TRIPOS>MOLECULE
*****
 36 40 0 0 0
SMALL
GASTEIGER

@<TRIPOS>ATOM
      1 C           7.3614   -4.2081   22.8741 C.ar    1  UNL1        0.0503
      2 C           8.1897   -5.4393   22.6544 C.ar    1  UNL1        0.0143
      3 C           8.3729   -6.4284   23.7670 C.ar    1  UNL1       -0.0029
      4 C           7.7278   -6.1863   25.0994 C.ar    1  UNL1       -0.0208
      5 C           6.8995   -4.9552   25.3191 C.ar    1  UNL1       -0.0029
      6 C           6.7163   -3.9661   24.2064 C.ar    1  UNL1        0.0143
      7 O           5.0907   -4.5295   20.9401 O.2     1  UNL1       -0.2727
      8 C           6.0428   -3.3797   20.7943 C.2     1  UNL1        0.2469
      9 N           7.1782   -3.2190   21.7614 N.am    1  UNL1       -0.2824
     10 H           7.8032   -2.4643   21.6658 H       1  UNL1        0.1549
     11 C           5.8596   -2.3906   19.6816 C.3     1  UNL1        0.1662
     12 C           6.7669   -2.2145   18.5002 C.3     1  UNL1        0.0400
     13 C           6.2050   -1.1190   17.6435 C.3     1  UNL1        0.0665
     14 C           4.9504   -0.6180   18.2954 C.ar    1  UNL1        0.1229
     15 N           3.9748    0.4523   17.9048 N.ar    1  UNL1       -0.2306
     16 C           2.7857    0.7367   18.7738 C.ar    1  UNL1        0.1051
     17 C           2.5723   -0.0492   20.0335 C.ar    1  UNL1        0.0814
     18 C           3.5479   -1.1195   20.4241 C.ar    1  UNL1        0.2637
     19 O           3.3344   -1.9054   21.6838 O.2     1  UNL1       -0.2669
     20 N           4.7369   -1.4039   19.5551 N.ar    1  UNL1       -0.2773
     21 C           7.9109   -7.1754   26.2121 C.3     1  UNL1        0.0420
     22 C           8.0993   -6.6938   27.6202 C.3     1  UNL1        0.0585
     23 C           9.4077   -6.5777   28.3447 C.3     1  UNL1        0.0175
     24 C           9.1296   -6.0558   29.7232 C.3     1  UNL1        0.0199
     25 C           7.6493   -5.8495   29.8507 C.3     1  UNL1        0.0855
     26 N           7.0126   -6.2437   28.5510 N.3     1  UNL1       -0.2971
     27 H           6.5218   -5.4448   28.1495 H       1  UNL1        0.1233
     28 C           6.9317   -5.3385   31.0647 C.3     1  UNL1        0.1470
     29 O           6.5518   -6.2846   32.1650 O.3     1  UNL1       -0.3787
     30 H           6.0984   -5.7958   32.8696 H       1  UNL1        0.2108
     31 C           6.5939   -3.8815   31.1786 C.ar    1  UNL1        0.0055
     32 C           6.6366   -3.0044   29.9624 C.ar    1  UNL1       -0.0019
     33 C           6.2988   -1.5474   30.0763 C.ar    1  UNL1       -0.0002
     34 C           5.9183   -0.9675   31.4063 C.ar    1  UNL1       -0.0000
     35 C           5.8757   -1.8445   32.6224 C.ar    1  UNL1       -0.0002
     36 C           6.2134   -3.3015   32.5086 C.ar    1  UNL1       -0.0019
@<TRIPOS>BOND
     1     7     8    2
     2     8     9   am
     3     9     1    1
     4     1     2   ar
     5     2     3   ar
     6     3     4   ar
     7     4    21    1
     8    22    21    1
     9    22    23    1
    10    23    24    1
    11    25    24    1
    12    25    28    1
    13    28    29    1
    14    28    31    1
    15    31    32   ar
    16    32    33   ar
    17    33    34   ar
    18    34    35   ar
    19    35    36   ar
    20    25    26    1
    21     4     5   ar
    22     5     6   ar
    23    11     8    1
    24    11    12    1
    25    12    13    1
    26    13    14    1
    27    14    15   ar
    28    15    16   ar
    29    16    17   ar
    30    17    18   ar
    31    18    19    2
    32    18    20   ar
    33     6     1   ar
    34    20    11    1
    35    26    22    1
    36    20    14   ar
    37    36    31   ar
    38     9    10    1
    39    29    30    1
    40    26    27    1
@<TRIPOS>MOLECULE
*****
 36 40 0 0 0
SMALL
GASTEIGER

@<TRIPOS>ATOM
      1 C           0.5720    2.1566   18.7345 C.ar    1  UNL1        0.0503
      2 C          -0.1479    2.0104   20.0422 C.ar    1  UNL1        0.0143
      3 C          -1.2134    2.9940   20.4259 C.ar    1  UNL1       -0.0029
      4 C          -1.5589    4.1239   19.5017 C.ar    1  UNL1       -0.0208
      5 C          -0.8389    4.2701   18.1940 C.ar    1  UNL1       -0.0029
      6 C           0.2266    3.2864   17.8103 C.ar    1  UNL1        0.0143
      7 O           3.4391    2.7048   19.4269 O.2     1  UNL1       -0.2727
      8 C           3.0711    1.4471   18.6971 C.2     1  UNL1        0.2469
      9 N           1.6375    1.1730   18.3508 N.am    1  UNL1       -0.2824
     10 H           1.3960    0.3475   17.8718 H       1  UNL1        0.1549
     11 C           4.1366    0.4635   18.3134 C.3     1  UNL1        0.1662
     12 C           5.3729    0.7675   17.5203 C.3     1  UNL1        0.0400
     13 C           6.1532   -0.5050   17.3722 C.3     1  UNL1        0.0665
     14 C           5.3992   -1.5954   18.0739 C.ar    1  UNL1        0.1229
     15 N           5.6864   -3.0560   18.2583 N.ar    1  UNL1       -0.2306
     16 C           4.7273   -3.9181   19.0243 C.ar    1  UNL1        0.1051
     17 C           3.4810   -3.3196   19.6060 C.ar    1  UNL1        0.0814
     18 C           3.1937   -1.8590   19.4216 C.ar    1  UNL1        0.2637
     19 O           1.9474   -1.2604   20.0033 O.2     1  UNL1       -0.2669
     20 N           4.1528   -0.9969   18.6556 N.ar    1  UNL1       -0.2773
     21 C          -2.6244    5.1076   19.8853 C.3     1  UNL1        0.0420
     22 C          -3.9292    4.6206   20.4425 C.3     1  UNL1        0.0585
     23 C          -4.9511    3.8034   19.7090 C.3     1  UNL1        0.0175
     24 C          -6.0946    3.5430   20.6441 C.3     1  UNL1        0.0199
     25 C          -5.7795    4.1993   21.9556 C.3     1  UNL1        0.0855
     26 N          -4.4412    4.8653   21.8310 N.3     1  UNL1       -0.2971
     27 H          -3.7935    4.4710   22.5133 H       1  UNL1        0.1233
     28 C          -6.6498    4.1911   23.1772 C.3     1  UNL1        0.1470
     29 O          -8.1104    3.8719   23.0555 O.3     1  UNL1       -0.3787
     30 H          -8.5238    3.9097   23.9321 H       1  UNL1        0.2108
     31 C          -6.0596    4.5021   24.5207 C.ar    1  UNL1        0.0055
     32 C          -6.6407    5.6021   25.3587 C.ar    1  UNL1       -0.0019
     33 C          -6.0505    5.9131   26.7022 C.ar    1  UNL1       -0.0002
     34 C          -4.8793    5.1241   27.2077 C.ar    1  UNL1       -0.0000
     35 C          -4.2982    4.0240   26.3697 C.ar    1  UNL1       -0.0002
     36 C          -4.8883    3.7130   25.0262 C.ar    1  UNL1       -0.0019
@<TRIPOS>BOND
     1     7     8    2
     2     8     9   am
     3     9     1    1
     4     1     2   ar
     5     2     3   ar
     6     3     4   ar
     7     4    21    1
     8    22    21    1
     9    22    23    1
    10    23    24    1
    11    25    24    1
    12    25    28    1
    13    28    29    1
    14    28    31    1
    15    31    32   ar
    16    32    33   ar
    17    33    34   ar
    18    34    35   ar
    19    35    36   ar
    20    25    26    1
    21     4     5   ar
    22     5     6   ar
    23    11     8    1
    24    11    12    1
    25    12    13    1
    26    13    14    1
    27    14    15   ar
    28    15    16   ar
    29    16    17   ar
    30    17    18   ar
    31    18    19    2
    32    18    20   ar
    33     6     1   ar
    34    20    11    1
    35    26    22    1
    36    20    14   ar
    37    36    31   ar
    38     9    10    1
    39    29    30    1
    40    26    27    1
@<TRIPOS>MOLECULE
*****
 36 40 0 0 0
SMALL
GASTEIGER

@<TRIPOS>ATOM
      1 C           0.6617    1.8524   23.0378 C.ar    1  UNL1        0.0503
      2 C          -0.1614    3.0614   22.7053 C.ar    1  UNL1        0.0143
      3 C          -1.1733    3.5730   23.6872 C.ar    1  UNL1       -0.0029
      4 C          -1.3620    2.8756   25.0017 C.ar    1  UNL1       -0.0208
      5 C          -0.5389    1.6665   25.3343 C.ar    1  UNL1       -0.0029
      6 C           0.4731    1.1549   24.3523 C.ar    1  UNL1        0.0143
      7 O          -0.2363    0.3262   20.6162 O.2     1  UNL1       -0.2727
      8 C           1.2246    0.5776   20.8450 C.2     1  UNL1        0.2469
      9 N           1.6737    1.3407   22.0559 N.am    1  UNL1       -0.2824
     10 H           2.6325    1.5057   22.2061 H       1  UNL1        0.1549
     11 C           2.2365    0.0660   19.8630 C.3     1  UNL1        0.1662
     12 C           2.2968    0.4031   18.4026 C.3     1  UNL1        0.0400
     13 C           3.4633   -0.3272   17.8062 C.3     1  UNL1        0.0665
     14 C           4.1240   -1.1156   18.8978 C.ar    1  UNL1        0.1229
     15 N           5.3181   -2.0234   18.8986 N.ar    1  UNL1       -0.2306
     16 C           5.7539   -2.6883   20.1706 C.ar    1  UNL1        0.1051
     17 C           4.9957   -2.4453   21.4418 C.ar    1  UNL1        0.0814
     18 C           3.8016   -1.5375   21.4411 C.ar    1  UNL1        0.2637
     19 O           3.0434   -1.2945   22.7123 O.2     1  UNL1       -0.2669
     20 N           3.3658   -0.8727   20.1691 N.ar    1  UNL1       -0.2773
     21 C          -2.3739    3.3872   25.9838 C.3     1  UNL1        0.0420
     22 C          -3.7180    3.8489   25.5038 C.3     1  UNL1        0.0585
     23 C          -4.6478    4.7694   26.2374 C.3     1  UNL1        0.0175
     24 C          -5.8727    4.9606   25.3930 C.3     1  UNL1        0.0199
     25 C          -5.7000    4.1582   24.1375 C.3     1  UNL1        0.0855
     26 N          -4.3683    3.4711   24.2059 N.3     1  UNL1       -0.2971
     27 H          -3.7836    3.7708   23.4257 H       1  UNL1        0.1233
     28 C          -6.6858    4.0601   23.0112 C.3     1  UNL1        0.1470
     29 O          -8.1317    3.7865   23.3018 O.3     1  UNL1       -0.3787
     30 H          -8.6284    3.7547   22.4692 H       1  UNL1        0.2108
     31 C          -6.2257    4.2355   21.5943 C.ar    1  UNL1        0.0055
     32 C          -5.1185    3.3800   21.0539 C.ar    1  UNL1       -0.0019
     33 C          -4.6584    3.5554   19.6370 C.ar    1  UNL1       -0.0002
     34 C          -5.3056    4.5864   18.7606 C.ar    1  UNL1       -0.0000
     35 C          -6.4128    5.4420   19.3010 C.ar    1  UNL1       -0.0002
     36 C          -6.8729    5.2666   20.7178 C.ar    1  UNL1       -0.0019
@<TRIPOS>BOND
     1     7     8    2
     2     8     9   am
     3     9     1    1
     4     1     2   ar
     5     2     3   ar
     6     3     4   ar
     7     4    21    1
     8    22    21    1
     9    22    23    1
    10    23    24    1
    11    25    24    1
    12    25    28    1
    13    28    29    1
    14    28    31    1
    15    31    32   ar
    16    32    33   ar
    17    33    34   ar
    18    34    35   ar
    19    35    36   ar
    20    25    26    1
    21     4     5   ar
    22     5     6   ar
    23    11     8    1
    24    11    12    1
    25    12    13    1
    26    13    14    1
    27    14    15   ar
    28    15    16   ar
    29    16    17   ar
    30    17    18   ar
    31    18    19    2
    32    18    20   ar
    33     6     1   ar
    34    20    11    1
    35    26    22    1
    36    20    14   ar
    37    36    31   ar
    38     9    10    1
    39    29    30    1
    40    26    27    1
@<TRIPOS>MOLECULE
*****
 36 40 0 0 0
SMALL
GASTEIGER

@<TRIPOS>ATOM
      1 C           6.5030   -3.6293   23.3393 C.ar    1  UNL1        0.0503
      2 C           6.1257   -3.4536   24.7804 C.ar    1  UNL1        0.0143
      3 C           6.6193   -4.4274   25.8090 C.ar    1  UNL1       -0.0029
      4 C           7.4903   -5.5768   25.3965 C.ar    1  UNL1       -0.0208
      5 C           7.8676   -5.7525   23.9554 C.ar    1  UNL1       -0.0029
      6 C           7.3739   -4.7787   22.9268 C.ar    1  UNL1        0.0143
      7 O           4.3541   -4.4447   21.4113 O.2     1  UNL1       -0.2727
      8 C           4.9348   -3.0632   21.3467 C.2     1  UNL1        0.2469
      9 N           6.0093   -2.6555   22.3107 N.am    1  UNL1       -0.2824
     10 H           6.3905   -1.7488   22.2684 H       1  UNL1        0.1549
     11 C           4.4411   -2.0894   20.3180 C.3     1  UNL1        0.1662
     12 C           3.0107   -1.7031   20.0846 C.3     1  UNL1        0.0400
     13 C           2.9768   -0.7059   18.9646 C.3     1  UNL1        0.0665
     14 C           4.3863   -0.4760   18.5058 C.ar    1  UNL1        0.1229
     15 N           4.9625    0.4016   17.4345 N.ar    1  UNL1       -0.2306
     16 C           6.4438    0.4240   17.1996 C.ar    1  UNL1        0.1051
     17 C           7.3489   -0.4311   18.0361 C.ar    1  UNL1        0.0814
     18 C           6.7726   -1.3086   19.1075 C.ar    1  UNL1        0.2637
     19 O           7.6776   -2.1637   19.9440 O.2     1  UNL1       -0.2669
     20 N           5.2913   -1.3310   19.3423 N.ar    1  UNL1       -0.2773
     21 C           7.9840   -6.5507   26.4250 C.3     1  UNL1        0.0420
     22 C           8.2134   -6.0985   27.8367 C.3     1  UNL1        0.0585
     23 C           9.5359   -5.7283   28.4402 C.3     1  UNL1        0.0175
     24 C           9.3005   -5.3381   29.8692 C.3     1  UNL1        0.0199
     25 C           7.8325   -5.4672   30.1491 C.3     1  UNL1        0.0855
     26 N           7.1606   -5.9371   28.8930 N.3     1  UNL1       -0.2971
     27 H           6.4704   -5.2493   28.5915 H       1  UNL1        0.1233
     28 C           7.1552   -5.1772   31.4557 C.3     1  UNL1        0.1470
     29 O           6.5046   -6.2879   32.2259 O.3     1  UNL1       -0.3787
     30 H           6.1165   -5.9322   33.0407 H       1  UNL1        0.2108
     31 C           7.1284   -3.7767   31.9921 C.ar    1  UNL1        0.0055
     32 C           5.8180   -3.1227   32.3164 C.ar    1  UNL1       -0.0019
     33 C           5.7913   -1.7222   32.8528 C.ar    1  UNL1       -0.0002
     34 C           7.0749   -0.9756   33.0649 C.ar    1  UNL1       -0.0000
     35 C           8.3853   -1.6296   32.7406 C.ar    1  UNL1       -0.0002
     36 C           8.4121   -3.0301   32.2042 C.ar    1  UNL1       -0.0019
@<TRIPOS>BOND
     1     7     8    2
     2     8     9   am
     3     9     1    1
     4     1     2   ar
     5     2     3   ar
     6     3     4   ar
     7     4    21    1
     8    22    21    1
     9    22    23    1
    10    23    24    1
    11    25    24    1
    12    25    28    1
    13    28    29    1
    14    28    31    1
    15    31    32   ar
    16    32    33   ar
    17    33    34   ar
    18    34    35   ar
    19    35    36   ar
    20    25    26    1
    21     4     5   ar
    22     5     6   ar
    23    11     8    1
    24    11    12    1
    25    12    13    1
    26    13    14    1
    27    14    15   ar
    28    15    16   ar
    29    16    17   ar
    30    17    18   ar
    31    18    19    2
    32    18    20   ar
    33     6     1   ar
    34    20    11    1
    35    26    22    1
    36    20    14   ar
    37    36    31   ar
    38     9    10    1
    39    29    30    1
    40    26    27    1
@<TRIPOS>MOLECULE
*****
 36 40 0 0 0
SMALL
GASTEIGER

@<TRIPOS>ATOM
      1 C           7.2533   -4.5968   25.7835 C.ar    1  UNL1        0.0503
      2 C           8.0973   -3.5358   26.4252 C.ar    1  UNL1        0.0143
      3 C           8.4100   -3.6103   27.8904 C.ar    1  UNL1       -0.0029
      4 C           7.8786   -4.7458   28.7138 C.ar    1  UNL1       -0.0208
      5 C           7.0345   -5.8069   28.0721 C.ar    1  UNL1       -0.0029
      6 C           6.7219   -5.7324   26.6070 C.ar    1  UNL1        0.0143
      7 O           5.2150   -2.6364   24.7825 O.2     1  UNL1       -0.2727
      8 C           5.9214   -3.5421   23.8179 C.2     1  UNL1        0.2469
      9 N           6.9406   -4.5223   24.3184 N.am    1  UNL1       -0.2824
     10 H           7.4043   -5.1168   23.6852 H       1  UNL1        0.1549
     11 C           5.6087   -3.4676   22.3527 C.3     1  UNL1        0.1662
     12 C           4.3129   -3.8593   21.7067 C.3     1  UNL1        0.0400
     13 C           4.4404   -3.6221   20.2310 C.3     1  UNL1        0.0665
     14 C           5.8149   -3.0837   19.9651 C.ar    1  UNL1        0.1229
     15 N           6.5023   -2.6682   18.6983 N.ar    1  UNL1       -0.2306
     16 C           7.9118   -2.1571   18.7428 C.ar    1  UNL1        0.1051
     17 C           8.6339   -2.0616   20.0541 C.ar    1  UNL1        0.0814
     18 C           7.9465   -2.4771   21.3209 C.ar    1  UNL1        0.2637
     19 O           8.6687   -2.3816   22.6321 O.2     1  UNL1       -0.2669
     20 N           6.5370   -2.9882   21.2763 N.ar    1  UNL1       -0.2773
     21 C           8.1912   -4.8204   30.1790 C.3     1  UNL1        0.0420
     22 C           7.5351   -3.8690   31.1352 C.3     1  UNL1        0.0585
     23 C           8.1552   -2.6309   31.7121 C.3     1  UNL1        0.0175
     24 C           7.1470   -1.9853   32.6158 C.3     1  UNL1        0.0199
     25 C           5.9037   -2.8244   32.5975 C.3     1  UNL1        0.0855
     26 N           6.1436   -3.9886   31.6824 N.3     1  UNL1       -0.2971
     27 H           5.4684   -3.9728   30.9180 H       1  UNL1        0.1233
     28 C           4.6421   -2.5479   33.3603 C.3     1  UNL1        0.1470
     29 O           3.6793   -3.6620   33.6464 O.3     1  UNL1       -0.3787
     30 H           2.9225   -3.3153   34.1444 H       1  UNL1        0.2108
     31 C           4.3433   -1.1574   33.8369 C.ar    1  UNL1        0.0055
     32 C           4.7668   -0.7282   35.2104 C.ar    1  UNL1       -0.0019
     33 C           4.4679    0.6623   35.6871 C.ar    1  UNL1       -0.0002
     34 C           3.7456    1.6235   34.7903 C.ar    1  UNL1       -0.0000
     35 C           3.3221    1.1943   33.4168 C.ar    1  UNL1       -0.0002
     36 C           3.6209   -0.1961   32.9401 C.ar    1  UNL1       -0.0019
@<TRIPOS>BOND
     1     7     8    2
     2     8     9   am
     3     9     1    1
     4     1     2   ar
     5     2     3   ar
     6     3     4   ar
     7     4    21    1
     8    22    21    1
     9    22    23    1
    10    23    24    1
    11    25    24    1
    12    25    28    1
    13    28    29    1
    14    28    31    1
    15    31    32   ar
    16    32    33   ar
    17    33    34   ar
    18    34    35   ar
    19    35    36   ar
    20    25    26    1
    21     4     5   ar
    22     5     6   ar
    23    11     8    1
    24    11    12    1
    25    12    13    1
    26    13    14    1
    27    14    15   ar
    28    15    16   ar
    29    16    17   ar
    30    17    18   ar
    31    18    19    2
    32    18    20   ar
    33     6     1   ar
    34    20    11    1
    35    26    22    1
    36    20    14   ar
    37    36    31   ar
    38     9    10    1
    39    29    30    1
    40    26    27    1
@<TRIPOS>MOLECULE
*****
 36 40 0 0 0
SMALL
GASTEIGER

@<TRIPOS>ATOM
      1 C           5.0273   -2.0977   25.8694 C.ar    1  UNL1        0.0503
      2 C           6.4217   -2.6139   25.6717 C.ar    1  UNL1        0.0143
      3 C           6.9757   -2.7660   24.2861 C.ar    1  UNL1       -0.0029
      4 C           6.1353   -2.4018   23.0982 C.ar    1  UNL1       -0.0208
      5 C           4.7409   -1.8856   23.2959 C.ar    1  UNL1       -0.0029
      6 C           4.1868   -1.7335   24.6815 C.ar    1  UNL1        0.0143
      7 O           5.0474    0.5877   27.2065 O.2     1  UNL1       -0.2727
      8 C           4.4833   -0.6028   27.9236 C.2     1  UNL1        0.2469
      9 N           4.4732   -1.9456   27.2550 N.am    1  UNL1       -0.2824
     10 H           4.1030   -2.7271   27.7256 H       1  UNL1        0.1549
     11 C           3.9292   -0.4507   29.3092 C.3     1  UNL1        0.1662
     12 C           2.7767    0.4231   29.7069 C.3     1  UNL1        0.0400
     13 C           2.5656    0.2681   31.1839 C.3     1  UNL1        0.0665
     14 C           3.5876   -0.7016   31.6990 C.ar    1  UNL1        0.1229
     15 N           3.8597   -1.2374   33.0733 N.ar    1  UNL1       -0.2306
     16 C           4.9746   -2.2175   33.2890 C.ar    1  UNL1        0.1051
     17 C           5.8173   -2.6618   32.1303 C.ar    1  UNL1        0.0814
     18 C           5.5452   -2.1259   30.7560 C.ar    1  UNL1        0.2637
     19 O           6.3879   -2.5702   29.5974 O.2     1  UNL1       -0.2669
     20 N           4.4304   -1.1459   30.5403 N.ar    1  UNL1       -0.2773
     21 C           6.6893   -2.5538   21.7126 C.3     1  UNL1        0.0420
     22 C           5.7646   -2.5580   20.5315 C.3     1  UNL1        0.0585
     23 C           5.0906   -3.7623   19.9436 C.3     1  UNL1        0.0175
     24 C           4.2610   -3.3073   18.7797 C.3     1  UNL1        0.0199
     25 C           4.4222   -1.8218   18.6483 C.3     1  UNL1        0.0855
     26 N           5.3515   -1.3587   19.7309 N.3     1  UNL1       -0.2971
     27 H           4.8742   -0.6881   20.3333 H       1  UNL1        0.1233
     28 C           3.7689   -0.9520   17.6155 C.3     1  UNL1        0.1470
     29 O           3.7518   -1.3787   16.1776 O.3     1  UNL1       -0.3787
     30 H           3.2942   -0.7082   15.6467 H       1  UNL1        0.2108
     31 C           3.1325    0.3445   18.0206 C.ar    1  UNL1        0.0055
     32 C           3.9689    1.5832   18.1471 C.ar    1  UNL1       -0.0019
     33 C           3.3325    2.8797   18.5522 C.ar    1  UNL1       -0.0002
     34 C           1.8598    2.9375   18.8308 C.ar    1  UNL1       -0.0000
     35 C           1.0234    1.6987   18.7043 C.ar    1  UNL1       -0.0002
     36 C           1.6597    0.4023   18.2992 C.ar    1  UNL1       -0.0019
@<TRIPOS>BOND
     1     7     8    2
     2     8     9   am
     3     9     1    1
     4     1     2   ar
     5     2     3   ar
     6     3     4   ar
     7     4    21    1
     8    22    21    1
     9    22    23    1
    10    23    24    1
    11    25    24    1
    12    25    28    1
    13    28    29    1
    14    28    31    1
    15    31    32   ar
    16    32    33   ar
    17    33    34   ar
    18    34    35   ar
    19    35    36   ar
    20    25    26    1
    21     4     5   ar
    22     5     6   ar
    23    11     8    1
    24    11    12    1
    25    12    13    1
    26    13    14    1
    27    14    15   ar
    28    15    16   ar
    29    16    17   ar
    30    17    18   ar
    31    18    19    2
    32    18    20   ar
    33     6     1   ar
    34    20    11    1
    35    26    22    1
    36    20    14   ar
    37    36    31   ar
    38     9    10    1
    39    29    30    1
    40    26    27    1
@<TRIPOS>MOLECULE
*****
 36 40 0 0 0
SMALL
GASTEIGER

@<TRIPOS>ATOM
      1 C           7.8160   -5.7402   23.7583 C.ar    1  UNL1        0.0503
      2 C           7.2256   -5.1057   24.9826 C.ar    1  UNL1        0.0143
      3 C           7.3296   -5.7968   26.3098 C.ar    1  UNL1       -0.0029
      4 C           8.0241   -7.1224   26.4127 C.ar    1  UNL1       -0.0208
      5 C           8.6144   -7.7568   25.1884 C.ar    1  UNL1       -0.0029
      6 C           8.5104   -7.0657   23.8612 C.ar    1  UNL1        0.0143
      7 O           8.8928   -2.9599   23.4264 O.2     1  UNL1       -0.2727
      8 C           8.2504   -3.6589   22.2651 C.2     1  UNL1        0.2469
      9 N           7.7120   -5.0491   22.4311 N.am    1  UNL1       -0.2824
     10 H           7.2903   -5.5079   21.6689 H       1  UNL1        0.1549
     11 C           8.1464   -2.9678   20.9379 C.3     1  UNL1        0.1662
     12 C           9.2570   -2.2534   20.2264 C.3     1  UNL1        0.0400
     13 C           8.7104   -1.7139   18.9379 C.3     1  UNL1        0.0665
     14 C           7.2621   -2.0947   18.8531 C.ar    1  UNL1        0.1229
     15 N           6.2156   -1.8360   17.8100 N.ar    1  UNL1       -0.2306
     16 C           4.8206   -2.3523   18.0031 C.ar    1  UNL1        0.1051
     17 C           4.4720   -3.1273   19.2392 C.ar    1  UNL1        0.0814
     18 C           5.5184   -3.3860   20.2822 C.ar    1  UNL1        0.2637
     19 O           5.1698   -4.1609   21.5183 O.2     1  UNL1       -0.2669
     20 N           6.9135   -2.8697   20.0892 N.ar    1  UNL1       -0.2773
     21 C           8.1281   -7.8136   27.7400 C.3     1  UNL1        0.0420
     22 C           8.2373   -7.0062   28.9994 C.3     1  UNL1        0.0585
     23 C           9.4304   -6.9442   29.9065 C.3     1  UNL1        0.0175
     24 C           9.1030   -6.0188   31.0406 C.3     1  UNL1        0.0199
     25 C           7.7075   -5.5087   30.8346 C.3     1  UNL1        0.0855
     26 N           7.1724   -6.1190   29.5730 N.3     1  UNL1       -0.2971
     27 H           6.9375   -5.3843   28.9057 H       1  UNL1        0.1233
     28 C           6.9755   -4.5558   31.7323 C.3     1  UNL1        0.1470
     29 O           6.0342   -5.0810   32.7755 O.3     1  UNL1       -0.3787
     30 H           5.6473   -4.3385   33.2652 H       1  UNL1        0.2108
     31 C           7.1847   -3.0776   31.5871 C.ar    1  UNL1        0.0055
     32 C           8.2927   -2.3996   32.3372 C.ar    1  UNL1       -0.0019
     33 C           8.5020   -0.9214   32.1919 C.ar    1  UNL1       -0.0002
     34 C           7.6032   -0.1212   31.2965 C.ar    1  UNL1       -0.0000
     35 C           6.4952   -0.7992   30.5463 C.ar    1  UNL1       -0.0002
     36 C           6.2859   -2.2773   30.6916 C.ar    1  UNL1       -0.0019
@<TRIPOS>BOND
     1     7     8    2
     2     8     9   am
     3     9     1    1
     4     1     2   ar
     5     2     3   ar
     6     3     4   ar
     7     4    21    1
     8    22    21    1
     9    22    23    1
    10    23    24    1
    11    25    24    1
    12    25    28    1
    13    28    29    1
    14    28    31    1
    15    31    32   ar
    16    32    33   ar
    17    33    34   ar
    18    34    35   ar
    19    35    36   ar
    20    25    26    1
    21     4     5   ar
    22     5     6   ar
    23    11     8    1
    24    11    12    1
    25    12    13    1
    26    13    14    1
    27    14    15   ar
    28    15    16   ar
    29    16    17   ar
    30    17    18   ar
    31    18    19    2
    32    18    20   ar
    33     6     1   ar
    34    20    11    1
    35    26    22    1
    36    20    14   ar
    37    36    31   ar
    38     9    10    1
    39    29    30    1
    40    26    27    1
@<TRIPOS>MOLECULE
*****
 36 40 0 0 0
SMALL
GASTEIGER

@<TRIPOS>ATOM
      1 C           3.5228    1.4458   31.3270 C.ar    1  UNL1        0.0503
      2 C           4.4946    1.0770   30.2455 C.ar    1  UNL1        0.0143
      3 C           4.0297    0.9724   28.8232 C.ar    1  UNL1       -0.0029
      4 C           2.5930    1.2365   28.4825 C.ar    1  UNL1       -0.0208
      5 C           1.6212    1.6053   29.5640 C.ar    1  UNL1       -0.0029
      6 C           2.0861    1.7099   30.9863 C.ar    1  UNL1        0.0143
      7 O           3.5683   -0.9930   33.0735 O.2     1  UNL1       -0.2727
      8 C           4.0105    0.3309   33.6226 C.2     1  UNL1        0.2469
      9 N           3.9877    1.5504   32.7493 N.am    1  UNL1       -0.2824
     10 H           4.2779    2.4194   33.1096 H       1  UNL1        0.1549
     11 C           4.4754    0.4356   35.0449 C.3     1  UNL1        0.1662
     12 C           5.6105   -0.3281   35.6598 C.3     1  UNL1        0.0400
     13 C           5.7234    0.0866   37.0969 C.3     1  UNL1        0.0665
     14 C           4.6581    1.1066   37.3701 C.ar    1  UNL1        0.1229
     15 N           4.2907    1.8668   38.6099 N.ar    1  UNL1       -0.2306
     16 C           3.1520    2.8427   38.5813 C.ar    1  UNL1        0.1051
     17 C           2.3806    3.0584   37.3131 C.ar    1  UNL1        0.0814
     18 C           2.7480    2.2982   36.0733 C.ar    1  UNL1        0.2637
     19 O           1.9766    2.5138   34.8051 O.2     1  UNL1       -0.2669
     20 N           3.8867    1.3223   36.1019 N.ar    1  UNL1       -0.2773
     21 C           2.1280    1.1319   27.0602 C.3     1  UNL1        0.0420
     22 C           3.0437    0.5749   26.0109 C.3     1  UNL1        0.0585
     23 C           4.0143    1.3610   25.1801 C.3     1  UNL1        0.0175
     24 C           4.7201    0.4059   24.2638 C.3     1  UNL1        0.0199
     25 C           4.1857   -0.9705   24.5282 C.3     1  UNL1        0.0855
     26 N           3.1496   -0.8661   25.6079 N.3     1  UNL1       -0.2971
     27 H           3.4281   -1.4304   26.4107 H       1  UNL1        0.1233
     28 C           4.6124   -2.2302   23.8347 C.3     1  UNL1        0.1470
     29 O           5.4310   -3.2504   24.5691 O.3     1  UNL1       -0.3787
     30 H           5.6197   -3.9980   23.9807 H       1  UNL1        0.2108
     31 C           4.2207   -2.4699   22.4067 C.ar    1  UNL1        0.0055
     32 C           3.4303   -1.4352   21.6620 C.ar    1  UNL1       -0.0019
     33 C           3.0385   -1.6749   20.2341 C.ar    1  UNL1       -0.0002
     34 C           3.4371   -2.9493   19.5508 C.ar    1  UNL1       -0.0000
     35 C           4.2275   -3.9840   20.2955 C.ar    1  UNL1       -0.0002
     36 C           4.6193   -3.7444   21.7234 C.ar    1  UNL1       -0.0019
@<TRIPOS>BOND
     1     7     8    2
     2     8     9   am
     3     9     1    1
     4     1     2   ar
     5     2     3   ar
     6     3     4   ar
     7     4    21    1
     8    22    21    1
     9    22    23    1
    10    23    24    1
    11    25    24    1
    12    25    28    1
    13    28    29    1
    14    28    31    1
    15    31    32   ar
    16    32    33   ar
    17    33    34   ar
    18    34    35   ar
    19    35    36   ar
    20    25    26    1
    21     4     5   ar
    22     5     6   ar
    23    11     8    1
    24    11    12    1
    25    12    13    1
    26    13    14    1
    27    14    15   ar
    28    15    16   ar
    29    16    17   ar
    30    17    18   ar
    31    18    19    2
    32    18    20   ar
    33     6     1   ar
    34    20    11    1
    35    26    22    1
    36    20    14   ar
    37    36    31   ar
    38     9    10    1
    39    29    30    1
    40    26    27    1
