@<TRIPOS>MOLECULE
*****
 30 32 0 0 0
SMALL
GASTEIGER

@<TRIPOS>ATOM
      1 C         -10.2620  -18.8301   19.6112 C.3     1  UNL1        0.1152
      2 N          -9.3537  -18.5487   20.7713 N.am    1  UNL1       -0.2739
      3 C          -8.0369  -19.2583   20.8823 C.2     1  UNL1        0.2352
      4 O          -7.6283  -20.2494   19.8331 O.2     1  UNL1       -0.2743
      5 C          -7.1288  -18.9769   22.0424 C.3     1  UNL1        0.1703
      6 C          -5.6903  -18.6263   21.8011 C.2     1  UNL1        0.2354
      7 O          -4.9534  -17.7647   22.7832 O.2     1  UNL1       -0.2742
      8 N          -4.9889  -19.1374   20.5778 N.am    1  UNL1       -0.2823
      9 H          -5.4725  -19.7030   19.9332 H       1  UNL1        0.1549
     10 C          -3.5505  -18.7869   20.3364 C.ar    1  UNL1        0.0698
     11 C          -3.1610  -18.0228   19.1059 C.ar    1  UNL1        0.0178
     12 C          -1.7226  -17.6723   18.8646 C.ar    1  UNL1        0.0220
     13 C          -0.6738  -18.0859   19.8539 C.ar    1  UNL1        0.0990
     14 N          -1.0632  -18.8500   21.0845 N.ar    1  UNL1       -0.2410
     15 C          -2.5016  -19.2005   21.3258 C.ar    1  UNL1        0.1135
     16 C          -9.7624  -17.5576   21.8205 C.3     1  UNL1        0.1138
     17 C         -10.9116  -17.8641   22.7346 C.ar    1  UNL1       -0.0029
     18 C         -10.7378  -18.8466   23.8546 C.ar    1  UNL1       -0.0026
     19 C         -11.8869  -19.1530   24.7686 C.ar    1  UNL1       -0.0003
     20 C         -13.2100  -18.4768   24.5627 C.ar    1  UNL1       -0.0000
     21 C         -13.3838  -17.4943   23.4427 C.ar    1  UNL1       -0.0003
     22 C         -12.2346  -17.1879   22.5287 C.ar    1  UNL1       -0.0026
     23 C          -9.0219  -16.2602   21.9556 C.3     1  UNL1        0.0968
     24 N          -8.4244  -15.8716   23.2755 N.3     1  UNL1       -0.2689
     25 C          -9.1037  -15.9566   24.6101 C.3     1  UNL1        0.0748
     26 C          -8.1418  -15.4672   25.6519 C.3     1  UNL1        0.0480
     27 C          -6.8680  -15.0798   24.9611 C.3     1  UNL1        0.1278
     28 O          -5.6358  -14.5376   25.6228 O.3     1  UNL1       -0.3830
     29 C          -7.0427  -15.3297   23.4924 C.3     1  UNL1        0.1017
     30 H          -4.9561  -14.3689   24.9517 H       1  UNL1        0.2104
@<TRIPOS>BOND
     1     1     2    1
     2     2     3   am
     3     3     4    2
     4     3     5    1
     5     5     6    1
     6     6     7    2
     7     6     8   am
     8     8    10    1
     9    10    11   ar
    10    11    12   ar
    11    12    13   ar
    12    13    14   ar
    13    14    15   ar
    14     2    16    1
    15    16    23    1
    16    23    24    1
    17    24    25    1
    18    25    26    1
    19    26    27    1
    20    27    28    1
    21    27    29    1
    22    16    17    1
    23    17    18   ar
    24    18    19   ar
    25    19    20   ar
    26    20    21   ar
    27    21    22   ar
    28    15    10   ar
    29    29    24    1
    30    22    17   ar
    31     8     9    1
    32    28    30    1
@<TRIPOS>MOLECULE
*****
 30 32 0 0 0
SMALL
GASTEIGER

@<TRIPOS>ATOM
      1 C         -10.5687  -17.9086   20.0580 C.3     1  UNL1        0.1152
      2 N          -9.5114  -18.4378   20.9812 N.am    1  UNL1       -0.2739
      3 C          -8.3097  -19.1394   20.4213 C.2     1  UNL1        0.2352
      4 O          -8.1651  -19.3118   18.9383 O.2     1  UNL1       -0.2743
      5 C          -7.2525  -19.6685   21.3445 C.3     1  UNL1        0.1703
      6 C          -5.8445  -19.1613   21.2416 C.2     1  UNL1        0.2354
      7 O          -5.3035  -18.2327   22.2881 O.2     1  UNL1       -0.2742
      8 N          -4.9777  -19.5826   20.0923 N.am    1  UNL1       -0.2823
      9 H          -5.3328  -20.1920   19.4054 H       1  UNL1        0.1549
     10 C          -3.5698  -19.0753   19.9893 C.ar    1  UNL1        0.0698
     11 C          -3.2120  -18.0631   18.9418 C.ar    1  UNL1        0.0178
     12 C          -1.8041  -17.5560   18.8389 C.ar    1  UNL1        0.0220
     13 C          -0.7540  -18.0610   19.7836 C.ar    1  UNL1        0.0990
     14 N          -1.1119  -19.0732   20.8311 N.ar    1  UNL1       -0.2410
     15 C          -2.5197  -19.5803   20.9340 C.ar    1  UNL1        0.1135
     16 C          -9.6560  -18.2653   22.4642 C.3     1  UNL1        0.1138
     17 C          -8.9767  -17.1206   23.1559 C.ar    1  UNL1       -0.0029
     18 C          -8.1201  -16.1719   22.3710 C.ar    1  UNL1       -0.0026
     19 C          -7.4408  -15.0273   23.0627 C.ar    1  UNL1       -0.0003
     20 C          -7.6181  -14.8315   24.5393 C.ar    1  UNL1       -0.0000
     21 C          -8.4747  -15.7803   25.3242 C.ar    1  UNL1       -0.0003
     22 C          -9.1540  -16.9249   24.6325 C.ar    1  UNL1       -0.0026
     23 C         -10.4799  -19.2374   23.2555 C.3     1  UNL1        0.0968
     24 N         -11.8310  -18.8335   23.7666 N.3     1  UNL1       -0.2689
     25 C         -12.8715  -18.0711   23.0011 C.3     1  UNL1        0.0748
     26 C         -14.0625  -17.8875   23.8943 C.3     1  UNL1        0.0480
     27 C         -13.7581  -18.5365   25.2119 C.3     1  UNL1        0.1278
     28 O         -14.6723  -18.5913   26.3999 O.3     1  UNL1       -0.3830
     29 C         -12.3790  -19.1212   25.1330 C.3     1  UNL1        0.1017
     30 H         -14.2350  -19.0679   27.1227 H       1  UNL1        0.2104
@<TRIPOS>BOND
     1     1     2    1
     2     2     3   am
     3     3     4    2
     4     3     5    1
     5     5     6    1
     6     6     7    2
     7     6     8   am
     8     8    10    1
     9    10    11   ar
    10    11    12   ar
    11    12    13   ar
    12    13    14   ar
    13    14    15   ar
    14     2    16    1
    15    16    23    1
    16    23    24    1
    17    24    25    1
    18    25    26    1
    19    26    27    1
    20    27    28    1
    21    27    29    1
    22    16    17    1
    23    17    18   ar
    24    18    19   ar
    25    19    20   ar
    26    20    21   ar
    27    21    22   ar
    28    15    10   ar
    29    29    24    1
    30    22    17   ar
    31     8     9    1
    32    28    30    1
@<TRIPOS>MOLECULE
*****
 30 32 0 0 0
SMALL
GASTEIGER

@<TRIPOS>ATOM
      1 C          -9.7618  -20.7516   24.2584 C.3     1  UNL1        0.1152
      2 N          -9.2030  -19.4706   23.7135 N.am    1  UNL1       -0.2739
      3 C          -8.0035  -19.4985   22.8133 C.2     1  UNL1        0.2352
      4 O          -7.3628  -20.8073   22.4579 O.2     1  UNL1       -0.2743
      5 C          -7.4448  -18.2175   22.2684 C.3     1  UNL1        0.1703
      6 C          -5.9768  -18.1008   21.9832 C.2     1  UNL1        0.2354
      7 O          -5.1350  -17.1370   22.7658 O.2     1  UNL1       -0.2742
      8 N          -5.3506  -18.9480   20.9155 N.am    1  UNL1       -0.2823
      9 H          -5.9030  -19.5806   20.4019 H       1  UNL1        0.1549
     10 C          -3.8825  -18.8314   20.6303 C.ar    1  UNL1        0.0698
     11 C          -3.4149  -18.2212   19.3423 C.ar    1  UNL1        0.0178
     12 C          -1.9469  -18.1046   19.0572 C.ar    1  UNL1        0.0220
     13 C          -0.9465  -18.5982   20.0600 C.ar    1  UNL1        0.0990
     14 N          -1.4141  -19.2084   21.3480 N.ar    1  UNL1       -0.2410
     15 C          -2.8821  -19.3250   21.6331 C.ar    1  UNL1        0.1135
     16 C          -9.8438  -18.1617   24.0688 C.3     1  UNL1        0.1138
     17 C          -9.1472  -17.2140   24.9998 C.ar    1  UNL1       -0.0029
     18 C          -9.1054  -17.5029   26.4711 C.ar    1  UNL1       -0.0026
     19 C          -8.4089  -16.5552   27.4020 C.ar    1  UNL1       -0.0003
     20 C          -7.7542  -15.3185   26.8616 C.ar    1  UNL1       -0.0000
     21 C          -7.7960  -15.0296   25.3903 C.ar    1  UNL1       -0.0003
     22 C          -8.4925  -15.9773   24.4594 C.ar    1  UNL1       -0.0026
     23 C         -11.1810  -17.8006   23.4933 C.3     1  UNL1        0.0968
     24 N         -11.3111  -17.5001   22.0295 N.3     1  UNL1       -0.2689
     25 C         -10.8971  -18.4013   20.9042 C.3     1  UNL1        0.0748
     26 C         -11.2082  -17.7038   19.6132 C.3     1  UNL1        0.0480
     27 C         -11.8145  -16.3715   19.9405 C.3     1  UNL1        0.1278
     28 O         -12.2761  -15.3452   18.9488 O.3     1  UNL1       -0.3830
     29 C         -11.8781  -16.2456   21.4339 C.3     1  UNL1        0.1017
     30 H         -12.6281  -14.5745   19.4211 H       1  UNL1        0.2104
@<TRIPOS>BOND
     1     1     2    1
     2     2     3   am
     3     3     4    2
     4     3     5    1
     5     5     6    1
     6     6     7    2
     7     6     8   am
     8     8    10    1
     9    10    11   ar
    10    11    12   ar
    11    12    13   ar
    12    13    14   ar
    13    14    15   ar
    14     2    16    1
    15    16    23    1
    16    23    24    1
    17    24    25    1
    18    25    26    1
    19    26    27    1
    20    27    28    1
    21    27    29    1
    22    16    17    1
    23    17    18   ar
    24    18    19   ar
    25    19    20   ar
    26    20    21   ar
    27    21    22   ar
    28    15    10   ar
    29    29    24    1
    30    22    17   ar
    31     8     9    1
    32    28    30    1
@<TRIPOS>MOLECULE
*****
 30 32 0 0 0
SMALL
GASTEIGER

@<TRIPOS>ATOM
      1 C          -9.9412  -18.5582   25.9780 C.3     1  UNL1        0.1152
      2 N          -9.6991  -18.3610   24.5108 N.am    1  UNL1       -0.2739
      3 C          -9.2799  -19.5211   23.6573 C.2     1  UNL1        0.2352
      4 O          -9.1028  -20.8783   24.2709 O.2     1  UNL1       -0.2743
      5 C          -9.0377  -19.3239   22.1902 C.3     1  UNL1        0.1703
      6 C          -7.6457  -19.0842   21.6853 C.2     1  UNL1        0.2354
      7 O          -7.3722  -17.9408   20.7538 O.2     1  UNL1       -0.2742
      8 N          -6.5272  -19.9880   22.1119 N.am    1  UNL1       -0.2823
      9 H          -6.7067  -20.7385   22.7233 H       1  UNL1        0.1549
     10 C          -5.1351  -19.7484   21.6071 C.ar    1  UNL1        0.0698
     11 C          -4.7789  -20.1015   20.1935 C.ar    1  UNL1        0.0178
     12 C          -3.3869  -19.8619   19.6887 C.ar    1  UNL1        0.0220
     13 C          -2.3511  -19.2691   20.5975 C.ar    1  UNL1        0.0990
     14 N          -2.7074  -18.9160   22.0111 N.ar    1  UNL1       -0.2410
     15 C          -4.0994  -19.1556   22.5159 C.ar    1  UNL1        0.1135
     16 C          -9.8761  -17.0038   23.8972 C.3     1  UNL1        0.1138
     17 C         -10.7287  -16.8391   22.6740 C.ar    1  UNL1       -0.0029
     18 C         -12.0809  -17.4850   22.6097 C.ar    1  UNL1       -0.0026
     19 C         -12.9333  -17.3203   21.3866 C.ar    1  UNL1       -0.0003
     20 C         -12.4335  -16.5097   20.2277 C.ar    1  UNL1       -0.0000
     21 C         -11.0813  -15.8638   20.2919 C.ar    1  UNL1       -0.0003
     22 C         -10.2289  -16.0285   21.5151 C.ar    1  UNL1       -0.0026
     23 C          -9.2007  -15.8112   24.5067 C.3     1  UNL1        0.0968
     24 N          -7.7034  -15.7498   24.5731 N.3     1  UNL1       -0.2689
     25 C          -6.8826  -15.5703   25.8157 C.3     1  UNL1        0.0748
     26 C          -5.4360  -15.5667   25.4192 C.3     1  UNL1        0.0480
     27 C          -5.3627  -15.7439   23.9315 C.3     1  UNL1        0.1278
     28 O          -4.1083  -15.7985   23.1108 O.3     1  UNL1       -0.3830
     29 C          -6.7641  -15.8571   23.4087 C.3     1  UNL1        0.1017
     30 H          -4.3384  -15.9197   22.1763 H       1  UNL1        0.2104
@<TRIPOS>BOND
     1     1     2    1
     2     2     3   am
     3     3     4    2
     4     3     5    1
     5     5     6    1
     6     6     7    2
     7     6     8   am
     8     8    10    1
     9    10    11   ar
    10    11    12   ar
    11    12    13   ar
    12    13    14   ar
    13    14    15   ar
    14     2    16    1
    15    16    23    1
    16    23    24    1
    17    24    25    1
    18    25    26    1
    19    26    27    1
    20    27    28    1
    21    27    29    1
    22    16    17    1
    23    17    18   ar
    24    18    19   ar
    25    19    20   ar
    26    20    21   ar
    27    21    22   ar
    28    15    10   ar
    29    29    24    1
    30    22    17   ar
    31     8     9    1
    32    28    30    1
@<TRIPOS>MOLECULE
*****
 30 32 0 0 0
SMALL
GASTEIGER

@<TRIPOS>ATOM
      1 C          -9.9657  -20.4525   24.9559 C.3     1  UNL1        0.1152
      2 N          -9.6948  -19.2844   24.0546 N.am    1  UNL1       -0.2739
      3 C          -9.4260  -17.9305   24.6418 C.2     1  UNL1        0.2352
      4 O          -9.4280  -17.7447   26.1302 O.2     1  UNL1       -0.2743
      5 C          -9.1551  -16.7625   23.7405 C.3     1  UNL1        0.1703
      6 C          -7.7912  -16.5753   23.1448 C.2     1  UNL1        0.2354
      7 O          -7.6500  -16.1198   21.7226 O.2     1  UNL1       -0.2742
      8 N          -6.5685  -16.8437   23.9712 N.am    1  UNL1       -0.2823
      9 H          -6.6611  -17.1427   24.9046 H       1  UNL1        0.1549
     10 C          -5.2046  -16.6565   23.3755 C.ar    1  UNL1        0.0698
     11 C          -4.3207  -17.8447   23.1371 C.ar    1  UNL1        0.0178
     12 C          -2.9569  -17.6575   22.5414 C.ar    1  UNL1        0.0220
     13 C          -2.4770  -16.2820   22.1841 C.ar    1  UNL1        0.0990
     14 N          -3.3608  -15.0938   22.4224 N.ar    1  UNL1       -0.2410
     15 C          -4.7247  -15.2810   23.0181 C.ar    1  UNL1        0.1135
     16 C          -9.6927  -19.4702   22.5661 C.3     1  UNL1        0.1138
     17 C          -8.3968  -19.6663   21.8366 C.ar    1  UNL1       -0.0029
     18 C          -7.2373  -20.3186   22.5294 C.ar    1  UNL1       -0.0026
     19 C          -5.9415  -20.5146   21.7999 C.ar    1  UNL1       -0.0003
     20 C          -5.8051  -20.0583   20.3775 C.ar    1  UNL1       -0.0000
     21 C          -6.9645  -19.4060   19.6847 C.ar    1  UNL1       -0.0003
     22 C          -8.2604  -19.2099   20.4142 C.ar    1  UNL1       -0.0026
     23 C         -10.9865  -19.4600   21.8073 C.3     1  UNL1        0.0968
     24 N         -11.5847  -18.1584   21.3621 N.3     1  UNL1       -0.2689
     25 C         -12.4480  -17.2552   22.1921 C.3     1  UNL1        0.0748
     26 C         -12.8214  -16.0701   21.3519 C.3     1  UNL1        0.0480
     27 C         -12.1889  -16.2408   20.0025 C.3     1  UNL1        0.1278
     28 O         -12.3010  -15.2882   18.8493 O.3     1  UNL1       -0.3830
     29 C         -11.4245  -17.5315   20.0089 C.3     1  UNL1        0.1017
     30 H         -11.7988  -15.6336   18.0946 H       1  UNL1        0.2104
@<TRIPOS>BOND
     1     1     2    1
     2     2     3   am
     3     3     4    2
     4     3     5    1
     5     5     6    1
     6     6     7    2
     7     6     8   am
     8     8    10    1
     9    10    11   ar
    10    11    12   ar
    11    12    13   ar
    12    13    14   ar
    13    14    15   ar
    14     2    16    1
    15    16    23    1
    16    23    24    1
    17    24    25    1
    18    25    26    1
    19    26    27    1
    20    27    28    1
    21    27    29    1
    22    16    17    1
    23    17    18   ar
    24    18    19   ar
    25    19    20   ar
    26    20    21   ar
    27    21    22   ar
    28    15    10   ar
    29    29    24    1
    30    22    17   ar
    31     8     9    1
    32    28    30    1
@<TRIPOS>MOLECULE
*****
 30 32 0 0 0
SMALL
GASTEIGER

@<TRIPOS>ATOM
      1 C         -10.1261  -15.7586   21.6892 C.3     1  UNL1        0.1152
      2 N          -9.1559  -16.8065   22.1483 N.am    1  UNL1       -0.2739
      3 C          -7.8133  -16.4034   22.6818 C.2     1  UNL1        0.2352
      4 O          -7.4406  -14.9523   22.7563 O.2     1  UNL1       -0.2743
      5 C          -6.8432  -17.4513   23.1409 C.3     1  UNL1        0.1703
      6 C          -5.4443  -17.4671   22.5996 C.2     1  UNL1        0.2354
      7 O          -4.4479  -16.4477   23.0667 O.2     1  UNL1       -0.2742
      8 N          -5.0419  -18.5021   21.5913 N.am    1  UNL1       -0.2823
      9 H          -5.6958  -19.1711   21.2848 H       1  UNL1        0.1549
     10 C          -3.6429  -18.5178   21.0501 C.ar    1  UNL1        0.0698
     11 C          -3.4039  -18.3142   19.5833 C.ar    1  UNL1        0.0178
     12 C          -2.0051  -18.3299   19.0421 C.ar    1  UNL1        0.0220
     13 C          -0.8453  -18.5493   19.9677 C.ar    1  UNL1        0.0990
     14 N          -1.0843  -18.7530   21.4344 N.ar    1  UNL1       -0.2410
     15 C          -2.4831  -18.7373   21.9756 C.ar    1  UNL1        0.1135
     16 C          -9.5286  -18.2576   22.0739 C.3     1  UNL1        0.1138
     17 C          -9.3383  -19.0161   20.7937 C.ar    1  UNL1       -0.0029
     18 C          -7.9702  -19.4855   20.3963 C.ar    1  UNL1       -0.0026
     19 C          -7.7800  -20.2439   19.1163 C.ar    1  UNL1       -0.0003
     20 C          -8.9579  -20.5329   18.2336 C.ar    1  UNL1       -0.0000
     21 C         -10.3260  -20.0635   18.6310 C.ar    1  UNL1       -0.0003
     22 C         -10.5162  -19.3051   19.9111 C.ar    1  UNL1       -0.0026
     23 C         -10.0914  -18.9502   23.2794 C.3     1  UNL1        0.0968
     24 N         -11.4986  -18.6698   23.7167 N.3     1  UNL1       -0.2689
     25 C         -12.5613  -18.0034   22.8941 C.3     1  UNL1        0.0748
     26 C         -13.8097  -17.9284   23.7223 C.3     1  UNL1        0.0480
     27 C         -13.5186  -18.5485   25.0568 C.3     1  UNL1        0.1278
     28 O         -14.4859  -18.6862   26.1949 O.3     1  UNL1       -0.3830
     29 C         -12.0903  -19.0067   25.0532 C.3     1  UNL1        0.1017
     30 H         -14.0465  -19.1222   26.9417 H       1  UNL1        0.2104
@<TRIPOS>BOND
     1     1     2    1
     2     2     3   am
     3     3     4    2
     4     3     5    1
     5     5     6    1
     6     6     7    2
     7     6     8   am
     8     8    10    1
     9    10    11   ar
    10    11    12   ar
    11    12    13   ar
    12    13    14   ar
    13    14    15   ar
    14     2    16    1
    15    16    23    1
    16    23    24    1
    17    24    25    1
    18    25    26    1
    19    26    27    1
    20    27    28    1
    21    27    29    1
    22    16    17    1
    23    17    18   ar
    24    18    19   ar
    25    19    20   ar
    26    20    21   ar
    27    21    22   ar
    28    15    10   ar
    29    29    24    1
    30    22    17   ar
    31     8     9    1
    32    28    30    1
@<TRIPOS>MOLECULE
*****
 30 32 0 0 0
SMALL
GASTEIGER

@<TRIPOS>ATOM
      1 C          -9.6238  -18.7538   25.7289 C.3     1  UNL1        0.1152
      2 N          -9.2087  -18.4543   24.3189 N.am    1  UNL1       -0.2739
      3 C          -9.0810  -19.5678   23.3221 C.2     1  UNL1        0.2352
      4 O          -9.3683  -20.9809   23.7352 O.2     1  UNL1       -0.2743
      5 C          -8.6659  -19.2683   21.9121 C.3     1  UNL1        0.1703
      6 C          -7.2300  -18.9654   21.6012 C.2     1  UNL1        0.2354
      7 O          -6.8880  -17.9576   20.5442 O.2     1  UNL1       -0.2742
      8 N          -6.1363  -19.6704   22.3474 N.am    1  UNL1       -0.2823
      9 H          -6.3608  -20.3318   23.0411 H       1  UNL1        0.1549
     10 C          -4.7004  -19.3675   22.0365 C.ar    1  UNL1        0.0698
     11 C          -4.0672  -19.9271   20.7972 C.ar    1  UNL1        0.0178
     12 C          -2.6314  -19.6242   20.4863 C.ar    1  UNL1        0.0220
     13 C          -1.8288  -18.7618   21.4148 C.ar    1  UNL1        0.0990
     14 N          -2.4620  -18.2022   22.6541 N.ar    1  UNL1       -0.2410
     15 C          -3.8978  -18.5051   22.9649 C.ar    1  UNL1        0.1135
     16 C          -8.9214  -17.0412   23.9057 C.3     1  UNL1        0.1138
     17 C          -7.7281  -16.3243   24.4645 C.ar    1  UNL1       -0.0029
     18 C          -7.7410  -15.8401   25.8841 C.ar    1  UNL1       -0.0026
     19 C          -6.5477  -15.1232   26.4428 C.ar    1  UNL1       -0.0003
     20 C          -5.3416  -14.8906   25.5820 C.ar    1  UNL1       -0.0000
     21 C          -5.3287  -15.3749   24.1624 C.ar    1  UNL1       -0.0003
     22 C          -6.5219  -16.0917   23.6037 C.ar    1  UNL1       -0.0026
     23 C          -9.8273  -16.3450   22.9338 C.3     1  UNL1        0.0968
     24 N         -11.2085  -16.8744   22.6846 N.3     1  UNL1       -0.2689
     25 C         -11.8676  -17.0225   21.3453 C.3     1  UNL1        0.0748
     26 C         -13.2395  -17.5882   21.5638 C.3     1  UNL1        0.0480
     27 C         -13.4284  -17.7897   23.0381 C.3     1  UNL1        0.1278
     28 O         -14.6568  -18.3363   23.7031 O.3     1  UNL1       -0.3830
     29 C         -12.1731  -17.3485   23.7308 C.3     1  UNL1        0.1017
     30 H         -14.5197  -18.3639   24.6630 H       1  UNL1        0.2104
@<TRIPOS>BOND
     1     1     2    1
     2     2     3   am
     3     3     4    2
     4     3     5    1
     5     5     6    1
     6     6     7    2
     7     6     8   am
     8     8    10    1
     9    10    11   ar
    10    11    12   ar
    11    12    13   ar
    12    13    14   ar
    13    14    15   ar
    14     2    16    1
    15    16    23    1
    16    23    24    1
    17    24    25    1
    18    25    26    1
    19    26    27    1
    20    27    28    1
    21    27    29    1
    22    16    17    1
    23    17    18   ar
    24    18    19   ar
    25    19    20   ar
    26    20    21   ar
    27    21    22   ar
    28    15    10   ar
    29    29    24    1
    30    22    17   ar
    31     8     9    1
    32    28    30    1
@<TRIPOS>MOLECULE
*****
 30 32 0 0 0
SMALL
GASTEIGER

@<TRIPOS>ATOM
      1 C          -3.3966  -17.7890   25.1080 C.3     1  UNL1        0.1152
      2 N          -4.2566  -17.1270   24.0725 N.am    1  UNL1       -0.2739
      3 C          -5.3560  -16.1974   24.4935 C.2     1  UNL1        0.2352
      4 O          -5.5955  -15.9298   25.9499 O.2     1  UNL1       -0.2743
      5 C          -6.2159  -15.5354   23.4580 C.3     1  UNL1        0.1703
      6 C          -7.6264  -15.9999   23.2459 C.2     1  UNL1        0.2354
      7 O          -8.5695  -16.0891   24.4089 O.2     1  UNL1       -0.2742
      8 N          -8.0937  -16.3751   21.8709 N.am    1  UNL1       -0.2823
      9 H          -7.4747  -16.3166   21.1076 H       1  UNL1        0.1549
     10 C          -9.5042  -16.8396   21.6588 C.ar    1  UNL1        0.0698
     11 C          -9.8702  -18.2702   21.9219 C.ar    1  UNL1        0.0178
     12 C         -11.2807  -18.7346   21.7098 C.ar    1  UNL1        0.0220
     13 C         -12.3250  -17.7684   21.2346 C.ar    1  UNL1        0.0990
     14 N         -11.9589  -16.3378   20.9715 N.ar    1  UNL1       -0.2410
     15 C         -10.5485  -15.8734   21.1836 C.ar    1  UNL1        0.1135
     16 C          -4.0171  -17.3945   22.6162 C.3     1  UNL1        0.1138
     17 C          -4.6359  -18.5945   21.9624 C.ar    1  UNL1       -0.0029
     18 C          -6.0601  -18.9595   22.2595 C.ar    1  UNL1       -0.0026
     19 C          -6.6788  -20.1594   21.6058 C.ar    1  UNL1       -0.0003
     20 C          -5.8733  -20.9942   20.6549 C.ar    1  UNL1       -0.0000
     21 C          -4.4491  -20.6292   20.3578 C.ar    1  UNL1       -0.0003
     22 C          -3.8304  -19.4293   21.0116 C.ar    1  UNL1       -0.0026
     23 C          -3.1589  -16.4622   21.8135 C.3     1  UNL1        0.0968
     24 N          -2.2296  -17.0088   20.7707 N.3     1  UNL1       -0.2689
     25 C          -0.9068  -17.6680   21.0268 C.3     1  UNL1        0.0748
     26 C          -0.3196  -18.0588   19.7030 C.3     1  UNL1        0.0480
     27 C          -1.2794  -17.6411   18.6286 C.3     1  UNL1        0.1278
     28 O          -1.0918  -17.8377   17.1535 O.3     1  UNL1       -0.3830
     29 C          -2.4599  -16.9921   19.2885 C.3     1  UNL1        0.1017
     30 H          -1.8579  -17.4782   16.6794 H       1  UNL1        0.2104
@<TRIPOS>BOND
     1     1     2    1
     2     2     3   am
     3     3     4    2
     4     3     5    1
     5     5     6    1
     6     6     7    2
     7     6     8   am
     8     8    10    1
     9    10    11   ar
    10    11    12   ar
    11    12    13   ar
    12    13    14   ar
    13    14    15   ar
    14     2    16    1
    15    16    23    1
    16    23    24    1
    17    24    25    1
    18    25    26    1
    19    26    27    1
    20    27    28    1
    21    27    29    1
    22    16    17    1
    23    17    18   ar
    24    18    19   ar
    25    19    20   ar
    26    20    21   ar
    27    21    22   ar
    28    15    10   ar
    29    29    24    1
    30    22    17   ar
    31     8     9    1
    32    28    30    1
@<TRIPOS>MOLECULE
*****
 30 32 0 0 0
SMALL
GASTEIGER

@<TRIPOS>ATOM
      1 C          -8.0147  -14.9944   23.0766 C.3     1  UNL1        0.1152
      2 N          -7.2253  -16.2515   23.2928 N.am    1  UNL1       -0.2739
      3 C          -5.7866  -16.1715   23.7093 C.2     1  UNL1        0.2352
      4 O          -5.1371  -14.8343   23.9097 O.2     1  UNL1       -0.2743
      5 C          -4.9973  -17.4285   23.9254 C.3     1  UNL1        0.1703
      6 C          -4.0037  -17.8768   22.8950 C.2     1  UNL1        0.2354
      7 O          -3.7165  -19.3381   22.7158 O.2     1  UNL1       -0.2742
      8 N          -3.2972  -16.8638   22.0438 N.am    1  UNL1       -0.2823
      9 H          -3.4857  -15.9046   22.1614 H       1  UNL1        0.1549
     10 C          -2.3035  -17.3120   21.0133 C.ar    1  UNL1        0.0698
     11 C          -2.7723  -17.7289   19.6508 C.ar    1  UNL1        0.0178
     12 C          -1.7787  -18.1771   18.6204 C.ar    1  UNL1        0.0220
     13 C          -0.3162  -18.2084   18.9526 C.ar    1  UNL1        0.0990
     14 N           0.1526  -17.7916   20.3151 N.ar    1  UNL1       -0.2410
     15 C          -0.8411  -17.3434   21.3454 C.ar    1  UNL1        0.1135
     16 C          -7.8748  -17.5887   23.0924 C.3     1  UNL1        0.1138
     17 C          -7.2758  -18.5778   22.1369 C.ar    1  UNL1       -0.0029
     18 C          -6.8371  -18.1324   20.7734 C.ar    1  UNL1       -0.0026
     19 C          -6.2382  -19.1215   19.8180 C.ar    1  UNL1       -0.0003
     20 C          -6.0778  -20.5560   20.2261 C.ar    1  UNL1       -0.0000
     21 C          -6.5165  -21.0014   21.5895 C.ar    1  UNL1       -0.0003
     22 C          -7.1155  -20.0123   22.5450 C.ar    1  UNL1       -0.0026
     23 C          -9.1233  -17.9368   23.8475 C.3     1  UNL1        0.0968
     24 N         -10.4660  -17.7382   23.2089 N.3     1  UNL1       -0.2689
     25 C         -11.7820  -18.1996   23.7614 C.3     1  UNL1        0.0748
     26 C         -12.8578  -17.7899   22.7997 C.3     1  UNL1        0.0480
     27 C         -12.2066  -17.0753   21.6528 C.3     1  UNL1        0.1278
     28 O         -12.9101  -16.4946   20.4621 O.3     1  UNL1       -0.3830
     29 C         -10.7284  -17.0433   21.9057 C.3     1  UNL1        0.1017
     30 H         -12.2594  -16.0881   19.8686 H       1  UNL1        0.2104
@<TRIPOS>BOND
     1     1     2    1
     2     2     3   am
     3     3     4    2
     4     3     5    1
     5     5     6    1
     6     6     7    2
     7     6     8   am
     8     8    10    1
     9    10    11   ar
    10    11    12   ar
    11    12    13   ar
    12    13    14   ar
    13    14    15   ar
    14     2    16    1
    15    16    23    1
    16    23    24    1
    17    24    25    1
    18    25    26    1
    19    26    27    1
    20    27    28    1
    21    27    29    1
    22    16    17    1
    23    17    18   ar
    24    18    19   ar
    25    19    20   ar
    26    20    21   ar
    27    21    22   ar
    28    15    10   ar
    29    29    24    1
    30    22    17   ar
    31     8     9    1
    32    28    30    1
