@<TRIPOS>MOLECULE
*****
 31 34 0 0 0
SMALL
GASTEIGER

@<TRIPOS>ATOM
      1 C          -9.5128  -17.6575   24.0899 C.3     1  UNL1        0.0000
      2 C          -9.2207  -16.4082   24.8671 C.3     1  UNL1        0.0000
      3 C          -7.7854  -16.0412   24.6322 C.3     1  UNL1        0.0000
      4 C          -7.1905  -17.0636   23.7099 C.3     1  UNL1        0.0003
      5 C          -5.8145  -17.2141   23.1320 C.3     1  UNL1        0.0046
      6 C          -4.7469  -16.2151   23.4671 C.3     1  UNL1        0.0254
      7 C          -3.3709  -16.3656   22.8892 C.2     1  UNL1       -0.0345
      8 C          -3.0625  -17.5150   21.9760 C.2     1  UNL1       -0.0467
      9 C          -1.6865  -17.6654   21.3981 C.3     1  UNL1        0.0509
     10 C          -1.3782  -18.8148   20.4850 C.3     1  UNL1        0.1145
     11 O          -0.0022  -18.9653   19.9070 O.3     1  UNL1       -0.3841
     12 C          -2.4458  -19.8137   20.1498 C.3     1  UNL1        0.0299
     13 C          -3.8217  -19.6633   20.7278 C.3     1  UNL1        0.0062
     14 C          -4.1301  -18.5139   21.6409 C.3     1  UNL1        0.0150
     15 C          -5.1977  -19.5129   21.3057 C.3     1  UNL1        0.0040
     16 C          -5.5061  -18.3634   22.2189 C.3     1  UNL1        0.0038
     17 C          -6.5737  -19.3624   21.8837 C.3     1  UNL1        0.0003
     18 C          -7.9497  -19.2120   22.4616 C.3     1  UNL1        0.0000
     19 C          -8.2581  -18.0625   23.3748 C.3     1  UNL1        0.0000
     20 C          -9.4215  -18.9776   23.1314 C.3     1  UNL1        0.0000
     21 H           0.0272  -19.7539   19.3430 H       1  UNL1        0.2103
     22 C         -10.8287  -18.3756   24.0372 C.3     1  UNL1        0.0000
     23 C         -10.9314  -19.7901   24.5257 C.3     1  UNL1        0.0000
     24 C         -12.0420  -17.6791   23.4961 C.3     1  UNL1        0.0000
     25 C         -12.5718  -18.0404   22.1401 C.3     1  UNL1        0.0000
     26 C         -11.7030  -17.8794   20.9280 C.3     1  UNL1        0.0000
     27 C         -11.2835  -16.5099   20.4825 C.3     1  UNL1        0.0000
     28 C         -10.1441  -15.8147   21.1670 C.3     1  UNL1        0.0000
     29 C         -12.0033  -15.8356   19.3523 C.3     1  UNL1        0.0000
     30 C          -9.9309  -19.0781   19.4540 C.3     1  UNL1        0.0000
     31 C         -11.2535  -19.0878   20.1614 C.3     1  UNL1        0.0000
@<TRIPOS>BOND
     1    30    31    1
     2    26    31    1
     3    26    25    1
     4    25    24    1
     5    24    22    1
     6    22    23    1
     7    22     1    1
     8     1     2    1
     9     2     3    1
    10     4     3    1
    11     4     5    1
    12     5     6    1
    13     6     7    1
    14     7     8    2
    15     8     9    1
    16     9    10    1
    17    10    11    1
    18    10    12    1
    19    12    13    1
    20    13    14    1
    21    14    15    1
    22    14    16    1
    23    16    17    1
    24    17    18    1
    25    18    19    1
    26    19    20    1
    27    26    27    1
    28    27    28    1
    29    27    29    1
    30    19     1    1
    31    19     4    1
    32    16     5    1
    33    14     8    1
    34    11    21    1
@<TRIPOS>MOLECULE
*****
 31 34 0 0 0
SMALL
GASTEIGER

@<TRIPOS>ATOM
      1 C         -10.9004  -18.2528   20.3178 C.3     1  UNL1        0.0000
      2 C         -10.9581  -19.3933   19.3452 C.3     1  UNL1        0.0000
      3 C          -9.5882  -19.9981   19.2583 C.3     1  UNL1        0.0000
      4 C          -8.6839  -19.2315   20.1771 C.3     1  UNL1        0.0003
      5 C          -7.2267  -19.3762   20.5022 C.3     1  UNL1        0.0046
      6 C          -6.4157  -20.4548   19.8474 C.3     1  UNL1        0.0254
      7 C          -4.9585  -20.5996   20.1725 C.2     1  UNL1       -0.0345
      8 C          -4.3123  -19.6656   21.1524 C.2     1  UNL1       -0.0467
      9 C          -2.8551  -19.8104   21.4775 C.3     1  UNL1        0.0509
     10 C          -2.2090  -18.8765   22.4574 C.3     1  UNL1        0.1145
     11 O          -0.7517  -19.0212   22.7825 O.3     1  UNL1       -0.3841
     12 C          -3.0200  -17.7978   23.1122 C.3     1  UNL1        0.0299
     13 C          -4.4771  -17.6531   22.7872 C.3     1  UNL1        0.0062
     14 C          -5.1233  -18.5870   21.8073 C.3     1  UNL1        0.0150
     15 C          -5.9343  -17.5083   22.4621 C.3     1  UNL1        0.0040
     16 C          -6.5805  -18.4423   21.4821 C.3     1  UNL1        0.0038
     17 C          -7.3915  -17.3636   22.1370 C.3     1  UNL1        0.0003
     18 C          -8.8486  -17.2189   21.8119 C.3     1  UNL1        0.0000
     19 C          -9.4949  -18.1528   20.8320 C.3     1  UNL1        0.0000
     20 C         -10.4283  -17.1277   21.4045 C.3     1  UNL1        0.0000
     21 H          -0.4957  -18.3440   23.4280 H       1  UNL1        0.2103
     22 C         -12.0470  -17.3678   20.7077 C.3     1  UNL1        0.0000
     23 C         -12.1959  -16.0132   20.0808 C.3     1  UNL1        0.0000
     24 C         -13.0447  -17.8374   21.7246 C.3     1  UNL1        0.0000
     25 C         -12.9564  -17.3527   23.1414 C.3     1  UNL1        0.0000
     26 C         -12.5855  -18.3060   24.2385 C.3     1  UNL1        0.0000
     27 C         -11.2259  -18.9393   24.2540 C.3     1  UNL1        0.0000
     28 C         -10.1110  -18.3032   25.0301 C.3     1  UNL1        0.0000
     29 C         -10.9811  -20.2088   23.4935 C.3     1  UNL1        0.0000
     30 C         -15.0449  -18.5888   25.0269 C.3     1  UNL1        0.0000
     31 C         -13.5743  -18.6260   25.3201 C.3     1  UNL1        0.0000
@<TRIPOS>BOND
     1    30    31    1
     2    26    31    1
     3    26    25    1
     4    25    24    1
     5    24    22    1
     6    22    23    1
     7    22     1    1
     8     1     2    1
     9     2     3    1
    10     4     3    1
    11     4     5    1
    12     5     6    1
    13     6     7    1
    14     7     8    2
    15     8     9    1
    16     9    10    1
    17    10    11    1
    18    10    12    1
    19    12    13    1
    20    13    14    1
    21    14    15    1
    22    14    16    1
    23    16    17    1
    24    17    18    1
    25    18    19    1
    26    19    20    1
    27    26    27    1
    28    27    28    1
    29    27    29    1
    30    19     1    1
    31    19     4    1
    32    16     5    1
    33    14     8    1
    34    11    21    1
@<TRIPOS>MOLECULE
*****
 31 34 0 0 0
SMALL
GASTEIGER

@<TRIPOS>ATOM
      1 C          -9.1525  -18.4685   23.0061 C.3     1  UNL1        0.0000
      2 C          -9.5298  -19.6592   22.1755 C.3     1  UNL1        0.0000
      3 C          -8.3065  -20.1158   21.4373 C.3     1  UNL1        0.0000
      4 C          -7.1732  -19.2073   21.8117 C.3     1  UNL1        0.0003
      5 C          -5.7325  -19.1756   21.3950 C.3     1  UNL1        0.0046
      6 C          -5.2096  -20.1936   20.4254 C.3     1  UNL1        0.0254
      7 C          -3.7691  -20.1619   20.0087 C.2     1  UNL1       -0.0345
      8 C          -2.8513  -19.1121   20.5615 C.2     1  UNL1       -0.0467
      9 C          -1.4107  -19.0804   20.1448 C.3     1  UNL1        0.0509
     10 C          -0.4930  -18.0306   20.6977 C.3     1  UNL1        0.1145
     11 O           0.9476  -17.9988   20.2810 O.3     1  UNL1       -0.3841
     12 C          -1.0159  -17.0125   21.6673 C.3     1  UNL1        0.0299
     13 C          -2.4565  -17.0442   22.0840 C.3     1  UNL1        0.0062
     14 C          -3.3742  -18.0940   21.5311 C.3     1  UNL1        0.0150
     15 C          -3.8971  -17.0759   22.5007 C.3     1  UNL1        0.0040
     16 C          -4.8148  -18.1258   21.9478 C.3     1  UNL1        0.0038
     17 C          -5.3377  -17.1077   22.9174 C.3     1  UNL1        0.0003
     18 C          -6.7783  -17.1394   23.3341 C.3     1  UNL1        0.0000
     19 C          -7.6961  -18.1893   22.7812 C.3     1  UNL1        0.0000
     20 C          -8.3583  -17.2420   23.7373 C.3     1  UNL1        0.0000
     21 H           1.3971  -17.2641   20.7271 H       1  UNL1        0.2103
     22 C         -10.0706  -17.6932   23.9039 C.3     1  UNL1        0.0000
     23 C         -10.6194  -18.3303   25.1461 C.3     1  UNL1        0.0000
     24 C         -10.4400  -16.2808   23.5595 C.3     1  UNL1        0.0000
     25 C         -11.6671  -16.0045   22.7423 C.3     1  UNL1        0.0000
     26 C         -12.1496  -17.0181   21.7475 C.3     1  UNL1        0.0000
     27 C         -11.6097  -17.0117   20.3481 C.3     1  UNL1        0.0000
     28 C         -11.5740  -15.7336   19.5638 C.3     1  UNL1        0.0000
     29 C         -11.1054  -18.2834   19.7329 C.3     1  UNL1        0.0000
     30 C         -13.7454  -18.0168   23.5380 C.3     1  UNL1        0.0000
     31 C         -13.1721  -18.0383   22.1521 C.3     1  UNL1        0.0000
@<TRIPOS>BOND
     1    30    31    1
     2    26    31    1
     3    26    25    1
     4    25    24    1
     5    24    22    1
     6    22    23    1
     7    22     1    1
     8     1     2    1
     9     2     3    1
    10     4     3    1
    11     4     5    1
    12     5     6    1
    13     6     7    1
    14     7     8    2
    15     8     9    1
    16     9    10    1
    17    10    11    1
    18    10    12    1
    19    12    13    1
    20    13    14    1
    21    14    15    1
    22    14    16    1
    23    16    17    1
    24    17    18    1
    25    18    19    1
    26    19    20    1
    27    26    27    1
    28    27    28    1
    29    27    29    1
    30    19     1    1
    31    19     4    1
    32    16     5    1
    33    14     8    1
    34    11    21    1
@<TRIPOS>MOLECULE
*****
 31 34 0 0 0
SMALL
GASTEIGER

@<TRIPOS>ATOM
      1 C         -10.7134  -19.1315   22.9149 C.3     1  UNL1        0.0000
      2 C         -11.0240  -20.1304   21.8398 C.3     1  UNL1        0.0000
      3 C          -9.7457  -20.4547   21.1252 C.3     1  UNL1        0.0000
      4 C          -8.6452  -19.6564   21.7585 C.3     1  UNL1        0.0003
      5 C          -7.1756  -19.5684   21.4709 C.3     1  UNL1        0.0046
      6 C          -6.5775  -20.3863   20.3648 C.3     1  UNL1        0.0254
      7 C          -5.1080  -20.2983   20.0772 C.2     1  UNL1       -0.0345
      8 C          -4.2364  -19.3925   20.8958 C.2     1  UNL1       -0.0467
      9 C          -2.7669  -19.3046   20.6082 C.3     1  UNL1        0.0509
     10 C          -1.8955  -18.3988   21.4268 C.3     1  UNL1        0.1145
     11 O          -0.4259  -18.3108   21.1392 O.3     1  UNL1       -0.3841
     12 C          -2.4935  -17.5810   22.5329 C.3     1  UNL1        0.0299
     13 C          -3.9630  -17.6689   22.8205 C.3     1  UNL1        0.0062
     14 C          -4.8345  -18.5747   22.0019 C.3     1  UNL1        0.0150
     15 C          -5.4325  -17.7569   23.1081 C.3     1  UNL1        0.0040
     16 C          -6.3041  -18.6627   22.2895 C.3     1  UNL1        0.0038
     17 C          -6.9021  -17.8448   23.3956 C.3     1  UNL1        0.0003
     18 C          -8.3716  -17.9328   23.6832 C.3     1  UNL1        0.0000
     19 C          -9.2432  -18.8386   22.8646 C.3     1  UNL1        0.0000
     20 C          -9.9792  -18.0852   23.9327 C.3     1  UNL1        0.0000
     21 H          -0.0128  -17.6851   21.7547 H       1  UNL1        0.2103
     22 C         -11.6999  -18.5310   23.8721 C.3     1  UNL1        0.0000
     23 C         -11.7772  -19.0338   25.2833 C.3     1  UNL1        0.0000
     24 C         -12.6091  -17.4278   23.4182 C.3     1  UNL1        0.0000
     25 C         -12.7446  -17.1213   21.9561 C.3     1  UNL1        0.0000
     26 C         -11.6339  -16.4214   21.2305 C.3     1  UNL1        0.0000
     27 C         -11.4713  -16.6060   19.7508 C.3     1  UNL1        0.0000
     28 C         -11.0602  -17.9401   19.2021 C.3     1  UNL1        0.0000
     29 C         -11.7198  -15.4564   18.8198 C.3     1  UNL1        0.0000
     30 C          -9.2652  -15.3951   21.5241 C.3     1  UNL1        0.0000
     31 C         -10.6858  -15.5368   21.9845 C.3     1  UNL1        0.0000
@<TRIPOS>BOND
     1    30    31    1
     2    26    31    1
     3    26    25    1
     4    25    24    1
     5    24    22    1
     6    22    23    1
     7    22     1    1
     8     1     2    1
     9     2     3    1
    10     4     3    1
    11     4     5    1
    12     5     6    1
    13     6     7    1
    14     7     8    2
    15     8     9    1
    16     9    10    1
    17    10    11    1
    18    10    12    1
    19    12    13    1
    20    13    14    1
    21    14    15    1
    22    14    16    1
    23    16    17    1
    24    17    18    1
    25    18    19    1
    26    19    20    1
    27    26    27    1
    28    27    28    1
    29    27    29    1
    30    19     1    1
    31    19     4    1
    32    16     5    1
    33    14     8    1
    34    11    21    1
@<TRIPOS>MOLECULE
*****
 31 34 0 0 0
SMALL
GASTEIGER

@<TRIPOS>ATOM
      1 C           4.1391   -2.9277   20.7186 C.3     1  UNL1        0.0000
      2 C           4.8367   -3.0372   22.0420 C.3     1  UNL1        0.0000
      3 C           4.2561   -2.0020   22.9591 C.3     1  UNL1        0.0000
      4 C           3.1997   -1.2527   22.2025 C.3     1  UNL1        0.0003
      5 C           2.2941   -0.1232   22.5956 C.3     1  UNL1        0.0046
      6 C           2.3664    0.4489   23.9803 C.3     1  UNL1        0.0254
      7 C           1.4610    1.5783   24.3734 C.2     1  UNL1       -0.0345
      8 C           0.4831    2.1356   23.3817 C.2     1  UNL1       -0.0467
      9 C          -0.4224    3.2650   23.7748 C.3     1  UNL1        0.0509
     10 C          -1.4001    3.8222   22.7832 C.3     1  UNL1        0.1145
     11 O          -2.3057    4.9517   23.1762 O.3     1  UNL1       -0.3841
     12 C          -1.4724    3.2501   21.3985 C.3     1  UNL1        0.0299
     13 C          -0.5670    2.1207   21.0054 C.3     1  UNL1        0.0062
     14 C           0.4108    1.5635   21.9970 C.3     1  UNL1        0.0150
     15 C           0.3385    0.9913   20.6123 C.3     1  UNL1        0.0040
     16 C           1.3164    0.4340   21.6040 C.3     1  UNL1        0.0038
     17 C           1.2441   -0.1381   20.2192 C.3     1  UNL1        0.0003
     18 C           2.1495   -1.2675   19.8262 C.3     1  UNL1        0.0000
     19 C           3.1274   -1.8248   20.8178 C.3     1  UNL1        0.0000
     20 C           3.1691   -2.4955   19.4768 C.3     1  UNL1        0.0000
     21 H          -2.8705    5.1899   22.4245 H       1  UNL1        0.2103
     22 C           4.4064   -3.7728   19.5085 C.3     1  UNL1        0.0000
     23 C           3.6844   -5.0753   19.3288 C.3     1  UNL1        0.0000
     24 C           5.3957   -3.3154   18.4780 C.3     1  UNL1        0.0000
     25 C           6.3931   -2.2478   18.8177 C.3     1  UNL1        0.0000
     26 C           6.0158   -0.8015   18.6921 C.3     1  UNL1        0.0000
     27 C           6.0180    0.0822   19.9041 C.3     1  UNL1        0.0000
     28 C           6.9907   -0.1733   21.0170 C.3     1  UNL1        0.0000
     29 C           5.0474    1.2216   20.0034 C.3     1  UNL1        0.0000
     30 C           4.2532   -0.4544   16.8152 C.3     1  UNL1        0.0000
     31 C           5.6362   -0.2388   17.3545 C.3     1  UNL1        0.0000
@<TRIPOS>BOND
     1    30    31    1
     2    26    31    1
     3    26    25    1
     4    25    24    1
     5    24    22    1
     6    22    23    1
     7    22     1    1
     8     1     2    1
     9     2     3    1
    10     4     3    1
    11     4     5    1
    12     5     6    1
    13     6     7    1
    14     7     8    2
    15     8     9    1
    16     9    10    1
    17    10    11    1
    18    10    12    1
    19    12    13    1
    20    13    14    1
    21    14    15    1
    22    14    16    1
    23    16    17    1
    24    17    18    1
    25    18    19    1
    26    19    20    1
    27    26    27    1
    28    27    28    1
    29    27    29    1
    30    19     1    1
    31    19     4    1
    32    16     5    1
    33    14     8    1
    34    11    21    1
@<TRIPOS>MOLECULE
*****
 31 34 0 0 0
SMALL
GASTEIGER

@<TRIPOS>ATOM
      1 C          -9.9337  -19.5415   21.7397 C.3     1  UNL1        0.0000
      2 C         -10.2258  -19.7919   20.2898 C.3     1  UNL1        0.0000
      3 C          -8.9340  -19.6960   19.5336 C.3     1  UNL1        0.0000
      4 C          -7.8436  -19.3864   20.5159 C.3     1  UNL1        0.0003
      5 C          -6.3678  -19.1791   20.3451 C.3     1  UNL1        0.0046
      6 C          -5.7499  -19.2746   18.9816 C.3     1  UNL1        0.0254
      7 C          -4.2742  -19.0673   18.8108 C.2     1  UNL1       -0.0345
      8 C          -3.4163  -18.7645   20.0035 C.2     1  UNL1       -0.0467
      9 C          -1.9405  -18.5572   19.8327 C.3     1  UNL1        0.0509
     10 C          -1.0827  -18.2544   21.0253 C.3     1  UNL1        0.1145
     11 O           0.3931  -18.0471   20.8545 O.3     1  UNL1       -0.3841
     12 C          -1.7007  -18.1589   22.3888 C.3     1  UNL1        0.0299
     13 C          -3.1764  -18.3662   22.5596 C.3     1  UNL1        0.0062
     14 C          -4.0342  -18.6690   21.3670 C.3     1  UNL1        0.0150
     15 C          -4.6521  -18.5735   22.7304 C.3     1  UNL1        0.0040
     16 C          -5.5100  -18.8763   21.5378 C.3     1  UNL1        0.0038
     17 C          -6.1279  -18.7808   22.9012 C.3     1  UNL1        0.0003
     18 C          -7.6036  -18.9881   23.0721 C.3     1  UNL1        0.0000
     19 C          -8.4615  -19.2909   21.8794 C.3     1  UNL1        0.0000
     20 C          -9.2168  -19.2267   23.1738 C.3     1  UNL1        0.0000
     21 H           0.7956  -17.8622   21.7174 H       1  UNL1        0.2103
     22 C         -10.9378  -19.5417   22.8541 C.3     1  UNL1        0.0000
     23 C         -10.7401  -20.4364   24.0417 C.3     1  UNL1        0.0000
     24 C         -12.1396  -18.6471   22.7808 C.3     1  UNL1        0.0000
     25 C         -12.0097  -17.1884   23.1055 C.3     1  UNL1        0.0000
     26 C         -11.0560  -16.3293   22.3293 C.3     1  UNL1        0.0000
     27 C          -9.7067  -16.0038   22.8980 C.3     1  UNL1        0.0000
     28 C          -9.4961  -16.0150   24.3831 C.3     1  UNL1        0.0000
     29 C          -8.5679  -15.6668   21.9816 C.3     1  UNL1        0.0000
     30 C         -11.4274  -16.6951   19.7841 C.3     1  UNL1        0.0000
     31 C         -11.4515  -15.7958   20.9843 C.3     1  UNL1        0.0000
@<TRIPOS>BOND
     1    30    31    1
     2    26    31    1
     3    26    25    1
     4    25    24    1
     5    24    22    1
     6    22    23    1
     7    22     1    1
     8     1     2    1
     9     2     3    1
    10     4     3    1
    11     4     5    1
    12     5     6    1
    13     6     7    1
    14     7     8    2
    15     8     9    1
    16     9    10    1
    17    10    11    1
    18    10    12    1
    19    12    13    1
    20    13    14    1
    21    14    15    1
    22    14    16    1
    23    16    17    1
    24    17    18    1
    25    18    19    1
    26    19    20    1
    27    26    27    1
    28    27    28    1
    29    27    29    1
    30    19     1    1
    31    19     4    1
    32    16     5    1
    33    14     8    1
    34    11    21    1
@<TRIPOS>MOLECULE
*****
 31 34 0 0 0
SMALL
GASTEIGER

@<TRIPOS>ATOM
      1 C           7.4565   -1.1310   20.4291 C.3     1  UNL1        0.0000
      2 C           8.2580   -1.8214   19.3656 C.3     1  UNL1        0.0000
      3 C           8.6337   -3.1804   19.8773 C.3     1  UNL1        0.0000
      4 C           8.0645   -3.3300   21.2569 C.3     1  UNL1        0.0003
      5 C           8.1146   -4.4559   22.2468 C.3     1  UNL1        0.0046
      6 C           8.8421   -5.7225   21.9058 C.3     1  UNL1        0.0254
      7 C           8.8923   -6.8484   22.8956 C.2     1  UNL1       -0.0345
      8 C           8.2148   -6.7077   24.2265 C.2     1  UNL1       -0.0467
      9 C           8.2650   -7.8336   25.2163 C.3     1  UNL1        0.0509
     10 C           7.5876   -7.6929   26.5472 C.3     1  UNL1        0.1145
     11 O           7.6377   -8.8188   27.5371 O.3     1  UNL1       -0.3841
     12 C           6.8600   -6.4263   26.8883 C.3     1  UNL1        0.0299
     13 C           6.8098   -5.3004   25.8984 C.3     1  UNL1        0.0062
     14 C           7.4873   -5.4411   24.5676 C.3     1  UNL1        0.0150
     15 C           6.7597   -4.1745   24.9086 C.3     1  UNL1        0.0040
     16 C           7.4372   -4.3152   23.5777 C.3     1  UNL1        0.0038
     17 C           6.7096   -3.0485   23.9187 C.3     1  UNL1        0.0003
     18 C           6.6594   -1.9227   22.9289 C.3     1  UNL1        0.0000
     19 C           7.3369   -2.0633   21.5979 C.3     1  UNL1        0.0000
     20 C           6.6511   -0.7442   21.7971 C.3     1  UNL1        0.0000
     21 H           7.1539   -8.5661   28.3390 H       1  UNL1        0.2103
     22 C           6.8765    0.2494   20.3393 C.3     1  UNL1        0.0000
     23 C           7.6860    1.4332   20.7790 C.3     1  UNL1        0.0000
     24 C           5.4869    0.4460   19.8099 C.3     1  UNL1        0.0000
     25 C           4.8156   -0.6518   19.0390 C.3     1  UNL1        0.0000
     26 C           4.0202   -1.6980   19.7621 C.3     1  UNL1        0.0000
     27 C           4.4667   -3.1298   19.7377 C.3     1  UNL1        0.0000
     28 C           5.0607   -3.7090   18.4881 C.3     1  UNL1        0.0000
     29 C           4.3191   -3.9824   20.9630 C.3     1  UNL1        0.0000
     30 C           2.8748   -0.8325   21.9275 C.3     1  UNL1        0.0000
     31 C           2.7782   -1.3124   20.5097 C.3     1  UNL1        0.0000
@<TRIPOS>BOND
     1    30    31    1
     2    26    31    1
     3    26    25    1
     4    25    24    1
     5    24    22    1
     6    22    23    1
     7    22     1    1
     8     1     2    1
     9     2     3    1
    10     4     3    1
    11     4     5    1
    12     5     6    1
    13     6     7    1
    14     7     8    2
    15     8     9    1
    16     9    10    1
    17    10    11    1
    18    10    12    1
    19    12    13    1
    20    13    14    1
    21    14    15    1
    22    14    16    1
    23    16    17    1
    24    17    18    1
    25    18    19    1
    26    19    20    1
    27    26    27    1
    28    27    28    1
    29    27    29    1
    30    19     1    1
    31    19     4    1
    32    16     5    1
    33    14     8    1
    34    11    21    1
@<TRIPOS>MOLECULE
*****
 31 34 0 0 0
SMALL
GASTEIGER

@<TRIPOS>ATOM
      1 C           3.6413   -2.5543   20.0716 C.3     1  UNL1        0.0000
      2 C           2.6117   -1.5173   19.7331 C.3     1  UNL1        0.0000
      3 C           2.3152   -0.7349   20.9781 C.3     1  UNL1        0.0000
      4 C           3.1614   -1.2884   22.0860 C.3     1  UNL1        0.0003
      5 C           3.2917   -0.9138   23.5326 C.3     1  UNL1        0.0046
      6 C           2.4721    0.2107   24.0929 C.3     1  UNL1        0.0254
      7 C           2.6023    0.5853   25.5395 C.2     1  UNL1       -0.0345
      8 C           3.5521   -0.1645   26.4259 C.2     1  UNL1       -0.0467
      9 C           3.6823    0.2101   27.8725 C.3     1  UNL1        0.0509
     10 C           4.6321   -0.5397   28.7588 C.3     1  UNL1        0.1145
     11 O           4.7624   -0.1651   30.2055 O.3     1  UNL1       -0.3841
     12 C           5.4517   -1.6642   28.1985 C.3     1  UNL1        0.0299
     13 C           5.3215   -2.0388   26.7520 C.3     1  UNL1        0.0062
     14 C           4.3717   -1.2890   25.8656 C.3     1  UNL1        0.0150
     15 C           5.1913   -2.4134   25.3054 C.3     1  UNL1        0.0040
     16 C           4.2415   -1.6636   24.4190 C.3     1  UNL1        0.0038
     17 C           5.0610   -2.7880   23.8587 C.3     1  UNL1        0.0003
     18 C           4.9308   -3.1627   22.4121 C.3     1  UNL1        0.0000
     19 C           3.9810   -2.4128   21.5257 C.3     1  UNL1        0.0000
     20 C           4.7310   -3.5085   20.8278 C.3     1  UNL1        0.0000
     21 H           5.4132   -0.7441   30.6321 H       1  UNL1        0.2103
     22 C           4.2280   -3.5568   19.1225 C.3     1  UNL1        0.0000
     23 C           3.6739   -4.9495   19.0655 C.3     1  UNL1        0.0000
     24 C           5.3689   -3.1664   18.2303 C.3     1  UNL1        0.0000
     25 C           5.8376   -1.7420   18.1918 C.3     1  UNL1        0.0000
     26 C           6.7975   -1.2401   19.2294 C.3     1  UNL1        0.0000
     27 C           6.3867   -0.1387   20.1610 C.3     1  UNL1        0.0000
     28 C           6.9224   -0.1021   21.5616 C.3     1  UNL1        0.0000
     29 C           5.4400    0.9263   19.6921 C.3     1  UNL1        0.0000
     30 C           8.3819   -3.0857   20.1423 C.3     1  UNL1        0.0000
     31 C           8.1685   -1.8395   19.3352 C.3     1  UNL1        0.0000
@<TRIPOS>BOND
     1    30    31    1
     2    26    31    1
     3    26    25    1
     4    25    24    1
     5    24    22    1
     6    22    23    1
     7    22     1    1
     8     1     2    1
     9     2     3    1
    10     4     3    1
    11     4     5    1
    12     5     6    1
    13     6     7    1
    14     7     8    2
    15     8     9    1
    16     9    10    1
    17    10    11    1
    18    10    12    1
    19    12    13    1
    20    13    14    1
    21    14    15    1
    22    14    16    1
    23    16    17    1
    24    17    18    1
    25    18    19    1
    26    19    20    1
    27    26    27    1
    28    27    28    1
    29    27    29    1
    30    19     1    1
    31    19     4    1
    32    16     5    1
    33    14     8    1
    34    11    21    1
@<TRIPOS>MOLECULE
*****
 31 34 0 0 0
SMALL
GASTEIGER

@<TRIPOS>ATOM
      1 C           6.8036   -1.5884   20.6708 C.3     1  UNL1        0.0000
      2 C           6.0667   -0.6096   21.5362 C.3     1  UNL1        0.0000
      3 C           6.0000   -1.1761   22.9235 C.3     1  UNL1        0.0000
      4 C           6.6957   -2.5050   22.9155 C.3     1  UNL1        0.0003
      5 C           6.9411   -3.5160   23.9961 C.3     1  UNL1        0.0046
      6 C           6.4445   -3.2612   25.3884 C.3     1  UNL1        0.0254
      7 C           6.6899   -4.2721   26.4690 C.2     1  UNL1       -0.0345
      8 C           7.4320   -5.5380   26.1573 C.2     1  UNL1       -0.0467
      9 C           7.6774   -6.5489   27.2379 C.3     1  UNL1        0.0509
     10 C           8.4194   -7.8147   26.9262 C.3     1  UNL1        0.1145
     11 O           8.6649   -8.8257   28.0068 O.3     1  UNL1       -0.3841
     12 C           8.9161   -8.0695   25.5340 C.3     1  UNL1        0.0299
     13 C           8.6707   -7.0585   24.4534 C.3     1  UNL1        0.0062
     14 C           7.9286   -5.7928   24.7650 C.3     1  UNL1        0.0150
     15 C           8.4253   -6.0476   23.3728 C.3     1  UNL1        0.0040
     16 C           7.6832   -4.7817   23.6844 C.3     1  UNL1        0.0038
     17 C           8.1798   -5.0365   22.2922 C.3     1  UNL1        0.0003
     18 C           7.9344   -4.0256   21.2116 C.3     1  UNL1        0.0000
     19 C           7.1923   -2.7598   21.5232 C.3     1  UNL1        0.0000
     20 C           7.6267   -2.8758   20.0922 C.3     1  UNL1        0.0000
     21 H           9.1538   -9.5789   27.6400 H       1  UNL1        0.2103
     22 C           7.0998   -1.4245   19.2095 C.3     1  UNL1        0.0000
     23 C           8.1715   -0.4747   18.7633 C.3     1  UNL1        0.0000
     24 C           6.3241   -2.2104   18.1943 C.3     1  UNL1        0.0000
     25 C           4.8318   -2.0764   18.1227 C.3     1  UNL1        0.0000
     26 C           3.9759   -2.6214   19.2275 C.3     1  UNL1        0.0000
     27 C           4.1890   -4.0220   19.7201 C.3     1  UNL1        0.0000
     28 C           4.5059   -5.1191   18.7475 C.3     1  UNL1        0.0000
     29 C           4.0852   -4.3257   21.1854 C.3     1  UNL1        0.0000
     30 C           2.8852   -0.2892   19.5757 C.3     1  UNL1        0.0000
     31 C           2.9069   -1.7656   19.8397 C.3     1  UNL1        0.0000
@<TRIPOS>BOND
     1    30    31    1
     2    26    31    1
     3    26    25    1
     4    25    24    1
     5    24    22    1
     6    22    23    1
     7    22     1    1
     8     1     2    1
     9     2     3    1
    10     4     3    1
    11     4     5    1
    12     5     6    1
    13     6     7    1
    14     7     8    2
    15     8     9    1
    16     9    10    1
    17    10    11    1
    18    10    12    1
    19    12    13    1
    20    13    14    1
    21    14    15    1
    22    14    16    1
    23    16    17    1
    24    17    18    1
    25    18    19    1
    26    19    20    1
    27    26    27    1
    28    27    28    1
    29    27    29    1
    30    19     1    1
    31    19     4    1
    32    16     5    1
    33    14     8    1
    34    11    21    1
