@<TRIPOS>MOLECULE
*****
 26 28 0 0 0
SMALL
GASTEIGER

@<TRIPOS>ATOM
      1 C          -7.3499  -15.0959   27.9780 C.3     1  UNL1        0.0522
      2 C          -7.4842  -15.4075   26.5169 C.ar    1  UNL1        0.0625
      3 C          -8.8447  -15.5694   25.9064 C.ar    1  UNL1        0.0522
      4 C          -8.9790  -15.8810   24.4453 C.ar    1  UNL1        0.1482
      5 C          -7.7527  -16.0307   23.5946 C.ar    1  UNL1        0.0612
      6 C          -6.3921  -15.8688   24.2050 C.ar    1  UNL1        0.1374
      7 N          -6.2579  -15.5572   25.6661 N.ar    1  UNL1       -0.2449
      8 C          -5.1658  -16.0185   23.3543 C.2     1  UNL1        0.2684
      9 O          -4.4751  -14.8017   22.8134 O.2     1  UNL1       -0.2681
     10 N          -4.6301  -17.3848   23.0446 N.am    1  UNL1       -0.2646
     11 H          -5.0833  -18.1834   23.3996 H       1  UNL1        0.1566
     12 C          -3.4037  -17.5345   22.1938 C.ar    1  UNL1        0.1345
     13 C          -3.0101  -18.8864   21.6767 C.ar    1  UNL1        0.0354
     14 C          -1.7838  -19.0360   20.8260 C.ar    1  UNL1        0.0158
     15 C          -0.9510  -17.8338   20.4925 C.ar    1  UNL1        0.0769
     16 CL          0.2754  -17.9835   19.6418 Cl      1  UNL1       -0.0806
     17 C          -1.3446  -16.4820   21.0097 C.ar    1  UNL1        0.1116
     18 N          -2.5709  -16.3323   21.8604 N.ar    1  UNL1       -0.2281
     19 O         -10.3396  -16.0428   23.8349 O.3     1  UNL1       -0.4518
     20 C         -10.5127  -16.8736   22.5980 C.ar    1  UNL1        0.1666
     21 C         -10.4576  -16.2262   21.2460 C.ar    1  UNL1        0.1364
     22 N         -10.6307  -17.0569   20.0091 N.ar    1  UNL1       -0.2368
     23 C         -10.8589  -18.5350   20.1242 C.ar    1  UNL1        0.1286
     24 C         -10.9140  -19.1823   21.4762 C.ar    1  UNL1        0.1623
     25 F         -11.1421  -20.6605   21.5913 F       1  UNL1       -0.2024
     26 C         -10.7409  -18.3516   22.7131 C.ar    1  UNL1        0.0703
@<TRIPOS>BOND
     1     1     2    1
     2     2     3   ar
     3     3     4   ar
     4     4    19    1
     5    19    20    1
     6    20    21   ar
     7    21    22   ar
     8    22    23   ar
     9    23    24   ar
    10    24    25    1
    11    24    26   ar
    12     4     5   ar
    13     5     6   ar
    14     6     8    1
    15     8     9    2
    16     8    10   am
    17    10    12    1
    18    12    13   ar
    19    13    14   ar
    20    14    15   ar
    21    15    16    1
    22    15    17   ar
    23    17    18   ar
    24     6     7   ar
    25     7     2   ar
    26    26    20   ar
    27    18    12   ar
    28    10    11    1
@<TRIPOS>MOLECULE
*****
 26 28 0 0 0
SMALL
GASTEIGER

@<TRIPOS>ATOM
      1 C          -9.3180  -21.1882   17.5413 C.3     1  UNL1        0.0522
      2 C          -8.8660  -20.3963   18.7324 C.ar    1  UNL1        0.0625
      3 C          -9.8760  -19.8547   19.7001 C.ar    1  UNL1        0.0522
      4 C          -9.4240  -19.0628   20.8912 C.ar    1  UNL1        0.1482
      5 C          -7.9620  -18.8126   21.1145 C.ar    1  UNL1        0.0612
      6 C          -6.9520  -19.3542   20.1468 C.ar    1  UNL1        0.1374
      7 N          -7.4040  -20.1461   18.9557 N.ar    1  UNL1       -0.2449
      8 C          -5.4900  -19.1040   20.3701 C.2     1  UNL1        0.2684
      9 O          -4.7936  -19.7251   21.5446 O.2     1  UNL1       -0.2681
     10 N          -4.7243  -18.2328   19.4190 N.am    1  UNL1       -0.2646
     11 H          -5.1814  -17.8251   18.6482 H       1  UNL1        0.1566
     12 C          -3.2622  -17.9825   19.6424 C.ar    1  UNL1        0.1345
     13 C          -2.2510  -18.5409   18.6855 C.ar    1  UNL1        0.0354
     14 C          -0.7891  -18.2906   18.9088 C.ar    1  UNL1        0.0158
     15 C          -0.3383  -17.4821   20.0891 C.ar    1  UNL1        0.0769
     16 CL          1.1238  -17.2318   20.3124 Cl      1  UNL1       -0.0806
     17 C          -1.3495  -16.9237   21.0460 C.ar    1  UNL1        0.1116
     18 N          -2.8114  -17.1739   20.8226 N.ar    1  UNL1       -0.2281
     19 O         -10.4341  -18.5212   21.8589 O.3     1  UNL1       -0.4518
     20 C         -10.0027  -18.0858   23.2279 C.ar    1  UNL1        0.1666
     21 C         -10.0791  -19.0449   24.3788 C.ar    1  UNL1        0.1364
     22 N          -9.6477  -18.6095   25.7478 N.ar    1  UNL1       -0.2368
     23 C          -9.1399  -17.2149   25.9661 C.ar    1  UNL1        0.1286
     24 C          -9.0636  -16.2559   24.8153 C.ar    1  UNL1        0.1623
     25 F          -8.5559  -14.8613   25.0335 F       1  UNL1       -0.2024
     26 C          -9.4950  -16.6913   23.4462 C.ar    1  UNL1        0.0703
@<TRIPOS>BOND
     1     1     2    1
     2     2     3   ar
     3     3     4   ar
     4     4    19    1
     5    19    20    1
     6    20    21   ar
     7    21    22   ar
     8    22    23   ar
     9    23    24   ar
    10    24    25    1
    11    24    26   ar
    12     4     5   ar
    13     5     6   ar
    14     6     8    1
    15     8     9    2
    16     8    10   am
    17    10    12    1
    18    12    13   ar
    19    13    14   ar
    20    14    15   ar
    21    15    16    1
    22    15    17   ar
    23    17    18   ar
    24     6     7   ar
    25     7     2   ar
    26    26    20   ar
    27    18    12   ar
    28    10    11    1
@<TRIPOS>MOLECULE
*****
 26 28 0 0 0
SMALL
GASTEIGER

@<TRIPOS>ATOM
      1 C          -9.2166  -21.6125   17.6704 C.3     1  UNL1        0.0522
      2 C          -8.8161  -20.5324   18.6311 C.ar    1  UNL1        0.0625
      3 C          -9.8652  -19.6796   19.2806 C.ar    1  UNL1        0.0522
      4 C          -9.4647  -18.5995   20.2414 C.ar    1  UNL1        0.1482
      5 C          -8.0151  -18.3722   20.5526 C.ar    1  UNL1        0.0612
      6 C          -6.9660  -19.2251   19.9030 C.ar    1  UNL1        0.1374
      7 N          -7.3665  -20.3052   18.9423 N.ar    1  UNL1       -0.2449
      8 C          -5.5162  -18.9979   20.2142 C.2     1  UNL1        0.2684
      9 O          -4.9124  -19.5936   21.4514 O.2     1  UNL1       -0.2681
     10 N          -4.6704  -18.1751   19.2883 N.am    1  UNL1       -0.2646
     11 H          -5.0667  -17.7841   18.4763 H       1  UNL1        0.1566
     12 C          -3.2207  -17.9479   19.5994 C.ar    1  UNL1        0.1345
     13 C          -2.1628  -18.6372   18.7898 C.ar    1  UNL1        0.0354
     14 C          -0.7132  -18.4100   19.1010 C.ar    1  UNL1        0.0158
     15 C          -0.3214  -17.4934   20.2218 C.ar    1  UNL1        0.0769
     16 CL          1.1283  -17.2662   20.5330 Cl      1  UNL1       -0.0806
     17 C          -1.3793  -16.8040   21.0315 C.ar    1  UNL1        0.1116
     18 N          -2.8289  -17.0312   20.7203 N.ar    1  UNL1       -0.2281
     19 O         -10.5139  -17.7466   20.8909 O.3     1  UNL1       -0.4518
     20 C         -11.0910  -18.1469   22.2163 C.ar    1  UNL1        0.1666
     21 C         -10.2579  -18.9218   23.1938 C.ar    1  UNL1        0.1364
     22 N         -10.8350  -19.3220   24.5193 N.ar    1  UNL1       -0.2368
     23 C         -12.2452  -18.9474   24.8671 C.ar    1  UNL1        0.1286
     24 C         -13.0783  -18.1726   23.8896 C.ar    1  UNL1        0.1623
     25 F         -14.4885  -17.7980   24.2375 F       1  UNL1       -0.2024
     26 C         -12.5012  -17.7723   22.5642 C.ar    1  UNL1        0.0703
@<TRIPOS>BOND
     1     1     2    1
     2     2     3   ar
     3     3     4   ar
     4     4    19    1
     5    19    20    1
     6    20    21   ar
     7    21    22   ar
     8    22    23   ar
     9    23    24   ar
    10    24    25    1
    11    24    26   ar
    12     4     5   ar
    13     5     6   ar
    14     6     8    1
    15     8     9    2
    16     8    10   am
    17    10    12    1
    18    12    13   ar
    19    13    14   ar
    20    14    15   ar
    21    15    16    1
    22    15    17   ar
    23    17    18   ar
    24     6     7   ar
    25     7     2   ar
    26    26    20   ar
    27    18    12   ar
    28    10    11    1
@<TRIPOS>MOLECULE
*****
 26 28 0 0 0
SMALL
GASTEIGER

@<TRIPOS>ATOM
      1 C         -11.2919  -19.9125   20.8588 C.3     1  UNL1        0.0522
      2 C         -10.1876  -19.2008   21.5828 C.ar    1  UNL1        0.0625
      3 C         -10.4703  -18.4992   22.8781 C.ar    1  UNL1        0.0522
      4 C          -9.3660  -17.7875   23.6021 C.ar    1  UNL1        0.1482
      5 C          -7.9791  -17.7775   23.0308 C.ar    1  UNL1        0.0612
      6 C          -7.6965  -18.4791   21.7355 C.ar    1  UNL1        0.1374
      7 N          -8.8008  -19.1908   21.0115 N.ar    1  UNL1       -0.2449
      8 C          -6.3096  -18.4692   21.1642 C.2     1  UNL1        0.2684
      9 O          -6.1005  -18.7093   19.6983 O.2     1  UNL1       -0.2681
     10 N          -5.1317  -18.2191   22.0586 N.am    1  UNL1       -0.2646
     11 H          -5.2689  -18.0615   23.0207 H       1  UNL1        0.1566
     12 C          -3.7448  -18.2091   21.4873 C.ar    1  UNL1        0.1345
     13 C          -3.1359  -19.4802   20.9740 C.ar    1  UNL1        0.0354
     14 C          -1.7491  -19.4701   20.4027 C.ar    1  UNL1        0.0158
     15 C          -0.9710  -18.1890   20.3447 C.ar    1  UNL1        0.0769
     16 CL          0.4159  -18.1790   19.7733 Cl      1  UNL1       -0.0806
     17 C          -1.5799  -16.9179   20.8580 C.ar    1  UNL1        0.1116
     18 N          -2.9668  -16.9279   21.4293 N.ar    1  UNL1       -0.2281
     19 O          -9.6487  -17.0859   24.8974 O.3     1  UNL1       -0.4518
     20 C          -8.5279  -16.4534   25.6679 C.ar    1  UNL1        0.1666
     21 C          -8.5881  -16.3923   27.1655 C.ar    1  UNL1        0.1364
     22 N          -7.4673  -15.7599   27.9360 N.ar    1  UNL1       -0.2368
     23 C          -6.2862  -15.1885   27.2089 C.ar    1  UNL1        0.1286
     24 C          -6.2260  -15.2496   25.7114 C.ar    1  UNL1        0.1623
     25 F          -5.0449  -14.6782   24.9843 F       1  UNL1       -0.2024
     26 C          -7.3468  -15.8820   24.9409 C.ar    1  UNL1        0.0703
@<TRIPOS>BOND
     1     1     2    1
     2     2     3   ar
     3     3     4   ar
     4     4    19    1
     5    19    20    1
     6    20    21   ar
     7    21    22   ar
     8    22    23   ar
     9    23    24   ar
    10    24    25    1
    11    24    26   ar
    12     4     5   ar
    13     5     6   ar
    14     6     8    1
    15     8     9    2
    16     8    10   am
    17    10    12    1
    18    12    13   ar
    19    13    14   ar
    20    14    15   ar
    21    15    16    1
    22    15    17   ar
    23    17    18   ar
    24     6     7   ar
    25     7     2   ar
    26    26    20   ar
    27    18    12   ar
    28    10    11    1
@<TRIPOS>MOLECULE
*****
 26 28 0 0 0
SMALL
GASTEIGER

@<TRIPOS>ATOM
      1 C          -4.7061  -15.3293   24.1732 C.3     1  UNL1        0.0522
      2 C          -5.2721  -16.5545   23.5186 C.ar    1  UNL1        0.0625
      3 C          -4.3730  -17.4785   22.7519 C.ar    1  UNL1        0.0522
      4 C          -4.9390  -18.7037   22.0973 C.ar    1  UNL1        0.1482
      5 C          -6.4042  -19.0049   22.2093 C.ar    1  UNL1        0.0612
      6 C          -7.3033  -18.0809   22.9760 C.ar    1  UNL1        0.1374
      7 N          -6.7373  -16.8557   23.6306 N.ar    1  UNL1       -0.2449
      8 C          -8.7685  -18.3821   23.0881 C.2     1  UNL1        0.2684
      9 O          -9.3023  -19.6991   22.6079 O.2     1  UNL1       -0.2681
     10 N          -9.6998  -17.3664   23.6803 N.am    1  UNL1       -0.2646
     11 H          -9.3495  -16.5020   23.9955 H       1  UNL1        0.1566
     12 C         -11.1650  -17.6676   23.7924 C.ar    1  UNL1        0.1345
     13 C         -12.1309  -17.0684   22.8136 C.ar    1  UNL1        0.0354
     14 C         -13.5960  -17.3696   22.9258 C.ar    1  UNL1        0.0158
     15 C         -14.0953  -18.2700   24.0166 C.ar    1  UNL1        0.0769
     16 CL        -15.5605  -18.5712   24.1287 Cl      1  UNL1       -0.0806
     17 C         -13.1294  -18.8692   24.9954 C.ar    1  UNL1        0.1116
     18 N         -11.6643  -18.5680   24.8833 N.ar    1  UNL1       -0.2281
     19 O          -4.0398  -19.6276   21.3306 O.3     1  UNL1       -0.4518
     20 C          -2.8980  -19.0717   20.5323 C.ar    1  UNL1        0.1666
     21 C          -1.4850  -19.3268   20.9665 C.ar    1  UNL1        0.1364
     22 N          -0.3432  -18.7708   20.1683 N.ar    1  UNL1       -0.2368
     23 C          -0.6144  -17.9597   18.9359 C.ar    1  UNL1        0.1286
     24 C          -2.0273  -17.7046   18.5019 C.ar    1  UNL1        0.1623
     25 F          -2.2985  -16.8935   17.2695 F       1  UNL1       -0.2024
     26 C          -3.1691  -18.2606   19.3001 C.ar    1  UNL1        0.0703
@<TRIPOS>BOND
     1     1     2    1
     2     2     3   ar
     3     3     4   ar
     4     4    19    1
     5    19    20    1
     6    20    21   ar
     7    21    22   ar
     8    22    23   ar
     9    23    24   ar
    10    24    25    1
    11    24    26   ar
    12     4     5   ar
    13     5     6   ar
    14     6     8    1
    15     8     9    2
    16     8    10   am
    17    10    12    1
    18    12    13   ar
    19    13    14   ar
    20    14    15   ar
    21    15    16    1
    22    15    17   ar
    23    17    18   ar
    24     6     7   ar
    25     7     2   ar
    26    26    20   ar
    27    18    12   ar
    28    10    11    1
@<TRIPOS>MOLECULE
*****
 26 28 0 0 0
SMALL
GASTEIGER

@<TRIPOS>ATOM
      1 C           4.5524    4.0192   18.3208 C.3     1  UNL1        0.0522
      2 C           3.6825    2.8089   18.4896 C.ar    1  UNL1        0.0625
      3 C           4.1076    1.4929   17.9088 C.ar    1  UNL1        0.0522
      4 C           3.2378    0.2825   18.0776 C.ar    1  UNL1        0.1482
      5 C           1.9428    0.3883   18.8272 C.ar    1  UNL1        0.0612
      6 C           1.5178    1.7043   19.4080 C.ar    1  UNL1        0.1374
      7 N           2.3876    2.9146   19.2392 N.ar    1  UNL1       -0.2449
      8 C           0.2228    1.8100   20.1577 C.2     1  UNL1        0.2684
      9 O          -0.4262    0.5762   20.7113 O.2     1  UNL1       -0.2681
     10 N          -0.4232    3.1495   20.3536 N.am    1  UNL1       -0.2646
     11 H           0.0028    3.9593   19.9902 H       1  UNL1        0.1566
     12 C          -1.7182    3.2553   21.1032 C.ar    1  UNL1        0.1345
     13 C          -1.7159    3.6346   22.5544 C.ar    1  UNL1        0.0354
     14 C          -3.0108    3.7403   23.3040 C.ar    1  UNL1        0.0158
     15 C          -4.3081    3.4668   22.6023 C.ar    1  UNL1        0.0769
     16 CL         -5.6031    3.5725   23.3519 Cl      1  UNL1       -0.0806
     17 C          -4.3104    3.0875   21.1511 C.ar    1  UNL1        0.1116
     18 N          -3.0154    2.9817   20.4015 N.ar    1  UNL1       -0.2281
     19 O           3.6629   -1.0335   17.4968 O.3     1  UNL1       -0.4518
     20 C           4.3807   -2.0343   18.3530 C.ar    1  UNL1        0.1666
     21 C           5.8604   -1.9135   18.5677 C.ar    1  UNL1        0.1364
     22 N           6.5782   -2.9144   19.4239 N.ar    1  UNL1       -0.2368
     23 C           5.8163   -4.0360   20.0655 C.ar    1  UNL1        0.1286
     24 C           4.3367   -4.1568   19.8508 C.ar    1  UNL1        0.1623
     25 F           3.5748   -5.2784   20.4923 F       1  UNL1       -0.2024
     26 C           3.6189   -3.1560   18.9946 C.ar    1  UNL1        0.0703
@<TRIPOS>BOND
     1     1     2    1
     2     2     3   ar
     3     3     4   ar
     4     4    19    1
     5    19    20    1
     6    20    21   ar
     7    21    22   ar
     8    22    23   ar
     9    23    24   ar
    10    24    25    1
    11    24    26   ar
    12     4     5   ar
    13     5     6   ar
    14     6     8    1
    15     8     9    2
    16     8    10   am
    17    10    12    1
    18    12    13   ar
    19    13    14   ar
    20    14    15   ar
    21    15    16    1
    22    15    17   ar
    23    17    18   ar
    24     6     7   ar
    25     7     2   ar
    26    26    20   ar
    27    18    12   ar
    28    10    11    1
@<TRIPOS>MOLECULE
*****
 26 28 0 0 0
SMALL
GASTEIGER

@<TRIPOS>ATOM
      1 C          -8.5251  -15.2342   26.5556 C.3     1  UNL1        0.0522
      2 C          -8.2338  -16.1625   25.4139 C.ar    1  UNL1        0.0625
      3 C          -9.2867  -17.1184   24.9371 C.ar    1  UNL1        0.0522
      4 C          -8.9954  -18.0468   23.7954 C.ar    1  UNL1        0.1482
      5 C          -7.6511  -18.0192   23.1306 C.ar    1  UNL1        0.0612
      6 C          -6.5981  -17.0633   23.6075 C.ar    1  UNL1        0.1374
      7 N          -6.8894  -16.1350   24.7491 N.ar    1  UNL1       -0.2449
      8 C          -5.2537  -17.0357   22.9427 C.2     1  UNL1        0.2684
      9 O          -4.3159  -15.8924   23.1945 O.2     1  UNL1       -0.2681
     10 N          -4.8471  -18.1513   22.0262 N.am    1  UNL1       -0.2646
     11 H          -5.4626  -18.9017   21.8610 H       1  UNL1        0.1566
     12 C          -3.5027  -18.1237   21.3614 C.ar    1  UNL1        0.1345
     13 C          -2.2710  -18.4663   22.1458 C.ar    1  UNL1        0.0354
     14 C          -0.9266  -18.4387   21.4810 C.ar    1  UNL1        0.0158
     15 C          -0.8141  -18.0684   20.0318 C.ar    1  UNL1        0.0769
     16 CL          0.5304  -18.0408   19.3671 Cl      1  UNL1       -0.0806
     17 C          -2.0458  -17.7257   19.2474 C.ar    1  UNL1        0.1116
     18 N          -3.3901  -17.7534   19.9122 N.ar    1  UNL1       -0.2281
     19 O         -10.0484  -19.0027   23.3186 O.3     1  UNL1       -0.4518
     20 C         -11.5000  -18.6576   23.4731 C.ar    1  UNL1        0.1666
     21 C         -12.2647  -18.0945   22.3119 C.ar    1  UNL1        0.1364
     22 N         -13.7163  -17.7494   22.4664 N.ar    1  UNL1       -0.2368
     23 C         -14.4031  -17.9673   23.7820 C.ar    1  UNL1        0.1286
     24 C         -13.6384  -18.5304   24.9431 C.ar    1  UNL1        0.1623
     25 F         -14.3252  -18.7484   26.2587 F       1  UNL1       -0.2024
     26 C         -12.1868  -18.8755   24.7886 C.ar    1  UNL1        0.0703
@<TRIPOS>BOND
     1     1     2    1
     2     2     3   ar
     3     3     4   ar
     4     4    19    1
     5    19    20    1
     6    20    21   ar
     7    21    22   ar
     8    22    23   ar
     9    23    24   ar
    10    24    25    1
    11    24    26   ar
    12     4     5   ar
    13     5     6   ar
    14     6     8    1
    15     8     9    2
    16     8    10   am
    17    10    12    1
    18    12    13   ar
    19    13    14   ar
    20    14    15   ar
    21    15    16    1
    22    15    17   ar
    23    17    18   ar
    24     6     7   ar
    25     7     2   ar
    26    26    20   ar
    27    18    12   ar
    28    10    11    1
@<TRIPOS>MOLECULE
*****
 26 28 0 0 0
SMALL
GASTEIGER

@<TRIPOS>ATOM
      1 C           4.5873   -2.9605   33.4951 C.3     1  UNL1        0.0522
      2 C           4.1931   -1.5167   33.3948 C.ar    1  UNL1        0.0625
      3 C           4.4630   -0.5844   34.5383 C.ar    1  UNL1        0.0522
      4 C           4.0688    0.8594   34.4380 C.ar    1  UNL1        0.1482
      5 C           3.4047    1.3709   33.1940 C.ar    1  UNL1        0.0612
      6 C           3.1348    0.4385   32.0505 C.ar    1  UNL1        0.1374
      7 N           3.5290   -1.0053   32.1508 N.ar    1  UNL1       -0.2449
      8 C           2.4707    0.9499   30.8065 C.2     1  UNL1        0.2684
      9 O           3.1438    0.7871   29.4759 O.2     1  UNL1       -0.2681
     10 N           1.1336    1.6241   30.8931 N.am    1  UNL1       -0.2646
     11 H           0.6918    1.7310   31.7664 H       1  UNL1        0.1566
     12 C           0.4695    2.1355   29.6491 C.ar    1  UNL1        0.1345
     13 C           0.6397    3.5695   29.2433 C.ar    1  UNL1        0.0354
     14 C          -0.0244    4.0808   27.9994 C.ar    1  UNL1        0.0158
     15 C          -0.8587    3.1582   27.1612 C.ar    1  UNL1        0.0769
     16 CL         -1.5228    3.6696   25.9172 Cl      1  UNL1       -0.0806
     17 C          -1.0290    1.7242   27.5669 C.ar    1  UNL1        0.1116
     18 N          -0.3649    1.2129   28.8109 N.ar    1  UNL1       -0.2281
     19 O           4.3387    1.7918   35.5816 O.3     1  UNL1       -0.4518
     20 C           3.3074    1.9813   36.6542 C.ar    1  UNL1        0.1666
     21 C           2.4415    3.2062   36.6540 C.ar    1  UNL1        0.1364
     22 N           1.4101    3.3957   37.7266 N.ar    1  UNL1       -0.2368
     23 C           1.2448    2.3604   38.7994 C.ar    1  UNL1        0.1286
     24 C           2.1107    1.1356   38.7995 C.ar    1  UNL1        0.1623
     25 F           1.9453    0.1003   39.8723 F       1  UNL1       -0.2024
     26 C           3.1420    0.9461   37.7270 C.ar    1  UNL1        0.0703
@<TRIPOS>BOND
     1     1     2    1
     2     2     3   ar
     3     3     4   ar
     4     4    19    1
     5    19    20    1
     6    20    21   ar
     7    21    22   ar
     8    22    23   ar
     9    23    24   ar
    10    24    25    1
    11    24    26   ar
    12     4     5   ar
    13     5     6   ar
    14     6     8    1
    15     8     9    2
    16     8    10   am
    17    10    12    1
    18    12    13   ar
    19    13    14   ar
    20    14    15   ar
    21    15    16    1
    22    15    17   ar
    23    17    18   ar
    24     6     7   ar
    25     7     2   ar
    26    26    20   ar
    27    18    12   ar
    28    10    11    1
@<TRIPOS>MOLECULE
*****
 26 28 0 0 0
SMALL
GASTEIGER

@<TRIPOS>ATOM
      1 C           7.4209   -0.3134   34.1068 C.3     1  UNL1        0.0522
      2 C           6.1327    0.4111   34.3629 C.ar    1  UNL1        0.0625
      3 C           5.8560    0.9931   35.7174 C.ar    1  UNL1        0.0522
      4 C           4.5678    1.7176   35.9735 C.ar    1  UNL1        0.1482
      5 C           3.5562    1.8601   34.8752 C.ar    1  UNL1        0.0612
      6 C           3.8329    1.2780   33.5207 C.ar    1  UNL1        0.1374
      7 N           5.1211    0.5535   33.2646 N.ar    1  UNL1       -0.2449
      8 C           2.8213    1.4205   32.4223 C.2     1  UNL1        0.2684
      9 O           1.4367    1.9048   32.7360 O.2     1  UNL1       -0.2681
     10 N           3.1943    1.0786   31.0102 N.am    1  UNL1       -0.2646
     11 H           4.1031    0.7607   30.8043 H       1  UNL1        0.1566
     12 C           2.1828    1.2211   29.9118 C.ar    1  UNL1        0.1345
     13 C           1.4063    0.0246   29.4475 C.ar    1  UNL1        0.0354
     14 C           0.3948    0.1671   28.3491 C.ar    1  UNL1        0.0158
     15 C           0.1597    1.5060   27.7150 C.ar    1  UNL1        0.0769
     16 CL         -0.8518    1.6485   26.6166 Cl      1  UNL1       -0.0806
     17 C           0.9362    2.7024   28.1793 C.ar    1  UNL1        0.1116
     18 N           1.9477    2.5600   29.2777 N.ar    1  UNL1       -0.2281
     19 O           4.2911    2.2996   37.3281 O.3     1  UNL1       -0.4518
     20 C           2.9540    2.0913   37.9751 C.ar    1  UNL1        0.1666
     21 C           1.9465    3.2026   37.9896 C.ar    1  UNL1        0.1364
     22 N           0.6093    2.9942   38.6366 N.ar    1  UNL1       -0.2368
     23 C           0.2796    1.6745   39.2690 C.ar    1  UNL1        0.1286
     24 C           1.2871    0.5633   39.2544 C.ar    1  UNL1        0.1623
     25 F           0.9574   -0.7564   39.8868 F       1  UNL1       -0.2024
     26 C           2.6242    0.7717   38.6074 C.ar    1  UNL1        0.0703
@<TRIPOS>BOND
     1     1     2    1
     2     2     3   ar
     3     3     4   ar
     4     4    19    1
     5    19    20    1
     6    20    21   ar
     7    21    22   ar
     8    22    23   ar
     9    23    24   ar
    10    24    25    1
    11    24    26   ar
    12     4     5   ar
    13     5     6   ar
    14     6     8    1
    15     8     9    2
    16     8    10   am
    17    10    12    1
    18    12    13   ar
    19    13    14   ar
    20    14    15   ar
    21    15    16    1
    22    15    17   ar
    23    17    18   ar
    24     6     7   ar
    25     7     2   ar
    26    26    20   ar
    27    18    12   ar
    28    10    11    1
