@<TRIPOS>MOLECULE
*****
 31 33 0 0 0
SMALL
GASTEIGER

@<TRIPOS>ATOM
      1 C          -9.7046  -19.4663   21.6078 C.ar    1  UNL1        0.2296
      2 N         -10.6444  -19.5770   20.4440 N.ar    1  UNL1       -0.2098
      3 C         -10.1034  -19.6359   19.0462 C.ar    1  UNL1        0.1021
      4 C          -8.6227  -19.5842   18.8122 C.ar    1  UNL1        0.0209
      5 C          -7.6829  -19.4735   19.9760 C.ar    1  UNL1        0.0062
      6 C          -6.2021  -19.4218   19.7421 C.ar    1  UNL1        0.0048
      7 C          -5.2624  -19.3111   20.9059 C.ar    1  UNL1        0.0548
      8 C          -5.8033  -19.2521   22.3038 C.ar    1  UNL1        0.0047
      9 C          -7.2840  -19.3039   22.5377 C.ar    1  UNL1        0.0048
     10 C          -8.2238  -19.4145   21.3738 C.ar    1  UNL1        0.0536
     11 C          -3.7816  -19.2594   20.6719 C.2     1  UNL1        0.2640
     12 O          -2.9375  -20.4706   20.9379 O.2     1  UNL1       -0.2686
     13 N          -3.1450  -17.9966   20.1720 N.am    1  UNL1       -0.1852
     14 H          -3.6990  -17.2017   19.9974 H       1  UNL1        0.1765
     15 S          -1.6642  -17.9449   19.9380 S.O2    1  UNL1        0.0581
     16 C          -0.1835  -17.8932   19.7040 C.3     1  UNL1        0.1997
     17 O          -1.8685  -18.4377   18.5361 O.2     1  UNL1       -0.1543
     18 O          -1.4599  -17.4521   21.3399 O.2     1  UNL1       -0.1543
     19 O         -10.2455  -19.4073   23.0057 O.3     1  UNL1       -0.4345
     20 C          -8.6595  -16.3529   25.9049 C.ar    1  UNL1        0.2359
     21 N          -9.1003  -17.6986   26.3996 N.ar    1  UNL1       -0.2062
     22 C          -9.6290  -18.7167   25.4332 C.ar    1  UNL1        0.1395
     23 C          -9.7168  -18.3892   23.9721 C.ar    1  UNL1        0.1673
     24 C          -9.2760  -17.0434   23.4773 C.ar    1  UNL1        0.0553
     25 C          -8.7473  -16.0253   24.4437 C.ar    1  UNL1        0.1138
     26 CL         -8.3065  -14.6796   23.9490 Cl      1  UNL1       -0.0773
     27 O          -8.1308  -15.3348   26.8713 O.3     1  UNL1       -0.4597
     28 C          -6.7082  -15.4136   27.3401 C.3     1  UNL1        0.2070
     29 C          -4.8022  -16.9638   26.4949 C.3     1  UNL1        0.0038
     30 C          -5.6109  -15.7075   26.3605 C.3     1  UNL1        0.0438
     31 C          -5.3222  -14.7453   25.2467 C.3     1  UNL1        0.0038
@<TRIPOS>BOND
     1    29    30    1
     2    30    31    1
     3    30    28    1
     4    28    27    1
     5    27    20    1
     6    20    21   ar
     7    21    22   ar
     8    22    23   ar
     9    23    19    1
    10    19     1    1
    11     1     2   ar
    12     2     3   ar
    13     3     4   ar
    14     4     5   ar
    15     5     6   ar
    16     6     7   ar
    17     7    11    1
    18    11    12    2
    19    11    13   am
    20    13    15    1
    21    15    16    1
    22    15    17    2
    23    15    18    2
    24     7     8   ar
    25     8     9   ar
    26     9    10   ar
    27    23    24   ar
    28    24    25   ar
    29    25    26    1
    30    25    20   ar
    31    10     1   ar
    32    10     5   ar
    33    13    14    1
@<TRIPOS>MOLECULE
*****
 31 33 0 0 0
SMALL
GASTEIGER

@<TRIPOS>ATOM
      1 C          -8.3205  -15.5386   25.4002 C.ar    1  UNL1        0.2296
      2 N          -8.3097  -15.1378   26.8456 N.ar    1  UNL1       -0.2098
      3 C          -7.0341  -15.2015   27.6321 C.ar    1  UNL1        0.1021
      4 C          -5.7692  -15.6660   26.9732 C.ar    1  UNL1        0.0209
      5 C          -5.7799  -16.0668   25.5278 C.ar    1  UNL1        0.0062
      6 C          -4.5149  -16.5313   24.8689 C.ar    1  UNL1        0.0048
      7 C          -4.5257  -16.9322   23.4235 C.ar    1  UNL1        0.0548
      8 C          -5.8014  -16.8685   22.6370 C.ar    1  UNL1        0.0047
      9 C          -7.0663  -16.4040   23.2959 C.ar    1  UNL1        0.0048
     10 C          -7.0555  -16.0031   24.7413 C.ar    1  UNL1        0.0536
     11 C          -3.2607  -17.3967   22.7646 C.2     1  UNL1        0.2640
     12 O          -2.1823  -18.0428   23.5830 O.2     1  UNL1       -0.2686
     13 N          -3.0741  -17.2151   21.2874 N.am    1  UNL1       -0.1852
     14 H          -3.7819  -16.7910   20.7503 H       1  UNL1        0.1765
     15 S          -1.8092  -17.6796   20.6285 S.O2    1  UNL1        0.0581
     16 C          -0.5443  -18.1441   19.9696 C.3     1  UNL1        0.1997
     17 O          -2.4394  -19.0139   20.3593 O.2     1  UNL1       -0.1543
     18 O          -1.1790  -16.3453   20.8977 O.2     1  UNL1       -0.1543
     19 O          -9.5962  -15.4749   24.6137 O.3     1  UNL1       -0.4345
     20 C         -10.5991  -18.7410   21.6850 C.ar    1  UNL1        0.2359
     21 N         -10.5586  -17.3122   21.2302 N.ar    1  UNL1       -0.2062
     22 C         -10.2243  -16.2235   22.2064 C.ar    1  UNL1        0.1395
     23 C          -9.9305  -16.5636   23.6375 C.ar    1  UNL1        0.1673
     24 C          -9.9709  -17.9925   24.0923 C.ar    1  UNL1        0.0553
     25 C         -10.3052  -19.0811   23.1161 C.ar    1  UNL1        0.1138
     26 CL        -10.3456  -20.5099   23.5709 Cl      1  UNL1       -0.0773
     27 O         -10.9334  -19.8297   20.7087 O.3     1  UNL1       -0.4597
     28 C         -10.4797  -19.7238   19.2829 C.3     1  UNL1        0.2070
     29 C          -8.9263  -21.2133   17.8275 C.3     1  UNL1        0.0038
     30 C          -9.1028  -20.1777   18.8983 C.3     1  UNL1        0.0438
     31 C          -7.9024  -19.5961   19.5843 C.3     1  UNL1        0.0038
@<TRIPOS>BOND
     1    29    30    1
     2    30    31    1
     3    30    28    1
     4    28    27    1
     5    27    20    1
     6    20    21   ar
     7    21    22   ar
     8    22    23   ar
     9    23    19    1
    10    19     1    1
    11     1     2   ar
    12     2     3   ar
    13     3     4   ar
    14     4     5   ar
    15     5     6   ar
    16     6     7   ar
    17     7    11    1
    18    11    12    2
    19    11    13   am
    20    13    15    1
    21    15    16    1
    22    15    17    2
    23    15    18    2
    24     7     8   ar
    25     8     9   ar
    26     9    10   ar
    27    23    24   ar
    28    24    25   ar
    29    25    26    1
    30    25    20   ar
    31    10     1   ar
    32    10     5   ar
    33    13    14    1
@<TRIPOS>MOLECULE
*****
 31 33 0 0 0
SMALL
GASTEIGER

@<TRIPOS>ATOM
      1 C           3.7571   -1.9296   19.1241 C.ar    1  UNL1        0.2296
      2 N           4.8331   -1.7783   18.0900 N.ar    1  UNL1       -0.2098
      3 C           4.9051   -0.5312   17.2596 C.ar    1  UNL1        0.1021
      4 C           3.9011    0.5645   17.4633 C.ar    1  UNL1        0.0209
      5 C           2.8252    0.4131   18.4974 C.ar    1  UNL1        0.0062
      6 C           1.8212    1.5089   18.7011 C.ar    1  UNL1        0.0048
      7 C           0.7452    1.3575   19.7351 C.ar    1  UNL1        0.0548
      8 C           0.6731    0.1103   20.5655 C.ar    1  UNL1        0.0047
      9 C           1.6771   -0.9854   20.3619 C.ar    1  UNL1        0.0048
     10 C           2.7531   -0.8339   19.3277 C.ar    1  UNL1        0.0536
     11 C          -0.2588    2.4532   19.9388 C.2     1  UNL1        0.2640
     12 O          -0.3926    3.5466   18.9206 O.2     1  UNL1       -0.2686
     13 N          -1.1289    2.4555   21.1606 N.am    1  UNL1       -0.1852
     14 H          -1.0410    1.7379   21.8288 H       1  UNL1        0.1765
     15 S          -2.1328    3.5512   21.3643 S.O2    1  UNL1        0.0581
     16 C          -3.1368    4.6469   21.5679 C.3     1  UNL1        0.1997
     17 O          -3.1841    2.7111   20.7017 O.2     1  UNL1       -0.1543
     18 O          -1.0815    4.3913   22.0268 O.2     1  UNL1       -0.1543
     19 O           3.6850   -3.1768   19.9545 O.3     1  UNL1       -0.4345
     20 C           6.9624   -4.1168   22.8913 C.ar    1  UNL1        0.2359
     21 N           5.6045   -3.7152   23.3860 N.ar    1  UNL1       -0.2062
     22 C           4.5121   -3.4019   22.4071 C.ar    1  UNL1        0.1395
     23 C           4.7775   -3.4901   20.9334 C.ar    1  UNL1        0.1673
     24 C           6.1355   -3.8916   20.4387 C.ar    1  UNL1        0.0553
     25 C           7.2280   -4.2050   21.4176 C.ar    1  UNL1        0.1138
     26 CL          8.5859   -4.6065   20.9229 Cl      1  UNL1       -0.0773
     27 O           8.0549   -4.4301   23.8703 O.3     1  UNL1       -0.4597
     28 C           7.8116   -5.4138   24.9762 C.3     1  UNL1        0.2070
     29 C           7.6880   -7.8736   25.8036 C.3     1  UNL1        0.0038
     30 C           8.0635   -6.8750   24.7491 C.3     1  UNL1        0.0438
     31 C           8.6910   -7.3376   23.4676 C.3     1  UNL1        0.0038
@<TRIPOS>BOND
     1    29    30    1
     2    30    31    1
     3    30    28    1
     4    28    27    1
     5    27    20    1
     6    20    21   ar
     7    21    22   ar
     8    22    23   ar
     9    23    19    1
    10    19     1    1
    11     1     2   ar
    12     2     3   ar
    13     3     4   ar
    14     4     5   ar
    15     5     6   ar
    16     6     7   ar
    17     7    11    1
    18    11    12    2
    19    11    13   am
    20    13    15    1
    21    15    16    1
    22    15    17    2
    23    15    18    2
    24     7     8   ar
    25     8     9   ar
    26     9    10   ar
    27    23    24   ar
    28    24    25   ar
    29    25    26    1
    30    25    20   ar
    31    10     1   ar
    32    10     5   ar
    33    13    14    1
@<TRIPOS>MOLECULE
*****
 31 33 0 0 0
SMALL
GASTEIGER

@<TRIPOS>ATOM
      1 C          -5.7828  -15.1643   24.9178 C.ar    1  UNL1        0.2296
      2 N          -5.5746  -14.7603   26.3473 N.ar    1  UNL1       -0.2098
      3 C          -6.6387  -15.0375   27.3675 C.ar    1  UNL1        0.1021
      4 C          -7.9109  -15.7187   26.9583 C.ar    1  UNL1        0.0209
      5 C          -8.1191  -16.1227   25.5288 C.ar    1  UNL1        0.0062
      6 C          -9.3913  -16.8038   25.1196 C.ar    1  UNL1        0.0048
      7 C          -9.5995  -17.2078   23.6901 C.ar    1  UNL1        0.0548
      8 C          -8.5354  -16.9307   22.6698 C.ar    1  UNL1        0.0047
      9 C          -7.2631  -16.2495   23.0790 C.ar    1  UNL1        0.0048
     10 C          -7.0550  -15.8455   24.5086 C.ar    1  UNL1        0.0536
     11 C         -10.8717  -17.8890   23.2809 C.2     1  UNL1        0.2640
     12 O         -10.9476  -19.3870   23.2613 O.2     1  UNL1       -0.2686
     13 N         -12.0679  -17.0722   22.8913 N.am    1  UNL1       -0.1852
     14 H         -12.0181  -16.0891   22.9042 H       1  UNL1        0.1765
     15 S         -13.3401  -17.7534   22.4821 S.O2    1  UNL1        0.0581
     16 C         -14.6124  -18.4346   22.0728 C.3     1  UNL1        0.1997
     17 O         -13.7590  -17.8351   23.9201 O.2     1  UNL1       -0.1543
     18 O         -12.9213  -17.6718   21.0440 O.2     1  UNL1       -0.1543
     19 O          -4.7187  -14.8872   23.8975 O.3     1  UNL1       -0.4345
     20 C          -2.3925  -18.2897   22.0914 C.ar    1  UNL1        0.2359
     21 N          -3.4324  -18.5637   23.1371 N.ar    1  UNL1       -0.2062
     22 C          -4.2078  -17.4296   23.7391 C.ar    1  UNL1        0.1395
     23 C          -3.9433  -16.0213   23.2955 C.ar    1  UNL1        0.1673
     24 C          -2.9034  -15.7472   22.2497 C.ar    1  UNL1        0.0553
     25 C          -2.1280  -16.8814   21.6477 C.ar    1  UNL1        0.1138
     26 CL         -1.0881  -16.6073   20.6020 Cl      1  UNL1       -0.0773
     27 O          -1.6171  -19.4238   21.4894 O.3     1  UNL1       -0.4597
     28 C          -2.2422  -20.2797   20.4279 C.3     1  UNL1        0.2070
     29 C          -3.7276  -18.6800   19.0191 C.3     1  UNL1        0.0038
     30 C          -3.5817  -19.9128   19.8611 C.3     1  UNL1        0.0438
     31 C          -4.7752  -20.7788   20.1362 C.3     1  UNL1        0.0038
@<TRIPOS>BOND
     1    29    30    1
     2    30    31    1
     3    30    28    1
     4    28    27    1
     5    27    20    1
     6    20    21   ar
     7    21    22   ar
     8    22    23   ar
     9    23    19    1
    10    19     1    1
    11     1     2   ar
    12     2     3   ar
    13     3     4   ar
    14     4     5   ar
    15     5     6   ar
    16     6     7   ar
    17     7    11    1
    18    11    12    2
    19    11    13   am
    20    13    15    1
    21    15    16    1
    22    15    17    2
    23    15    18    2
    24     7     8   ar
    25     8     9   ar
    26     9    10   ar
    27    23    24   ar
    28    24    25   ar
    29    25    26    1
    30    25    20   ar
    31    10     1   ar
    32    10     5   ar
    33    13    14    1
@<TRIPOS>MOLECULE
*****
 31 33 0 0 0
SMALL
GASTEIGER

@<TRIPOS>ATOM
      1 C           2.5242    0.5619   26.6254 C.ar    1  UNL1        0.2296
      2 N           2.6216   -0.2988   27.8500 N.ar    1  UNL1       -0.2098
      3 C           1.4729   -0.3669   28.8121 C.ar    1  UNL1        0.1021
      4 C           0.2267    0.4256   28.5496 C.ar    1  UNL1        0.0209
      5 C           0.1292    1.2863   27.3250 C.ar    1  UNL1        0.0062
      6 C          -1.1170    2.0788   27.0625 C.ar    1  UNL1        0.0048
      7 C          -1.2144    2.9394   25.8378 C.ar    1  UNL1        0.0548
      8 C          -0.0656    3.0076   24.8757 C.ar    1  UNL1        0.0047
      9 C           1.1806    2.2150   25.1382 C.ar    1  UNL1        0.0048
     10 C           1.2780    1.3544   26.3629 C.ar    1  UNL1        0.0536
     11 C          -2.4606    3.7319   25.5753 C.2     1  UNL1        0.2640
     12 O          -2.6211    4.4697   24.2792 O.2     1  UNL1       -0.2686
     13 N          -3.5463    3.7866   26.6089 N.am    1  UNL1       -0.1852
     14 H          -3.4409    3.3024   27.4596 H       1  UNL1        0.1765
     15 S          -4.7925    4.5791   26.3464 S.O2    1  UNL1        0.0581
     16 C          -6.0387    5.3717   26.0838 C.3     1  UNL1        0.1997
     17 O          -5.3063    3.4793   25.4652 O.2     1  UNL1       -0.1543
     18 O          -4.2787    5.6790   27.2275 O.2     1  UNL1       -0.1543
     19 O           3.6730    0.6300   25.6632 O.3     1  UNL1       -0.4345
     20 C           4.3349   -2.7002   22.7100 C.ar    1  UNL1        0.2359
     21 N           4.9702   -2.7641   24.0673 N.ar    1  UNL1       -0.2062
     22 C           4.7496   -1.6540   25.0517 C.ar    1  UNL1        0.1395
     23 C           3.8936   -0.4801   24.6788 C.ar    1  UNL1        0.1673
     24 C           3.2583   -0.4161   23.3215 C.ar    1  UNL1        0.0553
     25 C           3.4789   -1.5262   22.3371 C.ar    1  UNL1        0.1138
     26 CL          2.8436   -1.4623   20.9798 Cl      1  UNL1       -0.0773
     27 O           4.5556   -3.8103   21.7257 O.3     1  UNL1       -0.4597
     28 C           5.5889   -3.6631   20.6484 C.3     1  UNL1        0.2070
     29 C           5.6786   -2.8404   18.1856 C.3     1  UNL1        0.0038
     30 C           5.2003   -3.8274   19.2089 C.3     1  UNL1        0.0438
     31 C           4.3335   -4.9787   18.7928 C.3     1  UNL1        0.0038
@<TRIPOS>BOND
     1    29    30    1
     2    30    31    1
     3    30    28    1
     4    28    27    1
     5    27    20    1
     6    20    21   ar
     7    21    22   ar
     8    22    23   ar
     9    23    19    1
    10    19     1    1
    11     1     2   ar
    12     2     3   ar
    13     3     4   ar
    14     4     5   ar
    15     5     6   ar
    16     6     7   ar
    17     7    11    1
    18    11    12    2
    19    11    13   am
    20    13    15    1
    21    15    16    1
    22    15    17    2
    23    15    18    2
    24     7     8   ar
    25     8     9   ar
    26     9    10   ar
    27    23    24   ar
    28    24    25   ar
    29    25    26    1
    30    25    20   ar
    31    10     1   ar
    32    10     5   ar
    33    13    14    1
@<TRIPOS>MOLECULE
*****
 31 33 0 0 0
SMALL
GASTEIGER

@<TRIPOS>ATOM
      1 C           7.7601   -3.8421   28.5837 C.ar    1  UNL1        0.2296
      2 N           8.2129   -5.2710   28.5277 N.ar    1  UNL1       -0.2098
      3 C           7.9982   -6.1725   29.7072 C.ar    1  UNL1        0.1021
      4 C           7.3305   -5.6451   30.9426 C.ar    1  UNL1        0.0209
      5 C           6.8777   -4.2162   30.9985 C.ar    1  UNL1        0.0062
      6 C           6.2101   -3.6888   32.2338 C.ar    1  UNL1        0.0048
      7 C           5.7572   -2.2599   32.2898 C.ar    1  UNL1        0.0548
      8 C           5.9720   -1.3583   31.1103 C.ar    1  UNL1        0.0047
      9 C           6.6396   -1.8857   29.8749 C.ar    1  UNL1        0.0048
     10 C           7.0925   -3.3147   29.8190 C.ar    1  UNL1        0.0536
     11 C           5.0896   -1.7325   33.5251 C.2     1  UNL1        0.2640
     12 O           3.8489   -2.3941   34.0477 O.2     1  UNL1       -0.2686
     13 N           5.6627   -0.5436   34.2379 N.am    1  UNL1       -0.1852
     14 H           6.4770   -0.1094   33.8949 H       1  UNL1        0.1765
     15 S           4.9950   -0.0162   35.4732 S.O2    1  UNL1        0.0581
     16 C           4.3274    0.5113   36.7086 C.3     1  UNL1        0.1997
     17 O           4.0345    0.7607   34.6225 O.2     1  UNL1       -0.1543
     18 O           5.9556   -0.7930   36.3240 O.2     1  UNL1       -0.1543
     19 O           7.9749   -2.9406   27.4042 O.3     1  UNL1       -0.4345
     20 C           5.3655   -3.3429   23.7601 C.ar    1  UNL1        0.2359
     21 N           6.5132   -4.2859   23.9686 N.ar    1  UNL1       -0.2062
     22 C           7.3830   -4.1518   25.1832 C.ar    1  UNL1        0.1395
     23 C           7.1051   -3.0747   26.1895 C.ar    1  UNL1        0.1673
     24 C           5.9573   -2.1316   25.9810 C.ar    1  UNL1        0.0553
     25 C           5.0875   -2.2657   24.7663 C.ar    1  UNL1        0.1138
     26 CL          3.9398   -1.3227   24.5579 Cl      1  UNL1       -0.0773
     27 O           4.4957   -3.4770   22.5454 O.3     1  UNL1       -0.4597
     28 C           5.1185   -3.6720   21.1948 C.3     1  UNL1        0.2070
     29 C           4.3110   -4.7989   18.9975 C.3     1  UNL1        0.0038
     30 C           4.2615   -3.6527   19.9639 C.3     1  UNL1        0.0438
     31 C           3.3549   -2.4873   19.6993 C.3     1  UNL1        0.0038
@<TRIPOS>BOND
     1    29    30    1
     2    30    31    1
     3    30    28    1
     4    28    27    1
     5    27    20    1
     6    20    21   ar
     7    21    22   ar
     8    22    23   ar
     9    23    19    1
    10    19     1    1
    11     1     2   ar
    12     2     3   ar
    13     3     4   ar
    14     4     5   ar
    15     5     6   ar
    16     6     7   ar
    17     7    11    1
    18    11    12    2
    19    11    13   am
    20    13    15    1
    21    15    16    1
    22    15    17    2
    23    15    18    2
    24     7     8   ar
    25     8     9   ar
    26     9    10   ar
    27    23    24   ar
    28    24    25   ar
    29    25    26    1
    30    25    20   ar
    31    10     1   ar
    32    10     5   ar
    33    13    14    1
@<TRIPOS>MOLECULE
*****
 31 33 0 0 0
SMALL
GASTEIGER

@<TRIPOS>ATOM
      1 C           5.8089   -3.3331   20.9992 C.ar    1  UNL1        0.2296
      2 N           5.8522   -4.5799   20.1665 N.ar    1  UNL1       -0.2098
      3 C           4.7633   -4.8560   19.1725 C.ar    1  UNL1        0.1021
      4 C           3.6312   -3.8853   19.0112 C.ar    1  UNL1        0.0209
      5 C           3.5879   -2.6385   19.8440 C.ar    1  UNL1        0.0062
      6 C           2.4558   -1.6678   19.6827 C.ar    1  UNL1        0.0048
      7 C           2.4125   -0.4210   20.5155 C.ar    1  UNL1        0.0548
      8 C           3.5014   -0.1448   21.5095 C.ar    1  UNL1        0.0047
      9 C           4.6336   -1.1155   21.6708 C.ar    1  UNL1        0.0048
     10 C           4.6768   -2.3624   20.8380 C.ar    1  UNL1        0.0536
     11 C           1.2804    0.5498   20.3542 C.2     1  UNL1        0.2640
     12 O          -0.1163    0.1400   20.7168 O.2     1  UNL1       -0.2686
     13 N           1.5449    1.9302   19.8305 N.am    1  UNL1       -0.1852
     14 H           2.4616    2.1991   19.5925 H       1  UNL1        0.1765
     15 S           0.4128    2.9009   19.6692 S.O2    1  UNL1        0.0581
     16 C          -0.7193    3.8716   19.5080 C.3     1  UNL1        0.1997
     17 O           0.5838    3.3371   21.0942 O.2     1  UNL1       -0.1543
     18 O           0.2418    2.4648   18.2442 O.2     1  UNL1       -0.1543
     19 O           6.8978   -3.0569   21.9933 O.3     1  UNL1       -0.4345
     20 C           7.2412   -5.5699   25.7104 C.ar    1  UNL1        0.2359
     21 N           6.5479   -4.2408   25.7650 N.ar    1  UNL1       -0.2062
     22 C           6.4334   -3.4032   24.5259 C.ar    1  UNL1        0.1395
     23 C           7.0123   -3.8946   23.2323 C.ar    1  UNL1        0.1673
     24 C           7.7056   -5.2237   23.1777 C.ar    1  UNL1        0.0553
     25 C           7.8200   -6.0613   24.4168 C.ar    1  UNL1        0.1138
     26 CL          8.5133   -7.3903   24.3622 Cl      1  UNL1       -0.0773
     27 O           7.3556   -6.4075   26.9495 O.3     1  UNL1       -0.4597
     28 C           8.4821   -6.1731   27.9118 C.3     1  UNL1        0.2070
     29 C           6.9459   -5.6866   29.9499 C.3     1  UNL1        0.0038
     30 C           8.2272   -5.4564   29.2046 C.3     1  UNL1        0.0438
     31 C           9.2537   -4.5096   29.7522 C.3     1  UNL1        0.0038
@<TRIPOS>BOND
     1    29    30    1
     2    30    31    1
     3    30    28    1
     4    28    27    1
     5    27    20    1
     6    20    21   ar
     7    21    22   ar
     8    22    23   ar
     9    23    19    1
    10    19     1    1
    11     1     2   ar
    12     2     3   ar
    13     3     4   ar
    14     4     5   ar
    15     5     6   ar
    16     6     7   ar
    17     7    11    1
    18    11    12    2
    19    11    13   am
    20    13    15    1
    21    15    16    1
    22    15    17    2
    23    15    18    2
    24     7     8   ar
    25     8     9   ar
    26     9    10   ar
    27    23    24   ar
    28    24    25   ar
    29    25    26    1
    30    25    20   ar
    31    10     1   ar
    32    10     5   ar
    33    13    14    1
@<TRIPOS>MOLECULE
*****
 31 33 0 0 0
SMALL
GASTEIGER

@<TRIPOS>ATOM
      1 C           1.5678    1.7177   25.3615 C.ar    1  UNL1        0.2296
      2 N           2.1178    0.8819   26.4790 N.ar    1  UNL1       -0.2098
      3 C           1.2936    0.6371   27.7081 C.ar    1  UNL1        0.1021
      4 C          -0.0805    1.2281   27.8196 C.ar    1  UNL1        0.0209
      5 C          -0.6305    2.0638   26.7021 C.ar    1  UNL1        0.0062
      6 C          -2.0047    2.6548   26.8136 C.ar    1  UNL1        0.0048
      7 C          -2.5546    3.4906   25.6960 C.ar    1  UNL1        0.0548
      8 C          -1.7304    3.7354   24.4669 C.ar    1  UNL1        0.0047
      9 C          -0.3563    3.1444   24.3553 C.ar    1  UNL1        0.0048
     10 C           0.1937    2.3086   25.4730 C.ar    1  UNL1        0.0536
     11 C          -3.9288    4.0815   25.8076 C.2     1  UNL1        0.2640
     12 O          -5.1241    3.2887   25.3683 O.2     1  UNL1       -0.2686
     13 N          -4.1077    5.4652   26.3584 N.am    1  UNL1       -0.1852
     14 H          -3.3233    5.9855   26.6467 H       1  UNL1        0.1765
     15 S          -5.4819    6.0561   26.4699 S.O2    1  UNL1        0.0581
     16 C          -6.8561    6.6471   26.5814 C.3     1  UNL1        0.1997
     17 O          -5.6025    5.5128   27.8628 O.2     1  UNL1       -0.1543
     18 O          -5.3613    6.5995   25.0770 O.2     1  UNL1       -0.1543
     19 O           2.3921    1.9625   24.1323 O.3     1  UNL1       -0.4345
     20 C           2.8145   -1.2666   21.0267 C.ar    1  UNL1        0.2359
     21 N           3.6928   -1.2759   22.2425 N.ar    1  UNL1       -0.2062
     22 C           3.5520   -0.1995   23.2778 C.ar    1  UNL1        0.1395
     23 C           2.5329    0.8861   23.0971 C.ar    1  UNL1        0.1673
     24 C           1.6545    0.8955   21.8811 C.ar    1  UNL1        0.0553
     25 C           1.7953   -0.1809   20.8459 C.ar    1  UNL1        0.1138
     26 CL          0.9170   -0.1715   19.6300 Cl      1  UNL1       -0.0773
     27 O           2.9553   -2.3429   19.9915 O.3     1  UNL1       -0.4597
     28 C           4.1243   -2.3313   19.0516 C.3     1  UNL1        0.2070
     29 C           3.7521   -0.8494   16.9503 C.3     1  UNL1        0.0038
     30 C           4.4387   -1.0960   18.2610 C.3     1  UNL1        0.0438
     31 C           5.4397   -0.1072   18.7809 C.3     1  UNL1        0.0038
@<TRIPOS>BOND
     1    29    30    1
     2    30    31    1
     3    30    28    1
     4    28    27    1
     5    27    20    1
     6    20    21   ar
     7    21    22   ar
     8    22    23   ar
     9    23    19    1
    10    19     1    1
    11     1     2   ar
    12     2     3   ar
    13     3     4   ar
    14     4     5   ar
    15     5     6   ar
    16     6     7   ar
    17     7    11    1
    18    11    12    2
    19    11    13   am
    20    13    15    1
    21    15    16    1
    22    15    17    2
    23    15    18    2
    24     7     8   ar
    25     8     9   ar
    26     9    10   ar
    27    23    24   ar
    28    24    25   ar
    29    25    26    1
    30    25    20   ar
    31    10     1   ar
    32    10     5   ar
    33    13    14    1
@<TRIPOS>MOLECULE
*****
 31 33 0 0 0
SMALL
GASTEIGER

@<TRIPOS>ATOM
      1 C           6.0194   -0.1103   17.2567 C.ar    1  UNL1        0.2296
      2 N           7.2376    0.6149   16.7669 N.ar    1  UNL1       -0.2098
      3 C           7.2990    2.1119   16.8395 C.ar    1  UNL1        0.1021
      4 C           6.1422    2.8836   17.4020 C.ar    1  UNL1        0.0209
      5 C           4.9241    2.1583   17.8919 C.ar    1  UNL1        0.0062
      6 C           3.7673    2.9300   18.4544 C.ar    1  UNL1        0.0048
      7 C           2.5491    2.2048   18.9442 C.ar    1  UNL1        0.0548
      8 C           2.4877    0.7077   18.8716 C.ar    1  UNL1        0.0047
      9 C           3.6444   -0.0640   18.3091 C.ar    1  UNL1        0.0048
     10 C           4.8627    0.6614   17.8192 C.ar    1  UNL1        0.0536
     11 C           1.3924    2.9765   19.5067 C.2     1  UNL1        0.2640
     12 O           1.6382    4.1053   20.4635 O.2     1  UNL1       -0.2686
     13 N          -0.0101    2.6193   19.1125 N.am    1  UNL1       -0.1852
     14 H          -0.1714    1.8784   18.4846 H       1  UNL1        0.1765
     15 S          -1.1669    3.3910   19.6750 S.O2    1  UNL1        0.0581
     16 C          -2.3236    4.1627   20.2375 C.3     1  UNL1        0.1997
     17 O          -1.0460    4.3858   18.5588 O.2     1  UNL1       -0.1543
     18 O          -1.2877    2.3963   20.7912 O.2     1  UNL1       -0.1543
     19 O           5.9580   -1.6073   17.1841 O.3     1  UNL1       -0.4345
     20 C           7.0515   -4.0811   20.7806 C.ar    1  UNL1        0.2359
     21 N           5.7295   -4.2870   20.1026 N.ar    1  UNL1       -0.2062
     22 C           5.3649   -3.4624   18.9038 C.ar    1  UNL1        0.1395
     23 C           6.3225   -2.4319   18.3829 C.ar    1  UNL1        0.1673
     24 C           7.6446   -2.2261   19.0610 C.ar    1  UNL1        0.0553
     25 C           8.0091   -3.0507   20.2598 C.ar    1  UNL1        0.1138
     26 CL          9.3312   -2.8448   20.9378 Cl      1  UNL1       -0.0773
     27 O           7.4160   -4.9057   21.9794 O.3     1  UNL1       -0.4597
     28 C           7.0523   -4.4310   23.3550 C.3     1  UNL1        0.2070
     29 C           7.1678   -1.8762   23.8133 C.3     1  UNL1        0.0038
     30 C           6.3628   -3.1110   23.5350 C.3     1  UNL1        0.0438
     31 C           4.8685   -3.0259   23.4366 C.3     1  UNL1        0.0038
@<TRIPOS>BOND
     1    29    30    1
     2    30    31    1
     3    30    28    1
     4    28    27    1
     5    27    20    1
     6    20    21   ar
     7    21    22   ar
     8    22    23   ar
     9    23    19    1
    10    19     1    1
    11     1     2   ar
    12     2     3   ar
    13     3     4   ar
    14     4     5   ar
    15     5     6   ar
    16     6     7   ar
    17     7    11    1
    18    11    12    2
    19    11    13   am
    20    13    15    1
    21    15    16    1
    22    15    17    2
    23    15    18    2
    24     7     8   ar
    25     8     9   ar
    26     9    10   ar
    27    23    24   ar
    28    24    25   ar
    29    25    26    1
    30    25    20   ar
    31    10     1   ar
    32    10     5   ar
    33    13    14    1
