@<TRIPOS>MOLECULE
*****
 17 18 0 0 0
SMALL
GASTEIGER

@<TRIPOS>ATOM
      1 C         -10.4055  -18.7360   20.6712 C.ar    1  UNL1        0.1386
      2 C          -9.4199  -18.2354   21.6850 C.ar    1  UNL1        0.0369
      3 C          -7.9533  -18.4829   21.4910 C.ar    1  UNL1        0.0046
      4 C          -7.4722  -19.2311   20.2833 C.ar    1  UNL1        0.0174
      5 C          -8.4578  -19.7317   19.2694 C.ar    1  UNL1        0.0046
      6 C          -9.9245  -19.4841   19.4634 C.ar    1  UNL1        0.0369
      7 C          -6.0055  -19.4786   20.0893 C.ar    1  UNL1        0.0772
      8 C          -5.2794  -20.7559   20.3914 C.ar    1  UNL1        0.1175
      9 N          -3.8326  -20.5590   20.0480 N.ar    1  UNL1       -0.2225
     10 C          -3.6645  -19.1600   19.5337 C.ar    1  UNL1        0.1750
     11 N          -5.0074  -18.4923   19.5592 N.ar    1  UNL1       -0.3349
     12 H          -5.2000  -17.5688   19.2775 H       1  UNL1        0.1675
     13 O         -11.8722  -18.4885   20.8651 O.3     1  UNL1       -0.4755
     14 C         -12.3523  -17.1402   21.3141 C.3     1  UNL1        0.2054
     15 C         -12.7336  -16.9191   22.7479 C.3     1  UNL1        0.0473
     16 C         -14.1381  -18.2238   24.5016 C.3     1  UNL1        0.0001
     17 C         -12.8969  -18.0910   23.6699 C.3     1  UNL1        0.0038
@<TRIPOS>BOND
     1    16    17    1
     2    17    15    1
     3    15    14    1
     4    14    13    1
     5    13     1    1
     6     1     2   ar
     7     2     3   ar
     8     3     4   ar
     9     4     7    1
    10     7     8   ar
    11     8     9   ar
    12     9    10   ar
    13    10    11   ar
    14     4     5   ar
    15     5     6   ar
    16     6     1   ar
    17    11     7   ar
    18    11    12    1
@<TRIPOS>MOLECULE
*****
 17 18 0 0 0
SMALL
GASTEIGER

@<TRIPOS>ATOM
      1 C         -10.3286  -19.2165   20.8750 C.ar    1  UNL1        0.1386
      2 C          -9.8086  -19.3999   19.4801 C.ar    1  UNL1        0.0369
      3 C          -8.3314  -19.4921   19.2365 C.ar    1  UNL1        0.0046
      4 C          -7.3742  -19.4009   20.3877 C.ar    1  UNL1        0.0174
      5 C          -7.8943  -19.2175   21.7827 C.ar    1  UNL1        0.0046
      6 C          -9.3715  -19.1253   22.0263 C.ar    1  UNL1        0.0369
      7 C          -5.8970  -19.4931   20.1441 C.ar    1  UNL1        0.0772
      8 C          -5.0230  -20.6705   20.4602 C.ar    1  UNL1        0.1175
      9 N          -3.6203  -20.3292   20.0530 N.ar    1  UNL1       -0.2225
     10 C          -3.6273  -18.9409   19.4853 C.ar    1  UNL1        0.1750
     11 N          -5.0343  -18.4241   19.5415 N.ar    1  UNL1       -0.3349
     12 H          -5.3383  -17.5388   19.2365 H       1  UNL1        0.1675
     13 O         -11.8058  -19.1243   21.1187 O.3     1  UNL1       -0.4755
     14 C         -12.4428  -17.7895   21.3687 C.3     1  UNL1        0.2054
     15 C         -12.5057  -17.2376   22.7620 C.3     1  UNL1        0.0473
     16 C         -14.2221  -18.2226   24.4454 C.3     1  UNL1        0.0001
     17 C         -12.8214  -18.1445   23.9144 C.3     1  UNL1        0.0038
@<TRIPOS>BOND
     1    16    17    1
     2    17    15    1
     3    15    14    1
     4    14    13    1
     5    13     1    1
     6     1     2   ar
     7     2     3   ar
     8     3     4   ar
     9     4     7    1
    10     7     8   ar
    11     8     9   ar
    12     9    10   ar
    13    10    11   ar
    14     4     5   ar
    15     5     6   ar
    16     6     1   ar
    17    11     7   ar
    18    11    12    1
@<TRIPOS>MOLECULE
*****
 17 18 0 0 0
SMALL
GASTEIGER

@<TRIPOS>ATOM
      1 C          -9.7422  -18.4954   23.8031 C.ar    1  UNL1        0.1386
      2 C          -8.9060  -17.2909   23.4874 C.ar    1  UNL1        0.0369
      3 C          -7.6371  -17.4436   22.7021 C.ar    1  UNL1        0.0046
      4 C          -7.2045  -18.8008   22.2325 C.ar    1  UNL1        0.0174
      5 C          -8.0407  -20.0054   22.5482 C.ar    1  UNL1        0.0046
      6 C          -9.3095  -19.8527   23.3335 C.ar    1  UNL1        0.0369
      7 C          -5.9356  -18.9535   21.4472 C.ar    1  UNL1        0.0772
      8 C          -4.6131  -19.4092   21.9886 C.ar    1  UNL1        0.1175
      9 N          -3.6266  -19.4147   20.8586 N.ar    1  UNL1       -0.2225
     10 C          -4.3395  -18.9623   19.6188 C.ar    1  UNL1        0.1750
     11 N          -5.7666  -18.6773   19.9826 N.ar    1  UNL1       -0.3349
     12 H          -6.4689  -18.3640   19.3679 H       1  UNL1        0.1675
     13 O         -11.0110  -18.3428   24.5884 O.3     1  UNL1       -0.4755
     14 C         -12.3343  -18.3390   23.8822 C.3     1  UNL1        0.2054
     15 C         -12.6092  -17.3270   22.8097 C.3     1  UNL1        0.0473
     16 C         -11.3838  -17.9668   20.6098 C.3     1  UNL1        0.0001
     17 C         -12.6578  -17.7522   21.3720 C.3     1  UNL1        0.0038
@<TRIPOS>BOND
     1    16    17    1
     2    17    15    1
     3    15    14    1
     4    14    13    1
     5    13     1    1
     6     1     2   ar
     7     2     3   ar
     8     3     4   ar
     9     4     7    1
    10     7     8   ar
    11     8     9   ar
    12     9    10   ar
    13    10    11   ar
    14     4     5   ar
    15     5     6   ar
    16     6     1   ar
    17    11     7   ar
    18    11    12    1
@<TRIPOS>MOLECULE
*****
 17 18 0 0 0
SMALL
GASTEIGER

@<TRIPOS>ATOM
      1 C          -9.7364  -19.5093   21.5406 C.ar    1  UNL1        0.1386
      2 C          -9.3360  -19.3994   20.0993 C.ar    1  UNL1        0.0369
      3 C          -7.8849  -19.3184   19.7281 C.ar    1  UNL1        0.0046
      4 C          -6.8342  -19.3472   20.7982 C.ar    1  UNL1        0.0174
      5 C          -7.2347  -19.4571   22.2396 C.ar    1  UNL1        0.0046
      6 C          -8.6858  -19.5382   22.6108 C.ar    1  UNL1        0.0369
      7 C          -5.3831  -19.2662   20.4270 C.ar    1  UNL1        0.0772
      8 C          -4.2620  -20.0161   21.0832 C.ar    1  UNL1        0.1175
      9 N          -2.9844  -19.6344   20.3962 N.ar    1  UNL1       -0.2225
     10 C          -3.3159  -18.6486   19.3154 C.ar    1  UNL1        0.1750
     11 N          -4.7984  -18.4210   19.3344 N.ar    1  UNL1       -0.3349
     12 H          -5.2997  -17.8221   18.7351 H       1  UNL1        0.1675
     13 O         -11.1875  -19.5903   21.9118 O.3     1  UNL1       -0.4755
     14 C         -11.7576  -18.6389   22.9216 C.3     1  UNL1        0.2054
     15 C         -12.6225  -17.4985   22.4729 C.3     1  UNL1        0.0473
     16 C         -11.1773  -16.1102   20.8193 C.3     1  UNL1        0.0001
     17 C         -12.4216  -16.8940   21.1148 C.3     1  UNL1        0.0038
@<TRIPOS>BOND
     1    16    17    1
     2    17    15    1
     3    15    14    1
     4    14    13    1
     5    13     1    1
     6     1     2   ar
     7     2     3   ar
     8     3     4   ar
     9     4     7    1
    10     7     8   ar
    11     8     9   ar
    12     9    10   ar
    13    10    11   ar
    14     4     5   ar
    15     5     6   ar
    16     6     1   ar
    17    11     7   ar
    18    11    12    1
@<TRIPOS>MOLECULE
*****
 17 18 0 0 0
SMALL
GASTEIGER

@<TRIPOS>ATOM
      1 C          -8.9193  -19.1614   20.7287 C.ar    1  UNL1        0.1386
      2 C          -7.9671  -19.6365   19.6716 C.ar    1  UNL1        0.0369
      3 C          -6.4882  -19.5857   19.9167 C.ar    1  UNL1        0.0046
      4 C          -5.9614  -19.0599   21.2190 C.ar    1  UNL1        0.0174
      5 C          -6.9135  -18.5848   22.2761 C.ar    1  UNL1        0.0046
      6 C          -8.3925  -18.6356   22.0310 C.ar    1  UNL1        0.0369
      7 C          -4.4824  -19.0091   21.4641 C.ar    1  UNL1        0.0772
      8 C          -3.4720  -20.0010   20.9687 C.ar    1  UNL1        0.1175
      9 N          -2.1193  -19.5624   21.4460 N.ar    1  UNL1       -0.2225
     10 C          -2.2936  -18.2996   22.2364 C.ar    1  UNL1        0.1750
     11 N          -3.7541  -17.9576   22.2476 N.ar    1  UNL1       -0.3349
     12 H          -4.1629  -17.1796   22.6912 H       1  UNL1        0.1675
     13 O         -10.3983  -19.2122   20.4836 O.3     1  UNL1       -0.4755
     14 C         -11.3529  -18.8248   21.5738 C.3     1  UNL1        0.2054
     15 C         -12.4482  -17.8384   21.2961 C.3     1  UNL1        0.0473
     16 C         -11.6371  -15.9787   19.6732 C.3     1  UNL1        0.0001
     17 C         -12.1132  -16.4003   21.0317 C.3     1  UNL1        0.0038
@<TRIPOS>BOND
     1    16    17    1
     2    17    15    1
     3    15    14    1
     4    14    13    1
     5    13     1    1
     6     1     2   ar
     7     2     3   ar
     8     3     4   ar
     9     4     7    1
    10     7     8   ar
    11     8     9   ar
    12     9    10   ar
    13    10    11   ar
    14     4     5   ar
    15     5     6   ar
    16     6     1   ar
    17    11     7   ar
    18    11    12    1
@<TRIPOS>MOLECULE
*****
 17 18 0 0 0
SMALL
GASTEIGER

@<TRIPOS>ATOM
      1 C          -9.4370  -18.5986   21.0808 C.ar    1  UNL1        0.1386
      2 C          -8.8065  -19.4317   20.0046 C.ar    1  UNL1        0.0369
      3 C          -7.3199  -19.6312   19.9846 C.ar    1  UNL1        0.0046
      4 C          -6.4639  -18.9974   21.0407 C.ar    1  UNL1        0.0174
      5 C          -7.0944  -18.1643   22.1170 C.ar    1  UNL1        0.0046
      6 C          -8.5810  -17.9649   22.1370 C.ar    1  UNL1        0.0369
      7 C          -4.9774  -19.1969   21.0207 C.ar    1  UNL1        0.0772
      8 C          -4.0923  -19.1096   19.8128 C.ar    1  UNL1        0.1175
      9 N          -2.6828  -19.3774   20.2506 N.ar    1  UNL1       -0.2225
     10 C          -2.6967  -19.6301   21.7291 C.ar    1  UNL1        0.1750
     11 N          -4.1149  -19.5185   22.2050 N.ar    1  UNL1       -0.3349
     12 H          -4.4251  -19.6358   23.1320 H       1  UNL1        0.1675
     13 O         -10.9236  -18.3992   21.1009 O.3     1  UNL1       -0.4755
     14 C         -11.5665  -17.6647   22.2397 C.3     1  UNL1        0.2054
     15 C         -12.1295  -18.4278   23.4019 C.3     1  UNL1        0.0473
     16 C         -10.4516  -20.1027   24.4648 C.3     1  UNL1        0.0001
     17 C         -11.2375  -18.8272   24.5398 C.3     1  UNL1        0.0038
@<TRIPOS>BOND
     1    16    17    1
     2    17    15    1
     3    15    14    1
     4    14    13    1
     5    13     1    1
     6     1     2   ar
     7     2     3   ar
     8     3     4   ar
     9     4     7    1
    10     7     8   ar
    11     8     9   ar
    12     9    10   ar
    13    10    11   ar
    14     4     5   ar
    15     5     6   ar
    16     6     1   ar
    17    11     7   ar
    18    11    12    1
@<TRIPOS>MOLECULE
*****
 17 18 0 0 0
SMALL
GASTEIGER

@<TRIPOS>ATOM
      1 C          -9.3071  -18.0330   23.3521 C.ar    1  UNL1        0.1386
      2 C          -8.1497  -17.0847   23.2473 C.ar    1  UNL1        0.0369
      3 C          -6.8487  -17.5507   22.6641 C.ar    1  UNL1        0.0046
      4 C          -6.7051  -18.9651   22.1857 C.ar    1  UNL1        0.0174
      5 C          -7.8625  -19.9134   22.2905 C.ar    1  UNL1        0.0046
      6 C          -9.1635  -19.4473   22.8737 C.ar    1  UNL1        0.0369
      7 C          -5.4041  -19.4311   21.6025 C.ar    1  UNL1        0.0772
      8 C          -5.2430  -20.3348   20.4162 C.ar    1  UNL1        0.1175
      9 N          -3.7751  -20.5375   20.1837 N.ar    1  UNL1       -0.2225
     10 C          -3.0288  -19.7591   21.2263 C.ar    1  UNL1        0.1750
     11 N          -4.0356  -19.0753   22.1032 N.ar    1  UNL1       -0.3349
     12 H          -3.8337  -18.4948   22.8723 H       1  UNL1        0.1675
     13 O         -10.6082  -17.5669   23.9353 O.3     1  UNL1       -0.4755
     14 C         -11.8196  -18.4488   23.8666 C.3     1  UNL1        0.2054
     15 C         -13.1429  -17.8746   23.4554 C.3     1  UNL1        0.0473
     16 C         -14.2829  -18.4719   25.7123 C.3     1  UNL1        0.0001
     17 C         -14.3788  -18.2019   24.2400 C.3     1  UNL1        0.0038
@<TRIPOS>BOND
     1    16    17    1
     2    17    15    1
     3    15    14    1
     4    14    13    1
     5    13     1    1
     6     1     2   ar
     7     2     3   ar
     8     3     4   ar
     9     4     7    1
    10     7     8   ar
    11     8     9   ar
    12     9    10   ar
    13    10    11   ar
    14     4     5   ar
    15     5     6   ar
    16     6     1   ar
    17    11     7   ar
    18    11    12    1
@<TRIPOS>MOLECULE
*****
 17 18 0 0 0
SMALL
GASTEIGER

@<TRIPOS>ATOM
      1 C          -8.1417  -19.2873   21.4683 C.ar    1  UNL1        0.1386
      2 C          -7.6497  -19.5414   20.0743 C.ar    1  UNL1        0.0369
      3 C          -6.1891  -19.4102   19.7589 C.ar    1  UNL1        0.0046
      4 C          -5.2205  -19.0251   20.8375 C.ar    1  UNL1        0.0174
      5 C          -5.7126  -18.7710   22.2315 C.ar    1  UNL1        0.0046
      6 C          -7.1732  -18.9021   22.5469 C.ar    1  UNL1        0.0369
      7 C          -3.7599  -18.8939   20.5222 C.ar    1  UNL1        0.0772
      8 C          -2.6411  -19.6199   21.2086 C.ar    1  UNL1        0.1175
      9 N          -1.3514  -19.1885   20.5757 N.ar    1  UNL1       -0.2225
     10 C          -1.6731  -18.1959   19.4981 C.ar    1  UNL1        0.1750
     11 N          -3.1617  -18.0138   19.4651 N.ar    1  UNL1       -0.3349
     12 H          -3.6588  -17.4208   18.8564 H       1  UNL1        0.1675
     13 O          -9.6023  -19.4184   21.7836 O.3     1  UNL1       -0.4755
     14 C         -10.0624  -19.4401   23.2111 C.3     1  UNL1        0.2054
     15 C         -10.8538  -18.2909   23.7617 C.3     1  UNL1        0.0473
     16 C         -13.3679  -17.7525   23.3883 C.3     1  UNL1        0.0001
     17 C         -12.2932  -18.4832   24.1374 C.3     1  UNL1        0.0038
@<TRIPOS>BOND
     1    16    17    1
     2    17    15    1
     3    15    14    1
     4    14    13    1
     5    13     1    1
     6     1     2   ar
     7     2     3   ar
     8     3     4   ar
     9     4     7    1
    10     7     8   ar
    11     8     9   ar
    12     9    10   ar
    13    10    11   ar
    14     4     5   ar
    15     5     6   ar
    16     6     1   ar
    17    11     7   ar
    18    11    12    1
@<TRIPOS>MOLECULE
*****
 17 18 0 0 0
SMALL
GASTEIGER

@<TRIPOS>ATOM
      1 C          -8.8459  -16.6340   25.9381 C.ar    1  UNL1        0.1386
      2 C          -9.3969  -17.9976   25.6434 C.ar    1  UNL1        0.0369
      3 C          -9.9218  -18.3147   24.2745 C.ar    1  UNL1        0.0046
      4 C          -9.8957  -17.2682   23.2003 C.ar    1  UNL1        0.0174
      5 C          -9.3447  -15.9046   23.4950 C.ar    1  UNL1        0.0046
      6 C          -8.8198  -15.5875   24.8639 C.ar    1  UNL1        0.0369
      7 C         -10.4207  -17.5853   21.8314 C.ar    1  UNL1        0.0772
      8 C         -11.4988  -16.8367   21.1053 C.ar    1  UNL1        0.1175
      9 N         -11.7041  -17.4954   19.7734 N.ar    1  UNL1       -0.2225
     10 C         -10.7528  -18.6511   19.6763 C.ar    1  UNL1        0.1750
     11 N          -9.9596  -18.7066   20.9482 N.ar    1  UNL1       -0.3349
     12 H          -9.2594  -19.3637   21.1652 H       1  UNL1        0.1675
     13 O          -8.3209  -16.3169   27.3070 O.3     1  UNL1       -0.4755
     14 C          -7.0586  -15.5214   27.4605 C.3     1  UNL1        0.2054
     15 C          -5.8220  -15.9254   26.7136 C.3     1  UNL1        0.0473
     16 C          -5.1865  -15.7321   24.2019 C.3     1  UNL1        0.0001
     17 C          -5.3437  -15.1024   25.5542 C.3     1  UNL1        0.0038
@<TRIPOS>BOND
     1    16    17    1
     2    17    15    1
     3    15    14    1
     4    14    13    1
     5    13     1    1
     6     1     2   ar
     7     2     3   ar
     8     3     4   ar
     9     4     7    1
    10     7     8   ar
    11     8     9   ar
    12     9    10   ar
    13    10    11   ar
    14     4     5   ar
    15     5     6   ar
    16     6     1   ar
    17    11     7   ar
    18    11    12    1
