@<TRIPOS>MOLECULE
*****
 27 27 0 0 0
SMALL
GASTEIGER

@<TRIPOS>ATOM
      1 C          -8.1672  -17.8270   22.5876 C.2     1  UNL1        0.1534
      2 O          -7.9175  -16.8095   21.5142 O.2     1  UNL1       -0.2960
      3 C          -8.9579  -17.4531   23.8062 C.3     1  UNL1        0.0937
      4 C          -9.9366  -18.4266   24.3931 C.3     1  UNL1        0.1179
      5 O          -9.7423  -18.9348   25.7910 O.3     1  UNL1       -0.3840
      6 H          -8.9431  -18.5379   26.1712 H       1  UNL1        0.2104
      7 C         -11.1096  -18.8918   23.5821 C.3     1  UNL1        0.0297
      8 C         -12.4729  -18.3219   23.8399 C.3     1  UNL1        0.0025
      9 C         -13.0284  -17.2656   22.9311 C.3     1  UNL1        0.0001
     10 C         -12.1041  -16.2995   22.2511 C.3     1  UNL1        0.0000
     11 C         -11.9978  -16.2897   20.7550 C.3     1  UNL1        0.0000
     12 C         -11.0603  -17.2347   20.0635 C.3     1  UNL1        0.0000
     13 C         -11.3933  -18.6949   19.9806 C.3     1  UNL1        0.0000
     14 C          -9.3598  -19.8985   18.9006 C.3     1  UNL1        0.0000
     15 C         -10.2998  -19.7190   20.0557 C.3     1  UNL1        0.0000
     16 C          -7.6262  -19.2185   22.4424 C.3     1  UNL1        0.0693
     17 C          -6.7379  -19.5607   21.2833 C.3     1  UNL1        0.0342
     18 C          -5.2760  -19.2285   21.3350 C.ar    1  UNL1       -0.0185
     19 C          -4.6289  -18.8937   22.6461 C.ar    1  UNL1       -0.0009
     20 C          -3.1671  -18.5615   22.6978 C.ar    1  UNL1        0.0395
     21 C          -2.3524  -18.5641   21.4383 C.ar    1  UNL1        0.1677
     22 O          -0.8905  -18.2319   21.4900 O.3     1  UNL1       -0.5029
     23 C          -2.9995  -18.8989   20.1272 C.ar    1  UNL1        0.1718
     24 C          -4.4614  -19.2311   20.0755 C.ar    1  UNL1        0.0358
     25 H          -0.4863  -18.0227   22.3091 H       1  UNL1        0.2923
     26 O          -2.1848  -18.9014   18.8677 O.3     1  UNL1       -0.4684
     27 C          -1.8214  -17.6048   18.2069 C.3     1  UNL1        0.2526
@<TRIPOS>BOND
     1    14    15    1
     2    15    13    1
     3    13    12    1
     4    12    11    1
     5    11    10    1
     6    10     9    1
     7     9     8    1
     8     8     7    1
     9     7     4    1
    10     4     5    1
    11     4     3    1
    12     3     1    1
    13     1     2    2
    14     1    16    1
    15    16    17    1
    16    17    18    1
    17    18    19   ar
    18    19    20   ar
    19    20    21   ar
    20    21    22    1
    21    21    23   ar
    22    23    26    1
    23    26    27    1
    24    23    24   ar
    25    24    18   ar
    26     5     6    1
    27    22    25    1
@<TRIPOS>MOLECULE
*****
 27 27 0 0 0
SMALL
GASTEIGER

@<TRIPOS>ATOM
      1 C          -7.4785  -18.2918   21.8611 C.2     1  UNL1        0.1534
      2 O          -7.1949  -17.9968   20.4181 O.2     1  UNL1       -0.2960
      3 C          -7.6943  -17.1658   22.8285 C.3     1  UNL1        0.0937
      4 C          -8.9156  -16.3024   22.7140 C.3     1  UNL1        0.1179
      5 O          -9.0201  -15.2940   21.6085 O.3     1  UNL1       -0.3840
      6 H          -8.2198  -15.3295   21.0617 H       1  UNL1        0.2104
      7 C         -10.0322  -16.4475   23.7050 C.3     1  UNL1        0.0297
      8 C         -10.3985  -17.8044   24.2289 C.3     1  UNL1        0.0025
      9 C         -11.6186  -18.5050   23.7086 C.3     1  UNL1        0.0001
     10 C         -12.7260  -17.7137   23.0780 C.3     1  UNL1        0.0000
     11 C         -12.9422  -17.7764   21.5950 C.3     1  UNL1        0.0000
     12 C         -12.0540  -16.9937   20.6738 C.3     1  UNL1        0.0000
     13 C         -10.9467  -17.6838   19.9338 C.3     1  UNL1        0.0000
     14 C          -9.7655  -19.8923   19.2430 C.3     1  UNL1        0.0000
     15 C         -10.6953  -19.1461   20.1535 C.3     1  UNL1        0.0000
     16 C          -7.5463  -19.7127   22.3369 C.3     1  UNL1        0.0693
     17 C          -6.3478  -20.6052   22.2069 C.3     1  UNL1        0.0342
     18 C          -5.1127  -20.1066   21.5170 C.ar    1  UNL1       -0.0185
     19 C          -4.7812  -20.5846   20.1344 C.ar    1  UNL1       -0.0009
     20 C          -3.5461  -20.0860   19.4445 C.ar    1  UNL1        0.0395
     21 C          -2.6425  -19.1094   20.1373 C.ar    1  UNL1        0.1677
     22 O          -1.4074  -18.6108   19.4474 O.3     1  UNL1       -0.5029
     23 C          -2.9741  -18.6315   21.5199 C.ar    1  UNL1        0.1718
     24 C          -4.2092  -19.1301   22.2097 C.ar    1  UNL1        0.0358
     25 H          -1.2003  -18.9094   18.5837 H       1  UNL1        0.2923
     26 O          -2.0705  -17.6549   22.2127 O.3     1  UNL1       -0.4684
     27 C          -2.1489  -16.1944   21.8800 C.3     1  UNL1        0.2526
@<TRIPOS>BOND
     1    14    15    1
     2    15    13    1
     3    13    12    1
     4    12    11    1
     5    11    10    1
     6    10     9    1
     7     9     8    1
     8     8     7    1
     9     7     4    1
    10     4     5    1
    11     4     3    1
    12     3     1    1
    13     1     2    2
    14     1    16    1
    15    16    17    1
    16    17    18    1
    17    18    19   ar
    18    19    20   ar
    19    20    21   ar
    20    21    22    1
    21    21    23   ar
    22    23    26    1
    23    26    27    1
    24    23    24   ar
    25    24    18   ar
    26     5     6    1
    27    22    25    1
@<TRIPOS>MOLECULE
*****
 27 27 0 0 0
SMALL
GASTEIGER

@<TRIPOS>ATOM
      1 C          -8.5746  -18.0668   21.1736 C.2     1  UNL1        0.1534
      2 O          -7.7225  -16.8870   21.5369 O.2     1  UNL1       -0.2960
      3 C         -10.0460  -17.8870   20.9439 C.3     1  UNL1        0.0937
      4 C         -10.6711  -16.5336   21.1101 C.3     1  UNL1        0.1179
      5 O          -9.8332  -15.2977   20.9668 O.3     1  UNL1       -0.3840
      6 H          -8.9176  -15.5490   20.7684 H       1  UNL1        0.2104
      7 C         -12.1341  -16.4162   21.4197 C.3     1  UNL1        0.0297
      8 C         -12.6215  -16.6115   22.8248 C.3     1  UNL1        0.0025
      9 C         -12.9587  -17.9878   23.3171 C.3     1  UNL1        0.0001
     10 C         -12.2259  -18.5644   24.4921 C.3     1  UNL1        0.0000
     11 C         -10.7738  -18.9198   24.3695 C.3     1  UNL1        0.0000
     12 C          -9.7428  -18.1322   25.1223 C.3     1  UNL1        0.0000
     13 C          -9.2724  -16.8110   24.5902 C.3     1  UNL1        0.0000
     14 C          -8.2031  -16.1923   26.8757 C.3     1  UNL1        0.0000
     15 C          -8.7145  -15.7809   25.5269 C.3     1  UNL1        0.0000
     16 C          -7.9553  -19.4265   21.0401 C.3     1  UNL1        0.0693
     17 C          -6.7451  -19.6177   20.1747 C.3     1  UNL1        0.0342
     18 C          -5.3769  -19.3530   20.7296 C.ar    1  UNL1       -0.0185
     19 C          -5.1587  -19.3419   22.2136 C.ar    1  UNL1       -0.0009
     20 C          -3.7904  -19.0773   22.7685 C.ar    1  UNL1        0.0395
     21 C          -2.6405  -18.8237   21.8394 C.ar    1  UNL1        0.1677
     22 O          -1.2722  -18.5590   22.3943 O.3     1  UNL1       -0.5029
     23 C          -2.8587  -18.8348   20.3554 C.ar    1  UNL1        0.1718
     24 C          -4.2270  -19.0994   19.8005 C.ar    1  UNL1        0.0358
     25 H          -1.1359  -18.5521   23.3213 H       1  UNL1        0.2923
     26 O          -1.7087  -18.5812   19.4263 O.3     1  UNL1       -0.4684
     27 C          -1.8823  -17.6663   18.2504 C.3     1  UNL1        0.2526
@<TRIPOS>BOND
     1    14    15    1
     2    15    13    1
     3    13    12    1
     4    12    11    1
     5    11    10    1
     6    10     9    1
     7     9     8    1
     8     8     7    1
     9     7     4    1
    10     4     5    1
    11     4     3    1
    12     3     1    1
    13     1     2    2
    14     1    16    1
    15    16    17    1
    16    17    18    1
    17    18    19   ar
    18    19    20   ar
    19    20    21   ar
    20    21    22    1
    21    21    23   ar
    22    23    26    1
    23    26    27    1
    24    23    24   ar
    25    24    18   ar
    26     5     6    1
    27    22    25    1
@<TRIPOS>MOLECULE
*****
 27 27 0 0 0
SMALL
GASTEIGER

@<TRIPOS>ATOM
      1 C          -6.5245  -15.3955   24.2535 C.2     1  UNL1        0.1534
      2 O          -6.9347  -15.2439   25.6883 O.2     1  UNL1       -0.2960
      3 C          -7.5686  -15.4839   23.1802 C.3     1  UNL1        0.0937
      4 C          -8.0771  -16.8237   22.7370 C.3     1  UNL1        0.1179
      5 O          -7.6645  -17.3798   21.4063 O.3     1  UNL1       -0.3840
      6 H          -7.0724  -16.7522   20.9631 H       1  UNL1        0.2104
      7 C          -8.9981  -17.6074   23.6244 C.3     1  UNL1        0.0297
      8 C          -9.2753  -19.0516   23.3290 C.3     1  UNL1        0.0025
      9 C         -10.6828  -19.5689   23.3705 C.3     1  UNL1        0.0001
     10 C         -11.6905  -18.9291   24.2789 C.3     1  UNL1        0.0000
     11 C         -12.8286  -18.1418   23.7003 C.3     1  UNL1        0.0000
     12 C         -12.5600  -17.0702   22.6857 C.3     1  UNL1        0.0000
     13 C         -12.5484  -17.4071   21.2241 C.3     1  UNL1        0.0000
     14 C         -10.7077  -18.5398   19.7822 C.3     1  UNL1        0.0000
     15 C         -11.2705  -17.3168   20.4437 C.3     1  UNL1        0.0000
     16 C          -5.0701  -15.4588   23.8920 C.3     1  UNL1        0.0693
     17 C          -4.3526  -16.7761   23.8970 C.3     1  UNL1        0.0342
     18 C          -3.5568  -17.2013   22.6988 C.ar    1  UNL1       -0.0185
     19 C          -2.4370  -16.3384   22.1974 C.ar    1  UNL1       -0.0009
     20 C          -1.6411  -16.7636   20.9992 C.ar    1  UNL1        0.0395
     21 C          -1.9651  -18.0517   20.3022 C.ar    1  UNL1        0.1677
     22 O          -1.1692  -18.4769   19.1040 O.3     1  UNL1       -0.5029
     23 C          -3.0849  -18.9146   20.8035 C.ar    1  UNL1        0.1718
     24 C          -3.8807  -18.4894   22.0018 C.ar    1  UNL1        0.0358
     25 H          -0.4697  -17.9378   18.7908 H       1  UNL1        0.2923
     26 O          -3.4089  -20.2028   20.1066 O.3     1  UNL1       -0.4684
     27 C          -4.8059  -20.7473   20.1483 C.3     1  UNL1        0.2526
@<TRIPOS>BOND
     1    14    15    1
     2    15    13    1
     3    13    12    1
     4    12    11    1
     5    11    10    1
     6    10     9    1
     7     9     8    1
     8     8     7    1
     9     7     4    1
    10     4     5    1
    11     4     3    1
    12     3     1    1
    13     1     2    2
    14     1    16    1
    15    16    17    1
    16    17    18    1
    17    18    19   ar
    18    19    20   ar
    19    20    21   ar
    20    21    22    1
    21    21    23   ar
    22    23    26    1
    23    26    27    1
    24    23    24   ar
    25    24    18   ar
    26     5     6    1
    27    22    25    1
@<TRIPOS>MOLECULE
*****
 27 27 0 0 0
SMALL
GASTEIGER

@<TRIPOS>ATOM
      1 C          -6.8884  -15.5628   25.1364 C.2     1  UNL1        0.1534
      2 O          -7.6130  -15.5946   26.4493 O.2     1  UNL1       -0.2960
      3 C          -7.6230  -15.1882   23.8832 C.3     1  UNL1        0.0937
      4 C          -8.1699  -16.2588   22.9861 C.3     1  UNL1        0.1179
      5 O          -8.0566  -16.1195   21.4968 O.3     1  UNL1       -0.3840
      6 H          -7.6073  -15.2867   21.2832 H       1  UNL1        0.2104
      7 C          -8.8299  -17.4686   23.5781 C.3     1  UNL1        0.0297
      8 C          -8.5618  -18.8271   23.0013 C.3     1  UNL1        0.0025
      9 C          -9.5900  -19.9119   23.1279 C.3     1  UNL1        0.0001
     10 C         -10.9181  -19.7698   22.4451 C.3     1  UNL1        0.0000
     11 C         -10.9946  -19.7656   20.9471 C.3     1  UNL1        0.0000
     12 C         -10.5531  -18.5565   20.1770 C.3     1  UNL1        0.0000
     13 C         -11.4709  -17.3780   20.0404 C.3     1  UNL1        0.0000
     14 C         -11.9456  -16.1038   22.2543 C.3     1  UNL1        0.0000
     15 C         -12.4041  -17.0205   21.1591 C.3     1  UNL1        0.0000
     16 C          -5.4293  -15.9054   25.0764 C.3     1  UNL1        0.0693
     17 C          -4.6759  -15.7550   23.7881 C.3     1  UNL1        0.0342
     18 C          -4.1508  -16.9688   23.0803 C.ar    1  UNL1       -0.0185
     19 C          -5.0082  -18.1931   22.9543 C.ar    1  UNL1       -0.0009
     20 C          -4.4832  -19.4069   22.2464 C.ar    1  UNL1        0.0395
     21 C          -3.1007  -19.3963   21.6645 C.ar    1  UNL1        0.1677
     22 O          -2.5756  -20.6101   20.9567 O.3     1  UNL1       -0.5029
     23 C          -2.2433  -18.1720   21.7905 C.ar    1  UNL1        0.1718
     24 C          -2.7684  -16.9583   22.4984 C.ar    1  UNL1        0.0358
     25 H          -3.1112  -21.3749   20.8780 H       1  UNL1        0.2923
     26 O          -0.8608  -18.1614   21.2086 O.3     1  UNL1       -0.4684
     27 C          -0.5483  -17.2830   20.0336 C.3     1  UNL1        0.2526
@<TRIPOS>BOND
     1    14    15    1
     2    15    13    1
     3    13    12    1
     4    12    11    1
     5    11    10    1
     6    10     9    1
     7     9     8    1
     8     8     7    1
     9     7     4    1
    10     4     5    1
    11     4     3    1
    12     3     1    1
    13     1     2    2
    14     1    16    1
    15    16    17    1
    16    17    18    1
    17    18    19   ar
    18    19    20   ar
    19    20    21   ar
    20    21    22    1
    21    21    23   ar
    22    23    26    1
    23    26    27    1
    24    23    24   ar
    25    24    18   ar
    26     5     6    1
    27    22    25    1
@<TRIPOS>MOLECULE
*****
 27 27 0 0 0
SMALL
GASTEIGER

@<TRIPOS>ATOM
      1 C          -6.0509  -15.2713   24.9289 C.2     1  UNL1        0.1534
      2 O          -5.6395  -14.4934   26.1436 O.2     1  UNL1       -0.2960
      3 C          -7.4988  -15.5855   24.6943 C.3     1  UNL1        0.0937
      4 C          -8.0135  -15.7491   23.2949 C.3     1  UNL1        0.1179
      5 O          -7.7099  -14.7088   22.2577 O.3     1  UNL1       -0.3840
      6 H          -7.1753  -14.0032   22.6542 H       1  UNL1        0.2104
      7 C          -8.8317  -16.9529   22.9327 C.3     1  UNL1        0.0297
      8 C          -9.9925  -17.3572   23.7924 C.3     1  UNL1        0.0025
      9 C         -11.3727  -17.4198   23.2081 C.3     1  UNL1        0.0001
     10 C         -11.8752  -16.2973   22.3493 C.3     1  UNL1        0.0000
     11 C         -12.2122  -16.5477   20.9093 C.3     1  UNL1        0.0000
     12 C         -11.1657  -17.0798   19.9757 C.3     1  UNL1        0.0000
     13 C         -11.0684  -18.5547   19.7205 C.3     1  UNL1        0.0000
     14 C          -8.6760  -19.5308   19.4482 C.3     1  UNL1        0.0000
     15 C          -9.9138  -19.3369   20.2730 C.3     1  UNL1        0.0000
     16 C          -5.0144  -15.7350   23.9488 C.3     1  UNL1        0.0693
     17 C          -4.3629  -17.0747   24.1238 C.3     1  UNL1        0.0342
     18 C          -4.2062  -17.9920   22.9473 C.ar    1  UNL1       -0.0185
     19 C          -5.4008  -18.7078   22.3900 C.ar    1  UNL1       -0.0009
     20 C          -5.2441  -19.6250   21.2136 C.ar    1  UNL1        0.0395
     21 C          -3.8928  -19.8265   20.5944 C.ar    1  UNL1        0.1677
     22 O          -3.7361  -20.7438   19.4180 O.3     1  UNL1       -0.5029
     23 C          -2.6982  -19.1108   21.1517 C.ar    1  UNL1        0.1718
     24 C          -2.8549  -18.1935   22.3282 C.ar    1  UNL1        0.0358
     25 H          -4.4824  -21.1909   19.0698 H       1  UNL1        0.2923
     26 O          -1.3469  -19.3123   20.5325 O.3     1  UNL1       -0.4684
     27 C          -0.6592  -18.1703   19.8449 C.3     1  UNL1        0.2526
@<TRIPOS>BOND
     1    14    15    1
     2    15    13    1
     3    13    12    1
     4    12    11    1
     5    11    10    1
     6    10     9    1
     7     9     8    1
     8     8     7    1
     9     7     4    1
    10     4     5    1
    11     4     3    1
    12     3     1    1
    13     1     2    2
    14     1    16    1
    15    16    17    1
    16    17    18    1
    17    18    19   ar
    18    19    20   ar
    19    20    21   ar
    20    21    22    1
    21    21    23   ar
    22    23    26    1
    23    26    27    1
    24    23    24   ar
    25    24    18   ar
    26     5     6    1
    27    22    25    1
@<TRIPOS>MOLECULE
*****
 27 27 0 0 0
SMALL
GASTEIGER

@<TRIPOS>ATOM
      1 C          -7.4763  -15.5194   26.3211 C.2     1  UNL1        0.1534
      2 O          -8.0868  -14.8944   27.5404 O.2     1  UNL1       -0.2960
      3 C          -6.0667  -15.1845   25.9326 C.3     1  UNL1        0.0937
      4 C          -5.5412  -15.5958   24.5892 C.3     1  UNL1        0.1179
      5 O          -5.8954  -14.7983   23.3691 O.3     1  UNL1       -0.3840
      6 H          -6.4664  -14.0562   23.6224 H       1  UNL1        0.2104
      7 C          -4.6615  -16.8045   24.4659 C.3     1  UNL1        0.0297
      8 C          -4.2064  -17.2660   23.1131 C.3     1  UNL1        0.0025
      9 C          -4.3192  -18.7139   22.7376 C.3     1  UNL1        0.0001
     10 C          -3.2099  -19.3806   21.9793 C.3     1  UNL1        0.0000
     11 C          -3.5133  -20.1490   20.7274 C.3     1  UNL1        0.0000
     12 C          -3.4445  -19.4668   19.3933 C.3     1  UNL1        0.0000
     13 C          -2.9924  -18.0394   19.3033 C.3     1  UNL1        0.0000
     14 C          -0.4591  -18.0020   19.8789 C.3     1  UNL1        0.0000
     15 C          -1.5773  -17.7238   18.9185 C.3     1  UNL1        0.0000
     16 C          -8.2754  -16.4792   25.4903 C.3     1  UNL1        0.0693
     17 C          -9.1439  -15.9669   24.3798 C.3     1  UNL1        0.0342
     18 C          -9.3642  -16.8023   23.1536 C.ar    1  UNL1       -0.0185
     19 C          -8.4385  -17.9419   22.8463 C.ar    1  UNL1       -0.0009
     20 C          -8.6588  -18.7774   21.6201 C.ar    1  UNL1        0.0395
     21 C          -9.8047  -18.4732   20.7012 C.ar    1  UNL1        0.1677
     22 O         -10.0249  -19.3086   19.4751 O.3     1  UNL1       -0.5029
     23 C         -10.7303  -17.3336   21.0085 C.ar    1  UNL1        0.1718
     24 C         -10.5100  -16.4982   22.2347 C.ar    1  UNL1        0.0358
     25 H          -9.4467  -20.0205   19.2831 H       1  UNL1        0.2923
     26 O         -11.8762  -17.0294   20.0896 O.3     1  UNL1       -0.4684
     27 C         -11.8862  -15.7541   19.2999 C.3     1  UNL1        0.2526
@<TRIPOS>BOND
     1    14    15    1
     2    15    13    1
     3    13    12    1
     4    12    11    1
     5    11    10    1
     6    10     9    1
     7     9     8    1
     8     8     7    1
     9     7     4    1
    10     4     5    1
    11     4     3    1
    12     3     1    1
    13     1     2    2
    14     1    16    1
    15    16    17    1
    16    17    18    1
    17    18    19   ar
    18    19    20   ar
    19    20    21   ar
    20    21    22    1
    21    21    23   ar
    22    23    26    1
    23    26    27    1
    24    23    24   ar
    25    24    18   ar
    26     5     6    1
    27    22    25    1
@<TRIPOS>MOLECULE
*****
 27 27 0 0 0
SMALL
GASTEIGER

@<TRIPOS>ATOM
      1 C          -6.5712  -15.4304   24.8834 C.2     1  UNL1        0.1534
      2 O          -5.7465  -14.5209   25.7451 O.2     1  UNL1       -0.2960
      3 C          -5.9042  -16.3089   23.8668 C.3     1  UNL1        0.0937
      4 C          -4.6876  -15.8215   23.1371 C.3     1  UNL1        0.1179
      5 O          -4.5910  -14.3851   22.7158 O.3     1  UNL1       -0.3840
      6 H          -5.3927  -13.9130   22.9903 H       1  UNL1        0.2104
      7 C          -3.5676  -16.7704   22.8289 C.3     1  UNL1        0.0297
      8 C          -3.5380  -18.1280   23.4662 C.3     1  UNL1        0.0025
      9 C          -3.9920  -19.3300   22.6920 C.3     1  UNL1        0.0001
     10 C          -4.8211  -19.1555   21.4542 C.3     1  UNL1        0.0000
     11 C          -4.2274  -19.4435   20.1071 C.3     1  UNL1        0.0000
     12 C          -3.6134  -18.3343   19.3054 C.3     1  UNL1        0.0000
     13 C          -2.1739  -18.4157   18.8919 C.3     1  UNL1        0.0000
     14 C          -0.3457  -17.1471   20.2331 C.3     1  UNL1        0.0000
     15 C          -1.0933  -18.4123   19.9323 C.3     1  UNL1        0.0000
     16 C          -8.0628  -15.4614   25.0382 C.3     1  UNL1        0.0693
     17 C          -8.8213  -16.7218   24.7448 C.3     1  UNL1        0.0342
     18 C          -9.6183  -16.8402   23.4796 C.ar    1  UNL1       -0.0185
     19 C         -10.9814  -16.2207   23.3911 C.ar    1  UNL1       -0.0009
     20 C         -11.7785  -16.3391   22.1259 C.ar    1  UNL1        0.0395
     21 C         -11.2123  -17.0771   20.9491 C.ar    1  UNL1        0.1677
     22 O         -12.0093  -17.1955   19.6839 O.3     1  UNL1       -0.5029
     23 C          -9.8491  -17.6966   21.0376 C.ar    1  UNL1        0.1718
     24 C          -9.0521  -17.5782   22.3028 C.ar    1  UNL1        0.0358
     25 H         -12.8609  -16.8085   19.6287 H       1  UNL1        0.2923
     26 O          -9.2829  -18.4346   19.8608 O.3     1  UNL1       -0.4684
     27 C          -8.2252  -19.4779   20.0680 C.3     1  UNL1        0.2526
@<TRIPOS>BOND
     1    14    15    1
     2    15    13    1
     3    13    12    1
     4    12    11    1
     5    11    10    1
     6    10     9    1
     7     9     8    1
     8     8     7    1
     9     7     4    1
    10     4     5    1
    11     4     3    1
    12     3     1    1
    13     1     2    2
    14     1    16    1
    15    16    17    1
    16    17    18    1
    17    18    19   ar
    18    19    20   ar
    19    20    21   ar
    20    21    22    1
    21    21    23   ar
    22    23    26    1
    23    26    27    1
    24    23    24   ar
    25    24    18   ar
    26     5     6    1
    27    22    25    1
@<TRIPOS>MOLECULE
*****
 27 27 0 0 0
SMALL
GASTEIGER

@<TRIPOS>ATOM
      1 C          -5.7376  -15.4690   24.5091 C.2     1  UNL1        0.1534
      2 O          -5.2453  -14.7742   25.7439 O.2     1  UNL1       -0.2960
      3 C          -4.7579  -15.9730   23.4910 C.3     1  UNL1        0.0937
      4 C          -3.8548  -17.1233   23.8245 C.3     1  UNL1        0.1179
      5 O          -3.9444  -17.7818   25.1693 O.3     1  UNL1       -0.3840
      6 H          -4.6309  -17.3457   25.6978 H       1  UNL1        0.2104
      7 C          -2.8623  -17.6152   22.8131 C.3     1  UNL1        0.0297
      8 C          -2.2880  -16.6667   21.8030 C.3     1  UNL1        0.0025
      9 C          -2.0761  -17.1162   20.3876 C.3     1  UNL1        0.0001
     10 C          -2.0562  -18.5800   20.0607 C.3     1  UNL1        0.0000
     11 C          -3.2810  -19.2400   19.5001 C.3     1  UNL1        0.0000
     12 C          -3.8206  -20.4855   20.1386 C.3     1  UNL1        0.0000
     13 C          -5.2676  -20.8454   19.9756 C.3     1  UNL1        0.0000
     14 C          -5.9457  -19.6626   22.1872 C.3     1  UNL1        0.0000
     15 C          -6.3072  -20.1762   20.8249 C.3     1  UNL1        0.0000
     16 C          -7.2095  -15.6599   24.2923 C.3     1  UNL1        0.0693
     17 C          -7.7203  -16.9382   23.6966 C.3     1  UNL1        0.0342
     18 C          -9.0180  -16.9493   22.9444 C.ar    1  UNL1       -0.0185
     19 C         -10.2076  -16.2167   23.4904 C.ar    1  UNL1       -0.0009
     20 C         -11.5053  -16.2277   22.7383 C.ar    1  UNL1        0.0395
     21 C         -11.6135  -16.9713   21.4401 C.ar    1  UNL1        0.1677
     22 O         -12.9112  -16.9824   20.6879 O.3     1  UNL1       -0.5029
     23 C         -10.4239  -17.7039   20.8941 C.ar    1  UNL1        0.1718
     24 C          -9.1262  -17.6929   21.6462 C.ar    1  UNL1        0.0358
     25 H         -13.6543  -16.5247   21.0290 H       1  UNL1        0.2923
     26 O         -10.5320  -18.4475   19.5958 O.3     1  UNL1       -0.4684
     27 C          -9.7407  -19.7039   19.3830 C.3     1  UNL1        0.2526
@<TRIPOS>BOND
     1    14    15    1
     2    15    13    1
     3    13    12    1
     4    12    11    1
     5    11    10    1
     6    10     9    1
     7     9     8    1
     8     8     7    1
     9     7     4    1
    10     4     5    1
    11     4     3    1
    12     3     1    1
    13     1     2    2
    14     1    16    1
    15    16    17    1
    16    17    18    1
    17    18    19   ar
    18    19    20   ar
    19    20    21   ar
    20    21    22    1
    21    21    23   ar
    22    23    26    1
    23    26    27    1
    24    23    24   ar
    25    24    18   ar
    26     5     6    1
    27    22    25    1
