@<TRIPOS>MOLECULE
*****
 32 35 0 0 0
SMALL
GASTEIGER

@<TRIPOS>ATOM
      1 C         -10.9594    0.1149   16.9394 C.3     1  UNL1        0.0177
      2 C         -12.2280   -0.3743   17.5731 C.3     1  UNL1        0.0623
      3 C         -13.2209    0.6085   18.1192 C.3     1  UNL1        0.0384
      4 C         -14.4895    0.1195   18.7529 C.2     1  UNL1       -0.0343
      5 C         -14.7651   -1.3523   18.8405 C.2     1  UNL1       -0.0106
      6 C         -16.0336   -1.8414   19.4742 C.2     1  UNL1       -0.0020
      7 C         -17.0266   -0.8586   20.0203 C.2     1  UNL1        0.0169
      8 C         -16.7509    0.6132   19.9328 C.2     1  UNL1        0.0896
      9 N         -17.5368    1.8099   20.3804 N.2     1  UNL1       -0.1520
     10 N         -16.7539    3.0385   20.0234 N.2     1  UNL1       -0.1507
     11 C         -15.4842    2.6012   19.3551 C.2     1  UNL1        0.1054
     12 C         -15.4823    1.1023   19.2991 C.3     1  UNL1        0.1032
     13 C         -13.7722   -2.3351   18.2943 C.3     1  UNL1        0.1069
     14 N         -12.5037   -1.8461   17.6607 N.3     1  UNL1       -0.2632
     15 C         -14.0479   -3.8070   18.3819 C.ar    1  UNL1        0.0512
     16 C         -13.6865   -4.5652   19.6247 C.ar    1  UNL1        0.1399
     17 F         -13.0495   -3.8514   20.7801 F       1  UNL1       -0.2044
     18 C         -13.9622   -6.0370   19.7123 C.ar    1  UNL1        0.0295
     19 C         -14.5993   -6.7507   18.5569 C.ar    1  UNL1        0.0045
     20 C         -14.9606   -5.9926   17.3141 C.ar    1  UNL1        0.0295
     21 C         -14.6849   -4.5207   17.2266 C.ar    1  UNL1        0.1399
     22 F         -15.0462   -3.7626   15.9837 F       1  UNL1       -0.2044
     23 C         -14.8750   -8.2225   18.6445 C.2     1  UNL1        0.0013
     24 C         -16.1561   -8.7794   18.0981 C.2     1  UNL1        0.0151
     25 C         -16.4318  -10.2512   18.1856 C.2     1  UNL1        0.0729
     26 O         -17.8452  -10.7455   18.2745 O.co2   1  UNL1       -0.5446
     27 O         -15.2940  -11.2287   18.1843 O.co2   1  UNL1       -0.5446
     28 C         -11.5107   -2.8289   17.1145 C.3     1  UNL1        0.1398
     29 C         -10.7351   -3.7093   18.0489 C.3     1  UNL1        0.2786
     30 C          -9.9595   -4.5898   18.9833 C.3     1  UNL1        0.0737
     31 F         -10.9711   -4.8802   17.1415 F       1  UNL1       -0.2028
     32 F         -10.4991   -2.5385   18.9563 F       1  UNL1       -0.2028
@<TRIPOS>UNITY_ATOM_ATTR
26 1
charge -1
@<TRIPOS>BOND
     1     2     1    1
     2     2     3    1
     3     3     4    1
     4     4     5    2
     5     5     6    1
     6     6     7    2
     7     7     8    1
     8     8     9    2
     9     9    10    1
    10    10    11    2
    11    11    12    1
    12     5    13    1
    13    13    15    1
    14    15    16   ar
    15    16    17    1
    16    16    18   ar
    17    18    19   ar
    18    19    23    1
    19    23    24    2
    20    24    25    1
    21    25    26   ar
    22    25    27   ar
    23    19    20   ar
    24    20    21   ar
    25    21    22    1
    26    13    14    1
    27    14    28    1
    28    28    29    1
    29    29    30    1
    30    29    31    1
    31    29    32    1
    32    14     2    1
    33    12     4    1
    34    21    15   ar
    35    12     8    1
@<TRIPOS>MOLECULE
*****
 32 35 0 0 0
SMALL
GASTEIGER

@<TRIPOS>ATOM
      1 C         -11.4347   -7.4140   16.3721 C.3     1  UNL1        0.0177
      2 C         -12.7218   -7.1754   17.1046 C.3     1  UNL1        0.0623
      3 C         -13.6223   -8.3290   17.4338 C.3     1  UNL1        0.0384
      4 C         -14.9094   -8.0906   18.1662 C.2     1  UNL1       -0.0343
      5 C         -15.2960   -6.6985   18.5695 C.2     1  UNL1       -0.0106
      6 C         -16.5831   -6.4600   19.3019 C.2     1  UNL1       -0.0020
      7 C         -17.4836   -7.6136   19.6311 C.2     1  UNL1        0.0169
      8 C         -17.0970   -9.0057   19.2278 C.2     1  UNL1        0.0896
      9 N         -17.7769  -10.3298   19.4135 N.2     1  UNL1       -0.1520
     10 N         -16.9099  -11.3866   18.7958 N.2     1  UNL1       -0.1507
     11 C         -15.6942  -10.7157   18.2284 C.2     1  UNL1        0.1054
     12 C         -15.8098   -9.2441   18.4954 C.3     1  UNL1        0.1032
     13 C         -14.3955   -5.5449   18.2402 C.3     1  UNL1        0.1069
     14 N         -13.1085   -5.7834   17.5078 N.3     1  UNL1       -0.2632
     15 C         -14.7822   -4.1528   18.6435 C.ar    1  UNL1        0.0512
     16 C         -15.4826   -3.2560   17.6662 C.ar    1  UNL1        0.1399
     17 F         -15.7965   -3.7513   16.2856 F       1  UNL1       -0.2044
     18 C         -15.8693   -1.8639   18.0695 C.ar    1  UNL1        0.0295
     19 C         -15.5554   -1.3687   19.4502 C.ar    1  UNL1        0.0045
     20 C         -14.8550   -2.2653   20.4275 C.ar    1  UNL1        0.0295
     21 C         -14.4683   -3.6575   20.0242 C.ar    1  UNL1        0.1399
     22 F         -13.7679   -4.5542   21.0015 F       1  UNL1       -0.2044
     23 C         -15.9421    0.0234   19.8535 C.2     1  UNL1        0.0013
     24 C         -17.1274    0.2438   20.7459 C.2     1  UNL1        0.0151
     25 C         -17.5141    1.6358   21.1492 C.2     1  UNL1        0.0729
     26 O         -18.2195    1.8706   22.4520 O.co2   1  UNL1       -0.5446
     27 O         -17.1953    2.7931   20.2495 O.co2   1  UNL1       -0.5446
     28 C         -12.2079   -4.6297   17.1786 C.3     1  UNL1        0.1398
     29 C         -10.8805   -4.4952   17.8639 C.3     1  UNL1        0.2786
     30 C          -9.5530   -4.3605   18.5492 C.3     1  UNL1        0.0737
     31 F         -10.2414   -4.1354   16.5554 F       1  UNL1       -0.2028
     32 F         -11.5194   -4.8549   19.1724 F       1  UNL1       -0.2028
@<TRIPOS>UNITY_ATOM_ATTR
26 1
charge -1
@<TRIPOS>BOND
     1     2     1    1
     2     2     3    1
     3     3     4    1
     4     4     5    2
     5     5     6    1
     6     6     7    2
     7     7     8    1
     8     8     9    2
     9     9    10    1
    10    10    11    2
    11    11    12    1
    12     5    13    1
    13    13    15    1
    14    15    16   ar
    15    16    17    1
    16    16    18   ar
    17    18    19   ar
    18    19    23    1
    19    23    24    2
    20    24    25    1
    21    25    26   ar
    22    25    27   ar
    23    19    20   ar
    24    20    21   ar
    25    21    22    1
    26    13    14    1
    27    14    28    1
    28    28    29    1
    29    29    30    1
    30    29    31    1
    31    29    32    1
    32    14     2    1
    33    12     4    1
    34    21    15   ar
    35    12     8    1
@<TRIPOS>MOLECULE
*****
 32 35 0 0 0
SMALL
GASTEIGER

@<TRIPOS>ATOM
      1 C         -10.1982   -6.6423   18.8592 C.3     1  UNL1        0.0177
      2 C         -11.6740   -6.3868   18.7759 C.3     1  UNL1        0.0623
      3 C         -12.6280   -7.5369   18.6454 C.3     1  UNL1        0.0384
      4 C         -14.1037   -7.2816   18.5622 C.2     1  UNL1       -0.0343
      5 C         -14.6255   -5.8761   18.6094 C.2     1  UNL1       -0.0106
      6 C         -16.1012   -5.6207   18.5262 C.2     1  UNL1       -0.0020
      7 C         -17.0553   -6.7708   18.3957 C.2     1  UNL1        0.0169
      8 C         -16.5335   -8.1764   18.3484 C.2     1  UNL1        0.0896
      9 N         -17.2269   -9.5007   18.2250 N.2     1  UNL1       -0.1520
     10 N         -16.1797  -10.5746   18.2320 N.2     1  UNL1       -0.1507
     11 C         -14.8390   -9.9140   18.3597 C.2     1  UNL1        0.1054
     12 C         -15.0577   -8.4317   18.4316 C.3     1  UNL1        0.1032
     13 C         -13.6714   -4.7259   18.7400 C.3     1  UNL1        0.1069
     14 N         -12.1958   -4.9813   18.8232 N.3     1  UNL1       -0.2632
     15 C         -14.1932   -3.3204   18.7873 C.ar    1  UNL1        0.0512
     16 C         -14.5160   -2.6841   20.1068 C.ar    1  UNL1        0.1399
     17 F         -14.3169   -3.4534   21.3790 F       1  UNL1       -0.2044
     18 C         -15.0377   -1.2786   20.1541 C.ar    1  UNL1        0.0295
     19 C         -15.2368   -0.5093   18.8817 C.ar    1  UNL1        0.0045
     20 C         -14.9140   -1.1455   17.5623 C.ar    1  UNL1        0.0295
     21 C         -14.3922   -2.5511   17.5151 C.ar    1  UNL1        0.1399
     22 F         -14.0695   -3.1873   16.1956 F       1  UNL1       -0.2044
     23 C         -15.7585    0.8962   18.9290 C.2     1  UNL1        0.0013
     24 C         -14.8585    2.0427   18.5748 C.2     1  UNL1        0.0151
     25 C         -15.3802    3.4482   18.6221 C.2     1  UNL1        0.0729
     26 O         -14.4239    4.6038   18.6164 O.co2   1  UNL1       -0.5446
     27 O         -16.8584    3.6980   18.6750 O.co2   1  UNL1       -0.5446
     28 C         -11.2417   -3.8311   18.9538 C.3     1  UNL1        0.1398
     29 C         -11.0185   -2.9064   17.7941 C.3     1  UNL1        0.2786
     30 C         -10.7953   -1.9817   16.6342 C.3     1  UNL1        0.0737
     31 F         -10.8226   -4.0873   16.8901 F       1  UNL1       -0.2028
     32 F         -11.2144   -1.7255   18.6979 F       1  UNL1       -0.2028
@<TRIPOS>UNITY_ATOM_ATTR
26 1
charge -1
@<TRIPOS>BOND
     1     2     1    1
     2     2     3    1
     3     3     4    1
     4     4     5    2
     5     5     6    1
     6     6     7    2
     7     7     8    1
     8     8     9    2
     9     9    10    1
    10    10    11    2
    11    11    12    1
    12     5    13    1
    13    13    15    1
    14    15    16   ar
    15    16    17    1
    16    16    18   ar
    17    18    19   ar
    18    19    23    1
    19    23    24    2
    20    24    25    1
    21    25    26   ar
    22    25    27   ar
    23    19    20   ar
    24    20    21   ar
    25    21    22    1
    26    13    14    1
    27    14    28    1
    28    28    29    1
    29    29    30    1
    30    29    31    1
    31    29    32    1
    32    14     2    1
    33    12     4    1
    34    21    15   ar
    35    12     8    1
@<TRIPOS>MOLECULE
*****
 32 35 0 0 0
SMALL
GASTEIGER

@<TRIPOS>ATOM
      1 C         -11.6447   -0.4695   17.5095 C.3     1  UNL1        0.0177
      2 C         -13.0278   -0.6912   18.0460 C.3     1  UNL1        0.0623
      3 C         -13.8110    0.4619   18.6001 C.3     1  UNL1        0.0384
      4 C         -15.1941    0.2403   19.1367 C.2     1  UNL1       -0.0343
      5 C         -15.7941   -1.1344   19.1191 C.2     1  UNL1       -0.0106
      6 C         -17.1771   -1.3560   19.6556 C.2     1  UNL1       -0.0020
      7 C         -17.9604   -0.2029   20.2097 C.2     1  UNL1        0.0169
      8 C         -17.3604    1.1718   20.2273 C.2     1  UNL1        0.0896
      9 N         -17.8884    2.4912   20.7071 N.2     1  UNL1       -0.1520
     10 N         -16.8316    3.5283   20.4670 N.2     1  UNL1       -0.1507
     11 C         -15.6505    2.8498   19.8390 C.2     1  UNL1        0.1054
     12 C         -15.9773    1.3934   19.6908 C.3     1  UNL1        0.1032
     13 C         -15.0108   -2.2875   18.5649 C.3     1  UNL1        0.1069
     14 N         -13.6278   -2.0659   18.0284 N.3     1  UNL1       -0.2632
     15 C         -15.6108   -3.6621   18.5473 C.ar    1  UNL1        0.0512
     16 C         -16.3409   -4.1463   17.3297 C.ar    1  UNL1        0.1399
     17 F         -16.4711   -3.2558   16.1297 F       1  UNL1       -0.2044
     18 C         -16.9409   -5.5210   17.3121 C.ar    1  UNL1        0.0295
     19 C         -16.8107   -6.4115   18.5122 C.ar    1  UNL1        0.0045
     20 C         -16.0807   -5.9274   19.7297 C.ar    1  UNL1        0.0295
     21 C         -15.4807   -4.5526   19.7473 C.ar    1  UNL1        0.1399
     22 F         -14.7506   -4.0685   20.9649 F       1  UNL1       -0.2044
     23 C         -17.4107   -7.7862   18.4946 C.2     1  UNL1        0.0013
     24 C         -16.5256   -8.9890   18.3543 C.2     1  UNL1        0.0151
     25 C         -17.1256  -10.3637   18.3367 C.2     1  UNL1        0.0729
     26 O         -18.5090  -10.5713   17.7954 O.co2   1  UNL1       -0.5446
     27 O         -16.3420  -11.5307   18.8604 O.co2   1  UNL1       -0.5446
     28 C         -12.8446   -3.2189   17.4742 C.3     1  UNL1        0.1398
     29 C         -12.3374   -4.2913   18.3921 C.3     1  UNL1        0.2786
     30 C         -11.8302   -5.3638   19.3101 C.3     1  UNL1        0.0737
     31 F         -12.8737   -5.3400   17.4634 F       1  UNL1       -0.2028
     32 F         -11.8010   -3.2427   19.3209 F       1  UNL1       -0.2028
@<TRIPOS>UNITY_ATOM_ATTR
26 1
charge -1
@<TRIPOS>BOND
     1     2     1    1
     2     2     3    1
     3     3     4    1
     4     4     5    2
     5     5     6    1
     6     6     7    2
     7     7     8    1
     8     8     9    2
     9     9    10    1
    10    10    11    2
    11    11    12    1
    12     5    13    1
    13    13    15    1
    14    15    16   ar
    15    16    17    1
    16    16    18   ar
    17    18    19   ar
    18    19    23    1
    19    23    24    2
    20    24    25    1
    21    25    26   ar
    22    25    27   ar
    23    19    20   ar
    24    20    21   ar
    25    21    22    1
    26    13    14    1
    27    14    28    1
    28    28    29    1
    29    29    30    1
    30    29    31    1
    31    29    32    1
    32    14     2    1
    33    12     4    1
    34    21    15   ar
    35    12     8    1
@<TRIPOS>MOLECULE
*****
 32 35 0 0 0
SMALL
GASTEIGER

@<TRIPOS>ATOM
      1 C           1.2850    2.3022   32.3418 C.3     1  UNL1        0.0177
      2 C           2.3311    1.7130   33.2411 C.3     1  UNL1        0.0623
      3 C           2.4214    2.1500   34.6732 C.3     1  UNL1        0.0384
      4 C           3.4674    1.5609   35.5725 C.2     1  UNL1       -0.0343
      5 C           4.4231    0.5349   35.0398 C.2     1  UNL1       -0.0106
      6 C           5.4691   -0.0542   35.9390 C.2     1  UNL1       -0.0020
      7 C           5.5595    0.3828   37.3712 C.2     1  UNL1        0.0169
      8 C           4.6038    1.4088   37.9039 C.2     1  UNL1        0.0896
      9 N           4.4519    2.0301   39.2607 N.2     1  UNL1       -0.1520
     10 N           3.3120    3.0032   39.1999 N.2     1  UNL1       -0.1507
     11 C           2.7594    2.9833   37.8056 C.2     1  UNL1        0.1054
     12 C           3.5578    1.9979   37.0046 C.3     1  UNL1        0.1032
     13 C           4.3327    0.0979   33.6076 C.3     1  UNL1        0.1069
     14 N           3.2868    0.6870   32.7083 N.3     1  UNL1       -0.2632
     15 C           5.2885   -0.9281   33.0749 C.ar    1  UNL1        0.0512
     16 C           6.5875   -0.4963   32.4615 C.ar    1  UNL1        0.1399
     17 F           6.9307    0.9617   32.3809 F       1  UNL1       -0.2044
     18 C           7.5432   -1.5223   31.9288 C.ar    1  UNL1        0.0295
     19 C           7.1998   -2.9804   32.0094 C.ar    1  UNL1        0.0045
     20 C           5.9010   -3.4122   32.6227 C.ar    1  UNL1        0.0295
     21 C           4.9452   -2.3861   33.1555 C.ar    1  UNL1        0.1399
     22 F           3.6462   -2.8180   33.7688 F       1  UNL1       -0.2044
     23 C           8.1555   -4.0064   31.4767 C.2     1  UNL1        0.0013
     24 C           7.7583   -5.4523   31.4371 C.2     1  UNL1        0.0151
     25 C           8.7140   -6.4783   30.9043 C.2     1  UNL1        0.0729
     26 O           9.5359   -7.3011   31.8517 O.co2   1  UNL1       -0.5446
     27 O           8.8477   -6.6816   29.4241 O.co2   1  UNL1       -0.5446
     28 C           3.1964    0.2500   31.2762 C.3     1  UNL1        0.1398
     29 C           4.2623    0.6523   30.3006 C.3     1  UNL1        0.2786
     30 C           5.3283    1.0547   29.3250 C.3     1  UNL1        0.0737
     31 F           4.1242    2.0803   30.7385 F       1  UNL1       -0.2028
     32 F           4.4005   -0.7756   29.8626 F       1  UNL1       -0.2028
@<TRIPOS>UNITY_ATOM_ATTR
26 1
charge -1
@<TRIPOS>BOND
     1     2     1    1
     2     2     3    1
     3     3     4    1
     4     4     5    2
     5     5     6    1
     6     6     7    2
     7     7     8    1
     8     8     9    2
     9     9    10    1
    10    10    11    2
    11    11    12    1
    12     5    13    1
    13    13    15    1
    14    15    16   ar
    15    16    17    1
    16    16    18   ar
    17    18    19   ar
    18    19    23    1
    19    23    24    2
    20    24    25    1
    21    25    26   ar
    22    25    27   ar
    23    19    20   ar
    24    20    21   ar
    25    21    22    1
    26    13    14    1
    27    14    28    1
    28    28    29    1
    29    29    30    1
    30    29    31    1
    31    29    32    1
    32    14     2    1
    33    12     4    1
    34    21    15   ar
    35    12     8    1
@<TRIPOS>MOLECULE
*****
 32 35 0 0 0
SMALL
GASTEIGER

@<TRIPOS>ATOM
      1 C           5.5363   -0.1400   27.2939 C.3     1  UNL1        0.0177
      2 C           5.8691   -1.1075   28.3908 C.3     1  UNL1        0.0623
      3 C           6.3919   -2.4725   28.0538 C.3     1  UNL1        0.0384
      4 C           6.7247   -3.4401   29.1506 C.2     1  UNL1       -0.0343
      5 C           6.5347   -3.0427   30.5845 C.2     1  UNL1       -0.0106
      6 C           6.8675   -4.0103   31.6812 C.2     1  UNL1       -0.0020
      7 C           7.3903   -5.3753   31.3442 C.2     1  UNL1        0.0169
      8 C           7.5803   -5.7726   29.9103 C.2     1  UNL1        0.0896
      9 N           8.0745   -7.0393   29.2769 N.2     1  UNL1       -0.1520
     10 N           8.0472   -6.8545   27.7886 N.2     1  UNL1       -0.1507
     11 C           7.5360   -5.4737   27.5022 C.2     1  UNL1        0.1054
     12 C           7.2475   -4.8050   28.8135 C.3     1  UNL1        0.1032
     13 C           6.0119   -1.6777   30.9215 C.3     1  UNL1        0.1069
     14 N           5.6791   -0.7102   29.8247 N.3     1  UNL1       -0.2632
     15 C           5.8219   -1.2804   32.3553 C.ar    1  UNL1        0.0512
     16 C           4.5580   -1.6485   33.0746 C.ar    1  UNL1        0.1399
     17 F           3.4842   -2.4139   32.3598 F       1  UNL1       -0.2044
     18 C           4.3681   -1.2511   34.5085 C.ar    1  UNL1        0.0295
     19 C           5.4420   -0.4857   35.2232 C.ar    1  UNL1        0.0045
     20 C           6.7058   -0.1176   34.5041 C.ar    1  UNL1        0.0295
     21 C           6.8958   -0.5150   33.0701 C.ar    1  UNL1        0.1399
     22 F           8.1597   -0.1469   32.3509 F       1  UNL1       -0.2044
     23 C           5.2521   -0.0883   36.6570 C.2     1  UNL1        0.0013
     24 C           4.1003    0.7907   37.0454 C.2     1  UNL1        0.0151
     25 C           3.9104    1.1880   38.4793 C.2     1  UNL1        0.0729
     26 O           2.7215    0.6877   39.2450 O.co2   1  UNL1       -0.5446
     27 O           4.9093    2.0857   39.1474 O.co2   1  UNL1       -0.5446
     28 C           5.1563    0.6548   30.1617 C.3     1  UNL1        0.1398
     29 C           3.7919    0.8073   30.7658 C.3     1  UNL1        0.2786
     30 C           2.4274    0.9598   31.3699 C.3     1  UNL1        0.0737
     31 F           4.3668    1.6754   31.8455 F       1  UNL1       -0.2028
     32 F           3.2168   -0.0608   29.6861 F       1  UNL1       -0.2028
@<TRIPOS>UNITY_ATOM_ATTR
26 1
charge -1
@<TRIPOS>BOND
     1     2     1    1
     2     2     3    1
     3     3     4    1
     4     4     5    2
     5     5     6    1
     6     6     7    2
     7     7     8    1
     8     8     9    2
     9     9    10    1
    10    10    11    2
    11    11    12    1
    12     5    13    1
    13    13    15    1
    14    15    16   ar
    15    16    17    1
    16    16    18   ar
    17    18    19   ar
    18    19    23    1
    19    23    24    2
    20    24    25    1
    21    25    26   ar
    22    25    27   ar
    23    19    20   ar
    24    20    21   ar
    25    21    22    1
    26    13    14    1
    27    14    28    1
    28    28    29    1
    29    29    30    1
    30    29    31    1
    31    29    32    1
    32    14     2    1
    33    12     4    1
    34    21    15   ar
    35    12     8    1
@<TRIPOS>MOLECULE
*****
 32 35 0 0 0
SMALL
GASTEIGER

@<TRIPOS>ATOM
      1 C           6.2142   -0.1396   17.2758 C.3     1  UNL1        0.0177
      2 C           5.7737   -0.5827   18.6395 C.3     1  UNL1        0.0623
      3 C           6.4319   -1.7609   19.2942 C.3     1  UNL1        0.0384
      4 C           5.9915   -2.2041   20.6578 C.2     1  UNL1       -0.0343
      5 C           4.8928   -1.4691   21.3668 C.2     1  UNL1       -0.0106
      6 C           4.4523   -1.9122   22.7304 C.2     1  UNL1       -0.0020
      7 C           5.1106   -3.0904   23.3852 C.2     1  UNL1        0.0169
      8 C           6.2092   -3.8254   22.6762 C.2     1  UNL1        0.0896
      9 N           7.0378   -5.0129   23.0678 N.2     1  UNL1       -0.1520
     10 N           7.9904   -5.3036   21.9462 N.2     1  UNL1       -0.1507
     11 C           7.7505   -4.2958   20.8613 C.2     1  UNL1        0.1054
     12 C           6.6497   -3.3823   21.3125 C.3     1  UNL1        0.1032
     13 C           4.2346   -0.2909   20.7120 C.3     1  UNL1        0.1069
     14 N           4.6750    0.1523   19.3484 N.3     1  UNL1       -0.2632
     15 C           3.1359    0.4441   21.4210 C.ar    1  UNL1        0.0512
     16 C           1.7149   -0.0161   21.2830 C.ar    1  UNL1        0.1399
     17 F           1.3926   -1.2114   20.4360 F       1  UNL1       -0.2044
     18 C           0.6162    0.7189   21.9920 C.ar    1  UNL1        0.0295
     19 C           0.9386    1.9142   22.8391 C.ar    1  UNL1        0.0045
     20 C           2.3595    2.3744   22.9771 C.ar    1  UNL1        0.0295
     21 C           3.4582    1.6394   22.2680 C.ar    1  UNL1        0.1399
     22 F           4.8791    2.0997   22.4061 F       1  UNL1       -0.2044
     23 C          -0.1601    2.6492   23.5481 C.2     1  UNL1        0.0013
     24 C          -0.5141    2.2883   24.9603 C.2     1  UNL1        0.0151
     25 C          -1.6128    3.0233   25.6693 C.2     1  UNL1        0.0729
     26 O          -1.6831    3.0037   27.1675 O.co2   1  UNL1       -0.5446
     27 O          -2.6412    3.7780   24.8799 O.co2   1  UNL1       -0.5446
     28 C           4.0168    1.3305   18.6937 C.3     1  UNL1        0.1398
     29 C           2.5403    1.3142   18.4304 C.3     1  UNL1        0.2786
     30 C           1.0636    1.2978   18.1671 C.3     1  UNL1        0.0737
     31 F           2.6827    0.0049   17.7124 F       1  UNL1       -0.2028
     32 F           2.3977    2.6234   19.1484 F       1  UNL1       -0.2028
@<TRIPOS>UNITY_ATOM_ATTR
26 1
charge -1
@<TRIPOS>BOND
     1     2     1    1
     2     2     3    1
     3     3     4    1
     4     4     5    2
     5     5     6    1
     6     6     7    2
     7     7     8    1
     8     8     9    2
     9     9    10    1
    10    10    11    2
    11    11    12    1
    12     5    13    1
    13    13    15    1
    14    15    16   ar
    15    16    17    1
    16    16    18   ar
    17    18    19   ar
    18    19    23    1
    19    23    24    2
    20    24    25    1
    21    25    26   ar
    22    25    27   ar
    23    19    20   ar
    24    20    21   ar
    25    21    22    1
    26    13    14    1
    27    14    28    1
    28    28    29    1
    29    29    30    1
    30    29    31    1
    31    29    32    1
    32    14     2    1
    33    12     4    1
    34    21    15   ar
    35    12     8    1
@<TRIPOS>MOLECULE
*****
 32 35 0 0 0
SMALL
GASTEIGER

@<TRIPOS>ATOM
      1 C           3.8884   -0.9011   16.7368 C.3     1  UNL1        0.0177
      2 C           3.6143   -0.7489   18.2038 C.3     1  UNL1        0.0623
      3 C           2.4516    0.0775   18.6676 C.3     1  UNL1        0.0384
      4 C           2.1774    0.2298   20.1345 C.2     1  UNL1       -0.0343
      5 C           3.0660   -0.4443   21.1375 C.2     1  UNL1       -0.0106
      6 C           2.7919   -0.2920   22.6042 C.2     1  UNL1       -0.0020
      7 C           1.6291    0.5343   23.0682 C.2     1  UNL1        0.0169
      8 C           0.7405    1.2084   22.0652 C.2     1  UNL1        0.0896
      9 N          -0.4706    2.0793   22.2225 N.2     1  UNL1       -0.1520
     10 N          -0.9449    2.4653   20.8528 N.2     1  UNL1       -0.1507
     11 C          -0.0270    1.8329   19.8490 C.2     1  UNL1        0.1054
     12 C           1.0147    1.0561   20.5983 C.3     1  UNL1        0.1032
     13 C           4.2288   -1.2707   20.6735 C.3     1  UNL1        0.1069
     14 N           4.5029   -1.4229   19.2068 N.3     1  UNL1       -0.2632
     15 C           5.1174   -1.9447   21.6765 C.ar    1  UNL1        0.0512
     16 C           4.9289   -3.4001   21.9873 C.ar    1  UNL1        0.1399
     17 F           3.8517   -4.1813   21.2950 F       1  UNL1       -0.2044
     18 C           5.8175   -4.0741   22.9903 C.ar    1  UNL1        0.0295
     19 C           6.8947   -3.2928   23.6826 C.ar    1  UNL1        0.0045
     20 C           7.0832   -1.8375   23.3719 C.ar    1  UNL1        0.0295
     21 C           6.1945   -1.1635   22.3689 C.ar    1  UNL1        0.1399
     22 F           6.3831    0.2918   22.0582 F       1  UNL1       -0.2044
     23 C           7.7833   -3.9668   24.6856 C.2     1  UNL1        0.0013
     24 C           7.1865   -4.8417   25.7479 C.2     1  UNL1        0.0151
     25 C           8.0751   -5.5157   26.7509 C.2     1  UNL1        0.0729
     26 O           7.5045   -6.0059   28.0487 O.co2   1  UNL1       -0.5446
     27 O           9.5344   -5.6996   26.4561 O.co2   1  UNL1       -0.5446
     28 C           5.6657   -2.2493   18.7428 C.3     1  UNL1        0.1398
     29 C           7.0677   -1.7821   18.9995 C.3     1  UNL1        0.2786
     30 C           8.4698   -1.3148   19.2562 C.3     1  UNL1        0.0737
     31 F           6.7336   -0.4491   18.3982 F       1  UNL1       -0.2028
     32 F           7.4018   -3.1150   19.6008 F       1  UNL1       -0.2028
@<TRIPOS>UNITY_ATOM_ATTR
26 1
charge -1
@<TRIPOS>BOND
     1     2     1    1
     2     2     3    1
     3     3     4    1
     4     4     5    2
     5     5     6    1
     6     6     7    2
     7     7     8    1
     8     8     9    2
     9     9    10    1
    10    10    11    2
    11    11    12    1
    12     5    13    1
    13    13    15    1
    14    15    16   ar
    15    16    17    1
    16    16    18   ar
    17    18    19   ar
    18    19    23    1
    19    23    24    2
    20    24    25    1
    21    25    26   ar
    22    25    27   ar
    23    19    20   ar
    24    20    21   ar
    25    21    22    1
    26    13    14    1
    27    14    28    1
    28    28    29    1
    29    29    30    1
    30    29    31    1
    31    29    32    1
    32    14     2    1
    33    12     4    1
    34    21    15   ar
    35    12     8    1
@<TRIPOS>MOLECULE
*****
 32 35 0 0 0
SMALL
GASTEIGER

@<TRIPOS>ATOM
      1 C           3.9110   -0.9139   16.7322 C.3     1  UNL1        0.0177
      2 C           3.6295   -0.7593   18.1974 C.3     1  UNL1        0.0623
      3 C           2.4668    0.0711   18.6542 C.3     1  UNL1        0.0384
      4 C           2.1853    0.2258   20.1194 C.2     1  UNL1       -0.0343
      5 C           3.0665   -0.4498   21.1278 C.2     1  UNL1       -0.0106
      6 C           2.7850   -0.2951   22.5930 C.2     1  UNL1       -0.0020
      7 C           1.6222    0.5352   23.0498 C.2     1  UNL1        0.0169
      8 C           0.7411    1.2109   22.0413 C.2     1  UNL1        0.0896
      9 N          -0.4682    2.0856   22.1912 N.2     1  UNL1       -0.1520
     10 N          -0.9340    2.4715   20.8186 N.2     1  UNL1       -0.1507
     11 C          -0.0127    1.8353   19.8204 C.2     1  UNL1        0.1054
     12 C           1.0226    1.0562   20.5761 C.3     1  UNL1        0.1032
     13 C           4.2292   -1.2802   20.6710 C.3     1  UNL1        0.1069
     14 N           4.5107   -1.4349   19.2059 N.3     1  UNL1       -0.2632
     15 C           5.1104   -1.9559   21.6795 C.ar    1  UNL1        0.0512
     16 C           6.1641   -1.1694   22.4014 C.ar    1  UNL1        0.1399
     17 F           6.3367    0.2928   22.1147 F       1  UNL1       -0.2044
     18 C           7.0453   -1.8450   23.4098 C.ar    1  UNL1        0.0295
     19 C           6.8727   -3.3073   23.6965 C.ar    1  UNL1        0.0045
     20 C           5.8190   -4.0938   22.9747 C.ar    1  UNL1        0.0295
     21 C           4.9378   -3.4181   21.9661 C.ar    1  UNL1        0.1399
     22 F           3.8841   -4.2046   21.2443 F       1  UNL1       -0.2044
     23 C           7.7539   -3.9829   24.7049 C.2     1  UNL1        0.0013
     24 C           7.1498   -4.8641   25.7578 C.2     1  UNL1        0.0151
     25 C           8.0310   -5.5398   26.7663 C.2     1  UNL1        0.0729
     26 O           7.6618   -6.8930   27.2979 O.co2   1  UNL1       -0.5446
     27 O           9.2814   -4.8621   27.2432 O.co2   1  UNL1       -0.5446
     28 C           5.6734   -2.2653   18.7491 C.3     1  UNL1        0.1398
     29 C           7.0747   -1.8253   19.0531 C.3     1  UNL1        0.2786
     30 C           8.4761   -1.3851   19.3571 C.3     1  UNL1        0.0737
     31 F           6.7875   -0.4868   18.4399 F       1  UNL1       -0.2028
     32 F           7.3621   -3.1636   19.6663 F       1  UNL1       -0.2028
@<TRIPOS>UNITY_ATOM_ATTR
26 1
charge -1
@<TRIPOS>BOND
     1     2     1    1
     2     2     3    1
     3     3     4    1
     4     4     5    2
     5     5     6    1
     6     6     7    2
     7     7     8    1
     8     8     9    2
     9     9    10    1
    10    10    11    2
    11    11    12    1
    12     5    13    1
    13    13    15    1
    14    15    16   ar
    15    16    17    1
    16    16    18   ar
    17    18    19   ar
    18    19    23    1
    19    23    24    2
    20    24    25    1
    21    25    26   ar
    22    25    27   ar
    23    19    20   ar
    24    20    21   ar
    25    21    22    1
    26    13    14    1
    27    14    28    1
    28    28    29    1
    29    29    30    1
    30    29    31    1
    31    29    32    1
    32    14     2    1
    33    12     4    1
    34    21    15   ar
    35    12     8    1
