@<TRIPOS>MOLECULE
*****
 44 48 0 0 0
SMALL
GASTEIGER

@<TRIPOS>ATOM
      1 C           5.5454   -3.3511   23.6306 C.ar    1  UNL1        0.1392
      2 C           5.5814   -2.0521   24.3797 C.ar    1  UNL1        0.0384
      3 C           4.9884   -0.8172   23.7687 C.ar    1  UNL1        0.0203
      4 C           4.3594   -0.8814   22.4084 C.ar    1  UNL1        0.0606
      5 C           4.3234   -2.1803   21.6593 C.ar    1  UNL1        0.0256
      6 C           4.9164   -3.4152   22.2703 C.ar    1  UNL1        0.0389
      7 C           3.6413   -1.9389   20.3453 C.ar    1  UNL1        0.0383
      8 C           3.2557   -0.4906   20.2824 C.ar    1  UNL1        0.0433
      9 N           3.6996    0.1630   21.5575 N.ar    1  UNL1       -0.3260
     10 O           6.1384   -4.5860   24.2416 O.3     1  UNL1       -0.4690
     11 C           7.3620   -4.4832   25.1030 C.3     1  UNL1        0.2508
     12 C           7.0186   -5.7232   30.9634 C.3     1  UNL1        0.0327
     13 C           7.1045   -5.4133   29.4983 C.ar    1  UNL1       -0.0027
     14 C           6.5619   -4.1173   28.9728 C.ar    1  UNL1       -0.0014
     15 C           6.6478   -3.8073   27.5078 C.ar    1  UNL1        0.0181
     16 C           7.2762   -4.7932   26.5681 C.ar    1  UNL1        0.1026
     17 N           7.8187   -6.0892   27.0936 N.ar    1  UNL1       -0.2448
     18 C           7.7329   -6.3992   28.5586 C.ar    1  UNL1        0.0943
     19 S           3.3890   -2.9654   19.2812 S.3     1  UNL1       -0.1142
     20 C           4.3873   -4.0593   19.0425 C.3     1  UNL1        0.0434
     21 C           3.4199   -5.0630   19.5962 C.3     1  UNL1        0.0112
     22 C           5.3547   -3.0555   18.4888 C.3     1  UNL1        0.0112
     23 C           5.3856   -5.1531   18.8038 C.3     1  UNL1        0.0112
     24 C           2.5502    0.1853   19.1442 C.3     1  UNL1        0.0495
     25 C           1.3293    1.0165   19.4062 C.3     1  UNL1        0.0376
     26 C           1.9764    2.1831   18.7204 C.3     1  UNL1        0.0059
     27 C           0.6823   -0.1501   20.0921 C.3     1  UNL1        0.0059
     28 C           0.1085    1.8477   19.6682 C.2     1  UNL1        0.0500
     29 O          -0.7997    1.5066   20.8122 O.co2   1  UNL1       -0.5492
     30 O          -0.2042    3.0200   18.7861 O.co2   1  UNL1       -0.5492
     31 C           3.5158    1.6073   21.9183 C.3     1  UNL1        0.1324
     32 C           2.2668    2.0521   22.6198 C.ar    1  UNL1        0.0004
     33 C           1.7527    3.4475   22.4235 C.ar    1  UNL1       -0.0023
     34 C           0.5037    3.8923   23.1250 C.ar    1  UNL1        0.0012
     35 C          -0.2313    2.9415   24.0228 C.ar    1  UNL1        0.0176
     36 C           0.2828    1.5462   24.2190 C.ar    1  UNL1        0.0012
     37 C           1.5318    1.1014   23.5175 C.ar    1  UNL1       -0.0023
     38 C          -1.4803    3.3863   24.7243 C.ar    1  UNL1        0.0815
     39 C          -1.4588    3.6467   26.2013 C.ar    1  UNL1        0.0215
     40 C          -2.7078    4.0915   26.9028 C.ar    1  UNL1        0.0328
     41 C          -3.9784    4.2759   26.1272 C.ar    1  UNL1        0.1592
     42 F          -5.2275    4.7207   26.8286 F       1  UNL1       -0.2025
     43 C          -4.0000    4.0155   24.6501 C.ar    1  UNL1        0.1283
     44 N          -2.7509    3.5707   23.9487 N.ar    1  UNL1       -0.2415
@<TRIPOS>UNITY_ATOM_ATTR
29 1
charge -1
@<TRIPOS>BOND
     1    12    13    1
     2    13    14   ar
     3    14    15   ar
     4    15    16   ar
     5    16    11    1
     6    11    10    1
     7    10     1    1
     8     1     2   ar
     9     2     3   ar
    10     3     4   ar
    11     4     5   ar
    12     5     6   ar
    13     5     7   ar
    14     7    19    1
    15    19    20    1
    16    20    21    1
    17    20    22    1
    18    20    23    1
    19     7     8   ar
    20     8    24    1
    21    24    25    1
    22    25    26    1
    23    25    27    1
    24    25    28    1
    25    28    29   ar
    26    28    30   ar
    27     8     9   ar
    28     9    31    1
    29    31    32    1
    30    32    33   ar
    31    33    34   ar
    32    34    35   ar
    33    35    38    1
    34    38    39   ar
    35    39    40   ar
    36    40    41   ar
    37    41    42    1
    38    41    43   ar
    39    43    44   ar
    40    35    36   ar
    41    36    37   ar
    42    16    17   ar
    43    17    18   ar
    44    18    13   ar
    45     6     1   ar
    46    37    32   ar
    47     9     4   ar
    48    44    38   ar
@<TRIPOS>MOLECULE
*****
 44 48 0 0 0
SMALL
GASTEIGER

@<TRIPOS>ATOM
      1 C           3.5349    3.5524   22.7420 C.ar    1  UNL1        0.1392
      2 C           4.9090    3.1638   23.2012 C.ar    1  UNL1        0.0384
      3 C           5.6250    2.0222   22.5424 C.ar    1  UNL1        0.0203
      4 C           4.9669    1.2692   21.4244 C.ar    1  UNL1        0.0606
      5 C           3.5929    1.6577   20.9652 C.ar    1  UNL1        0.0256
      6 C           2.8769    2.7993   21.6240 C.ar    1  UNL1        0.0389
      7 C           3.2001    0.7374   19.8477 C.ar    1  UNL1        0.0383
      8 C           4.3315   -0.2199   19.6163 C.ar    1  UNL1        0.0433
      9 N           5.4235    0.1087   20.5907 N.ar    1  UNL1       -0.3260
     10 O           2.8188    4.6941   23.4007 O.3     1  UNL1       -0.4690
     11 C           1.3414    4.6112   23.6461 C.3     1  UNL1        0.2508
     12 C          -0.7971    0.9162   27.8621 C.3     1  UNL1        0.0327
     13 C          -0.2625    1.8400   26.8081 C.ar    1  UNL1       -0.0027
     14 C          -0.1606    1.3757   25.3854 C.ar    1  UNL1       -0.0014
     15 C           0.3740    2.2994   24.3314 C.ar    1  UNL1        0.0181
     16 C           0.8067    3.6874   24.7001 C.ar    1  UNL1        0.1026
     17 N           0.7049    4.1518   26.1228 N.ar    1  UNL1       -0.2448
     18 C           0.1703    3.2281   27.1767 C.ar    1  UNL1        0.0943
     19 S           1.9036    0.7690   19.0940 S.3     1  UNL1       -0.1142
     20 C           0.6757    1.3417   19.7376 C.3     1  UNL1        0.0434
     21 C           0.5686    0.1283   20.6130 C.3     1  UNL1        0.0112
     22 C           0.7828    2.5550   18.8622 C.3     1  UNL1        0.0112
     23 C          -0.5523    1.9143   20.3812 C.3     1  UNL1        0.0112
     24 C           4.3649   -1.3138   18.5904 C.3     1  UNL1        0.0495
     25 C           4.4792   -2.7453   19.0240 C.3     1  UNL1        0.0376
     26 C           3.2549   -2.5850   19.8757 C.3     1  UNL1        0.0059
     27 C           5.7034   -2.9055   18.1722 C.3     1  UNL1        0.0059
     28 C           4.5934   -4.1767   19.4575 C.2     1  UNL1        0.0500
     29 O           4.6888   -5.2660   18.4307 O.co2   1  UNL1       -0.5492
     30 O           4.6122   -4.5189   20.9179 O.co2   1  UNL1       -0.5492
     31 C           6.7406   -0.5989   20.7105 C.3     1  UNL1        0.1324
     32 C           6.8843   -1.7631   21.6453 C.ar    1  UNL1        0.0004
     33 C           5.9607   -1.9009   22.8192 C.ar    1  UNL1       -0.0023
     34 C           6.1044   -3.0651   23.7540 C.ar    1  UNL1        0.0012
     35 C           7.1718   -4.0916   23.5149 C.ar    1  UNL1        0.0176
     36 C           8.0953   -3.9538   22.3411 C.ar    1  UNL1        0.0012
     37 C           7.9516   -2.7896   21.4062 C.ar    1  UNL1       -0.0023
     38 C           7.3155   -5.2559   24.4497 C.ar    1  UNL1        0.0815
     39 C           8.0340   -6.4937   24.0010 C.ar    1  UNL1        0.0215
     40 C           8.1777   -7.6580   24.9359 C.ar    1  UNL1        0.0328
     41 C           7.6028   -7.5844   26.3194 C.ar    1  UNL1        0.1592
     42 F           7.7465   -8.7486   27.2543 F       1  UNL1       -0.2025
     43 C           6.8843   -6.3465   26.7680 C.ar    1  UNL1        0.1283
     44 N           6.7406   -5.1822   25.8332 N.ar    1  UNL1       -0.2415
@<TRIPOS>UNITY_ATOM_ATTR
29 1
charge -1
@<TRIPOS>BOND
     1    12    13    1
     2    13    14   ar
     3    14    15   ar
     4    15    16   ar
     5    16    11    1
     6    11    10    1
     7    10     1    1
     8     1     2   ar
     9     2     3   ar
    10     3     4   ar
    11     4     5   ar
    12     5     6   ar
    13     5     7   ar
    14     7    19    1
    15    19    20    1
    16    20    21    1
    17    20    22    1
    18    20    23    1
    19     7     8   ar
    20     8    24    1
    21    24    25    1
    22    25    26    1
    23    25    27    1
    24    25    28    1
    25    28    29   ar
    26    28    30   ar
    27     8     9   ar
    28     9    31    1
    29    31    32    1
    30    32    33   ar
    31    33    34   ar
    32    34    35   ar
    33    35    38    1
    34    38    39   ar
    35    39    40   ar
    36    40    41   ar
    37    41    42    1
    38    41    43   ar
    39    43    44   ar
    40    35    36   ar
    41    36    37   ar
    42    16    17   ar
    43    17    18   ar
    44    18    13   ar
    45     6     1   ar
    46    37    32   ar
    47     9     4   ar
    48    44    38   ar
@<TRIPOS>MOLECULE
*****
 44 48 0 0 0
SMALL
GASTEIGER

@<TRIPOS>ATOM
      1 C           3.9608   -0.8602   25.1278 C.ar    1  UNL1        0.1392
      2 C           3.4742    0.5509   25.2765 C.ar    1  UNL1        0.0384
      3 C           3.1370    1.3600   24.0594 C.ar    1  UNL1        0.0203
      4 C           3.2863    0.7581   22.6936 C.ar    1  UNL1        0.0606
      5 C           3.7729   -0.6529   22.5449 C.ar    1  UNL1        0.0256
      6 C           4.1102   -1.4621   23.7620 C.ar    1  UNL1        0.0389
      7 C           3.8201   -0.9751   21.0807 C.ar    1  UNL1        0.0383
      8 C           3.3626    0.2369   20.3244 C.ar    1  UNL1        0.0433
      9 N           3.0327    1.3081   21.3212 N.ar    1  UNL1       -0.3260
     10 O           4.2981   -1.6694   26.3450 O.3     1  UNL1       -0.4690
     11 C           5.7297   -1.9851   26.6627 C.3     1  UNL1        0.2508
     12 C           7.8479   -7.5281   25.7743 C.3     1  UNL1        0.0327
     13 C           7.3183   -6.1423   25.9964 C.ar    1  UNL1       -0.0027
     14 C           7.2366   -5.1780   24.8504 C.ar    1  UNL1       -0.0014
     15 C           6.7071   -3.7923   25.0725 C.ar    1  UNL1        0.0181
     16 C           6.2592   -3.3709   26.4406 C.ar    1  UNL1        0.1026
     17 N           6.3409   -4.3352   27.5866 N.ar    1  UNL1       -0.2448
     18 C           6.8705   -5.7209   27.3646 C.ar    1  UNL1        0.0943
     19 S           4.2494   -2.2801   20.4785 S.3     1  UNL1       -0.1142
     20 C           5.4958   -2.9572   20.9662 C.3     1  UNL1        0.0434
     21 C           6.3208   -1.8254   20.4292 C.3     1  UNL1        0.0112
     22 C           4.6708   -4.0891   21.5032 C.3     1  UNL1        0.0112
     23 C           6.7423   -3.6343   21.4539 C.3     1  UNL1        0.0112
     24 C           3.2541    0.3565   18.8330 C.3     1  UNL1        0.0495
     25 C           4.4867    0.2732   17.9823 C.3     1  UNL1        0.0376
     26 C           5.1183    1.3680   18.7901 C.3     1  UNL1        0.0059
     27 C           3.8552   -0.8217   17.1746 C.3     1  UNL1        0.0059
     28 C           5.7193    0.1898   17.1316 C.2     1  UNL1        0.0500
     29 O           6.1693    1.3845   16.3441 O.co2   1  UNL1       -0.5492
     30 O           6.5020   -1.0883   17.0684 O.co2   1  UNL1       -0.5492
     31 C           2.5364    2.6871   21.0018 C.3     1  UNL1        0.1324
     32 C           1.0894    2.9059   20.6728 C.ar    1  UNL1        0.0004
     33 C           0.0654    2.9234   21.7688 C.ar    1  UNL1       -0.0023
     34 C          -1.3816    3.1422   21.4399 C.ar    1  UNL1        0.0012
     35 C          -1.8046    3.3435   20.0148 C.ar    1  UNL1        0.0176
     36 C          -0.7807    3.3260   18.9189 C.ar    1  UNL1        0.0012
     37 C           0.6664    3.1072   19.2479 C.ar    1  UNL1       -0.0023
     38 C          -3.2517    3.5623   19.6859 C.ar    1  UNL1        0.0815
     39 C          -4.2966    3.3905   20.7482 C.ar    1  UNL1        0.0215
     40 C          -5.7437    3.6093   20.4193 C.ar    1  UNL1        0.0328
     41 C          -6.1458    3.9999   19.0280 C.ar    1  UNL1        0.1592
     42 F          -7.5928    4.2188   18.6990 F       1  UNL1       -0.2025
     43 C          -5.1009    4.1717   17.9657 C.ar    1  UNL1        0.1283
     44 N          -3.6538    3.9529   18.2946 N.ar    1  UNL1       -0.2415
@<TRIPOS>UNITY_ATOM_ATTR
29 1
charge -1
@<TRIPOS>BOND
     1    12    13    1
     2    13    14   ar
     3    14    15   ar
     4    15    16   ar
     5    16    11    1
     6    11    10    1
     7    10     1    1
     8     1     2   ar
     9     2     3   ar
    10     3     4   ar
    11     4     5   ar
    12     5     6   ar
    13     5     7   ar
    14     7    19    1
    15    19    20    1
    16    20    21    1
    17    20    22    1
    18    20    23    1
    19     7     8   ar
    20     8    24    1
    21    24    25    1
    22    25    26    1
    23    25    27    1
    24    25    28    1
    25    28    29   ar
    26    28    30   ar
    27     8     9   ar
    28     9    31    1
    29    31    32    1
    30    32    33   ar
    31    33    34   ar
    32    34    35   ar
    33    35    38    1
    34    38    39   ar
    35    39    40   ar
    36    40    41   ar
    37    41    42    1
    38    41    43   ar
    39    43    44   ar
    40    35    36   ar
    41    36    37   ar
    42    16    17   ar
    43    17    18   ar
    44    18    13   ar
    45     6     1   ar
    46    37    32   ar
    47     9     4   ar
    48    44    38   ar
@<TRIPOS>MOLECULE
*****
 44 48 0 0 0
SMALL
GASTEIGER

@<TRIPOS>ATOM
      1 C           5.6306   -2.0953   25.7873 C.ar    1  UNL1        0.1392
      2 C           5.3139   -0.6713   26.1366 C.ar    1  UNL1        0.0384
      3 C           4.7402    0.2459   25.0976 C.ar    1  UNL1        0.0203
      4 C           4.4832   -0.2607   23.7094 C.ar    1  UNL1        0.0606
      5 C           4.7999   -1.6847   23.3601 C.ar    1  UNL1        0.0256
      6 C           5.3736   -2.6019   24.3990 C.ar    1  UNL1        0.0389
      7 C           4.4416   -1.8992   21.9194 C.ar    1  UNL1        0.0383
      8 C           3.9034   -0.6078   21.3783 C.ar    1  UNL1        0.0433
      9 N           3.9291    0.4048   22.4846 N.ar    1  UNL1       -0.3260
     10 O           6.2043   -3.0126   26.8262 O.3     1  UNL1       -0.4690
     11 C           7.0038   -2.4503   27.9640 C.3     1  UNL1        0.2508
     12 C           4.6211   -2.1900   33.4645 C.3     1  UNL1        0.0327
     13 C           5.2167   -2.2551   32.0893 C.ar    1  UNL1       -0.0027
     14 C           6.1842   -3.3475   31.7420 C.ar    1  UNL1       -0.0014
     15 C           6.7799   -3.4126   30.3670 C.ar    1  UNL1        0.0181
     16 C           6.4081   -2.3853   29.3392 C.ar    1  UNL1        0.1026
     17 N           5.4407   -1.2928   29.6865 N.ar    1  UNL1       -0.2448
     18 C           4.8450   -1.2277   31.0616 C.ar    1  UNL1        0.0943
     19 S           4.5946   -3.1802   21.1542 S.3     1  UNL1       -0.1142
     20 C           5.0134   -3.1482   19.7142 C.3     1  UNL1        0.0434
     21 C           3.6671   -3.6725   19.3110 C.3     1  UNL1        0.0112
     22 C           6.3597   -2.6239   20.1174 C.3     1  UNL1        0.0112
     23 C           5.4322   -3.1162   18.2742 C.3     1  UNL1        0.0112
     24 C           3.4238   -0.3707   19.9769 C.3     1  UNL1        0.0495
     25 C           2.0691    0.2278   19.7390 C.3     1  UNL1        0.0376
     26 C           1.4425   -0.8686   20.5485 C.3     1  UNL1        0.0059
     27 C           2.6957    1.3242   18.9296 C.3     1  UNL1        0.0059
     28 C           0.7145    0.8264   19.5011 C.2     1  UNL1        0.0500
     29 O          -0.3283    0.7738   20.5781 O.co2   1  UNL1       -0.5492
     30 O           0.4026    1.4775   18.1863 O.co2   1  UNL1       -0.5492
     31 C           3.4797    1.8324   22.3838 C.3     1  UNL1        0.1324
     32 C           2.1130    2.2240   22.8622 C.ar    1  UNL1        0.0004
     33 C           1.4186    3.4092   22.2598 C.ar    1  UNL1       -0.0023
     34 C           0.0519    3.8008   22.7382 C.ar    1  UNL1        0.0012
     35 C          -0.6202    3.0071   23.8191 C.ar    1  UNL1        0.0176
     36 C           0.0743    1.8219   24.4215 C.ar    1  UNL1        0.0012
     37 C           1.4409    1.4303   23.9431 C.ar    1  UNL1       -0.0023
     38 C          -1.9869    3.3987   24.2975 C.ar    1  UNL1        0.0815
     39 C          -2.2689    3.4911   25.7679 C.ar    1  UNL1        0.0215
     40 C          -3.6355    3.8827   26.2463 C.ar    1  UNL1        0.0328
     41 C          -4.7202    4.1819   25.2544 C.ar    1  UNL1        0.1592
     42 F          -6.0869    4.5735   25.7327 F       1  UNL1       -0.2025
     43 C          -4.4382    4.0895   23.7840 C.ar    1  UNL1        0.1283
     44 N          -3.0716    3.6979   23.3056 N.ar    1  UNL1       -0.2415
@<TRIPOS>UNITY_ATOM_ATTR
29 1
charge -1
@<TRIPOS>BOND
     1    12    13    1
     2    13    14   ar
     3    14    15   ar
     4    15    16   ar
     5    16    11    1
     6    11    10    1
     7    10     1    1
     8     1     2   ar
     9     2     3   ar
    10     3     4   ar
    11     4     5   ar
    12     5     6   ar
    13     5     7   ar
    14     7    19    1
    15    19    20    1
    16    20    21    1
    17    20    22    1
    18    20    23    1
    19     7     8   ar
    20     8    24    1
    21    24    25    1
    22    25    26    1
    23    25    27    1
    24    25    28    1
    25    28    29   ar
    26    28    30   ar
    27     8     9   ar
    28     9    31    1
    29    31    32    1
    30    32    33   ar
    31    33    34   ar
    32    34    35   ar
    33    35    38    1
    34    38    39   ar
    35    39    40   ar
    36    40    41   ar
    37    41    42    1
    38    41    43   ar
    39    43    44   ar
    40    35    36   ar
    41    36    37   ar
    42    16    17   ar
    43    17    18   ar
    44    18    13   ar
    45     6     1   ar
    46    37    32   ar
    47     9     4   ar
    48    44    38   ar
@<TRIPOS>MOLECULE
*****
 44 48 0 0 0
SMALL
GASTEIGER

@<TRIPOS>ATOM
      1 C           6.7752   -1.5505   22.8060 C.ar    1  UNL1        0.1392
      2 C           6.5753   -0.3007   23.6109 C.ar    1  UNL1        0.0384
      3 C           5.7256    0.8112   23.0710 C.ar    1  UNL1        0.0203
      4 C           5.0757    0.6733   21.7261 C.ar    1  UNL1        0.0606
      5 C           5.2756   -0.5765   20.9212 C.ar    1  UNL1        0.0256
      6 C           6.1253   -1.6884   21.4611 C.ar    1  UNL1        0.0389
      7 C           4.5139   -0.4279   19.6375 C.ar    1  UNL1        0.0383
      8 C           3.8433    0.9138   19.6491 C.ar    1  UNL1        0.0433
      9 N           4.1905    1.5944   20.9399 N.ar    1  UNL1       -0.3260
     10 O           7.6249   -2.6625   23.3459 O.3     1  UNL1       -0.4690
     11 C           7.3493   -4.0807   22.9426 C.3     1  UNL1        0.2508
     12 C           7.9413   -8.5081   26.9486 C.3     1  UNL1        0.0327
     13 C           7.7933   -7.4012   25.9471 C.ar    1  UNL1       -0.0027
     14 C           7.1695   -6.0994   26.3547 C.ar    1  UNL1       -0.0014
     15 C           7.0215   -4.9926   25.3532 C.ar    1  UNL1        0.0181
     16 C           7.4973   -5.1876   23.9442 C.ar    1  UNL1        0.1026
     17 N           8.1211   -6.4894   23.5365 N.ar    1  UNL1       -0.2448
     18 C           8.2691   -7.5962   24.5380 C.ar    1  UNL1        0.0943
     19 S           4.4365   -1.4428   18.5357 S.3     1  UNL1       -0.1142
     20 C           4.3934   -2.9055   18.8651 C.3     1  UNL1        0.0434
     21 C           5.7221   -3.0955   18.1954 C.3     1  UNL1        0.0112
     22 C           3.0647   -2.7156   19.5348 C.3     1  UNL1        0.0112
     23 C           4.3503   -4.3683   19.1944 C.3     1  UNL1        0.0112
     24 C           2.9775    1.4762   18.5609 C.3     1  UNL1        0.0495
     25 C           1.5664    1.8864   18.8618 C.3     1  UNL1        0.0376
     26 C           1.8709    3.2782   18.3925 C.3     1  UNL1        0.0059
     27 C           1.2619    0.4946   19.3311 C.3     1  UNL1        0.0059
     28 C           0.1553    2.2966   19.1626 C.2     1  UNL1        0.0500
     29 O          -0.5321    3.3101   18.2965 O.co2   1  UNL1       -0.5492
     30 O          -0.5685    1.6932   20.3298 O.co2   1  UNL1       -0.5492
     31 C           3.7329    2.9569   21.3692 C.3     1  UNL1        0.1324
     32 C           2.4058    3.1228   22.0485 C.ar    1  UNL1        0.0004
     33 C           1.6276    4.3932   21.8740 C.ar    1  UNL1       -0.0023
     34 C           0.3005    4.5591   22.5533 C.ar    1  UNL1        0.0012
     35 C          -0.2482    3.4546   23.4072 C.ar    1  UNL1        0.0176
     36 C           0.5301    2.1843   23.5816 C.ar    1  UNL1        0.0012
     37 C           1.8571    2.0183   22.9023 C.ar    1  UNL1       -0.0023
     38 C          -1.5752    3.6205   24.0865 C.ar    1  UNL1        0.0815
     39 C          -1.6848    3.4428   25.5719 C.ar    1  UNL1        0.0215
     40 C          -3.0119    3.6087   26.2512 C.ar    1  UNL1        0.0328
     41 C          -4.2293    3.9524   25.4451 C.ar    1  UNL1        0.1592
     42 F          -5.5564    4.1184   26.1244 F       1  UNL1       -0.2025
     43 C          -4.1197    4.1301   23.9597 C.ar    1  UNL1        0.1283
     44 N          -2.7926    3.9642   23.2804 N.ar    1  UNL1       -0.2415
@<TRIPOS>UNITY_ATOM_ATTR
29 1
charge -1
@<TRIPOS>BOND
     1    12    13    1
     2    13    14   ar
     3    14    15   ar
     4    15    16   ar
     5    16    11    1
     6    11    10    1
     7    10     1    1
     8     1     2   ar
     9     2     3   ar
    10     3     4   ar
    11     4     5   ar
    12     5     6   ar
    13     5     7   ar
    14     7    19    1
    15    19    20    1
    16    20    21    1
    17    20    22    1
    18    20    23    1
    19     7     8   ar
    20     8    24    1
    21    24    25    1
    22    25    26    1
    23    25    27    1
    24    25    28    1
    25    28    29   ar
    26    28    30   ar
    27     8     9   ar
    28     9    31    1
    29    31    32    1
    30    32    33   ar
    31    33    34   ar
    32    34    35   ar
    33    35    38    1
    34    38    39   ar
    35    39    40   ar
    36    40    41   ar
    37    41    42    1
    38    41    43   ar
    39    43    44   ar
    40    35    36   ar
    41    36    37   ar
    42    16    17   ar
    43    17    18   ar
    44    18    13   ar
    45     6     1   ar
    46    37    32   ar
    47     9     4   ar
    48    44    38   ar
@<TRIPOS>MOLECULE
*****
 44 48 0 0 0
SMALL
GASTEIGER

@<TRIPOS>ATOM
      1 C          -0.5226    2.3806   20.5568 C.ar    1  UNL1        0.1392
      2 C           0.3251    2.6546   21.7634 C.ar    1  UNL1        0.0384
      3 C          -0.2269    3.4631   22.8999 C.ar    1  UNL1        0.0203
      4 C          -1.6266    3.9976   22.8296 C.ar    1  UNL1        0.0606
      5 C          -2.4744    3.7236   21.6229 C.ar    1  UNL1        0.0256
      6 C          -1.9224    2.9151   20.4865 C.ar    1  UNL1        0.0389
      7 C          -3.8081    4.3764   21.8355 C.ar    1  UNL1        0.0383
      8 C          -3.7845    5.0539   23.1736 C.ar    1  UNL1        0.0433
      9 N          -2.4363    4.8198   23.7880 N.ar    1  UNL1       -0.3260
     10 O           0.0293    1.5720   19.4202 O.3     1  UNL1       -0.4690
     11 C           1.4929    1.6332   19.0976 C.3     1  UNL1        0.2508
     12 C           4.6835   -3.4296   18.6631 C.3     1  UNL1        0.0327
     13 C           3.8858   -2.1639   18.7717 C.ar    1  UNL1       -0.0027
     14 C           3.0334   -1.9160   19.9808 C.ar    1  UNL1       -0.0014
     15 C           2.2358   -0.6504   20.0895 C.ar    1  UNL1        0.0181
     16 C           2.2906    0.3674   18.9890 C.ar    1  UNL1        0.1026
     17 N           3.1430    0.1196   17.7799 N.ar    1  UNL1       -0.2448
     18 C           3.9406   -1.1461   17.6712 C.ar    1  UNL1        0.0943
     19 S          -4.9626    4.3554   20.8781 S.3     1  UNL1       -0.1142
     20 C          -4.8007    4.9146   19.4956 C.3     1  UNL1        0.0434
     21 C          -4.4680    6.2565   20.0774 C.3     1  UNL1        0.0112
     22 C          -5.1335    3.5726   18.9139 C.3     1  UNL1        0.0112
     23 C          -4.6389    5.4737   18.1132 C.3     1  UNL1        0.0112
     24 C          -4.9115    5.8293   23.7892 C.3     1  UNL1        0.0495
     25 C          -5.2632    5.6231   25.2327 C.3     1  UNL1        0.0376
     26 C          -5.5685    4.1815   24.9523 C.3     1  UNL1        0.0059
     27 C          -4.9579    7.0647   25.5131 C.3     1  UNL1        0.0059
     28 C          -5.6149    5.4168   26.6762 C.2     1  UNL1        0.0500
     29 O          -6.8843    5.9940   27.2287 O.co2   1  UNL1       -0.5492
     30 O          -4.6971    4.6333   27.5672 O.co2   1  UNL1       -0.5492
     31 C          -1.9782    5.3200   25.1259 C.3     1  UNL1        0.1324
     32 C          -1.2363    4.4053   26.0548 C.ar    1  UNL1        0.0004
     33 C          -1.7828    3.0422   26.3600 C.ar    1  UNL1       -0.0023
     34 C          -1.0409    2.1274   27.2889 C.ar    1  UNL1        0.0012
     35 C           0.2475    2.5759   27.9125 C.ar    1  UNL1        0.0176
     36 C           0.7939    3.9390   27.6073 C.ar    1  UNL1        0.0012
     37 C           0.0520    4.8538   26.6784 C.ar    1  UNL1       -0.0023
     38 C           0.9894    1.6612   28.8414 C.ar    1  UNL1        0.0815
     39 C           1.2314    2.0718   30.2637 C.ar    1  UNL1        0.0215
     40 C           1.9733    1.1570   31.1926 C.ar    1  UNL1        0.0328
     41 C           2.4732   -0.1683   30.6992 C.ar    1  UNL1        0.1592
     42 F           3.2152   -1.0832   31.6280 F       1  UNL1       -0.2025
     43 C           2.2313   -0.5789   29.2769 C.ar    1  UNL1        0.1283
     44 N           1.4894    0.3358   28.3480 N.ar    1  UNL1       -0.2415
@<TRIPOS>UNITY_ATOM_ATTR
29 1
charge -1
@<TRIPOS>BOND
     1    12    13    1
     2    13    14   ar
     3    14    15   ar
     4    15    16   ar
     5    16    11    1
     6    11    10    1
     7    10     1    1
     8     1     2   ar
     9     2     3   ar
    10     3     4   ar
    11     4     5   ar
    12     5     6   ar
    13     5     7   ar
    14     7    19    1
    15    19    20    1
    16    20    21    1
    17    20    22    1
    18    20    23    1
    19     7     8   ar
    20     8    24    1
    21    24    25    1
    22    25    26    1
    23    25    27    1
    24    25    28    1
    25    28    29   ar
    26    28    30   ar
    27     8     9   ar
    28     9    31    1
    29    31    32    1
    30    32    33   ar
    31    33    34   ar
    32    34    35   ar
    33    35    38    1
    34    38    39   ar
    35    39    40   ar
    36    40    41   ar
    37    41    42    1
    38    41    43   ar
    39    43    44   ar
    40    35    36   ar
    41    36    37   ar
    42    16    17   ar
    43    17    18   ar
    44    18    13   ar
    45     6     1   ar
    46    37    32   ar
    47     9     4   ar
    48    44    38   ar
@<TRIPOS>MOLECULE
*****
 44 48 0 0 0
SMALL
GASTEIGER

@<TRIPOS>ATOM
      1 C           7.8668   -0.9180   24.3074 C.ar    1  UNL1        0.1392
      2 C           7.3667    0.4781   24.5331 C.ar    1  UNL1        0.0384
      3 C           6.3644    1.0771   23.5916 C.ar    1  UNL1        0.0203
      4 C           5.8622    0.2800   22.4243 C.ar    1  UNL1        0.0606
      5 C           6.3623   -1.1160   22.1985 C.ar    1  UNL1        0.0256
      6 C           7.3646   -1.7150   23.1401 C.ar    1  UNL1        0.0389
      7 C           5.6906   -1.6560   20.9709 C.ar    1  UNL1        0.0383
      8 C           4.7755   -0.5938   20.4378 C.ar    1  UNL1        0.0433
      9 N           4.8815    0.6028   21.3361 N.ar    1  UNL1       -0.3260
     10 O           8.8692   -1.5171   25.2489 O.3     1  UNL1       -0.4690
     11 C           8.4056   -2.2164   26.4923 C.3     1  UNL1        0.2508
     12 C           7.5546   -8.1556   26.4538 C.3     1  UNL1        0.0327
     13 C           7.7673   -6.6708   26.4634 C.ar    1  UNL1       -0.0027
     14 C           9.1156   -6.1041   26.1303 C.ar    1  UNL1       -0.0014
     15 C           9.3284   -4.6194   26.1399 C.ar    1  UNL1        0.0181
     16 C           8.1929   -3.7012   26.4826 C.ar    1  UNL1        0.1026
     17 N           6.8446   -4.2679   26.8158 N.ar    1  UNL1       -0.2448
     18 C           6.6318   -5.7526   26.8062 C.ar    1  UNL1        0.0943
     19 S           5.8978   -3.0191   20.3800 S.3     1  UNL1       -0.1142
     20 C           4.7190   -3.9062   20.1091 C.3     1  UNL1        0.0434
     21 C           5.0148   -3.8505   18.6396 C.3     1  UNL1        0.0112
     22 C           4.4233   -3.9619   21.5786 C.3     1  UNL1        0.0112
     23 C           3.5402   -4.7934   19.8382 C.3     1  UNL1        0.0112
     24 C           3.9068   -0.7081   19.2203 C.3     1  UNL1        0.0495
     25 C           2.4906   -0.2154   19.2604 C.3     1  UNL1        0.0376
     26 C           2.1765   -1.2062   20.3419 C.3     1  UNL1        0.0059
     27 C           2.8047    0.7754   18.1789 C.3     1  UNL1        0.0059
     28 C           1.0744    0.2773   19.3005 C.2     1  UNL1        0.0500
     29 O           0.5306    1.0902   18.1633 O.co2   1  UNL1       -0.5492
     30 O           0.2020   -0.0429   20.4781 O.co2   1  UNL1       -0.5492
     31 C           4.1374    1.8952   21.1746 C.3     1  UNL1        0.1324
     32 C           2.9228    2.1709   22.0104 C.ar    1  UNL1        0.0004
     33 C           2.5071    1.1975   23.0733 C.ar    1  UNL1       -0.0023
     34 C           1.2924    1.4732   23.9091 C.ar    1  UNL1        0.0012
     35 C           0.4934    2.7223   23.6819 C.ar    1  UNL1        0.0176
     36 C           0.9092    3.6955   22.6190 C.ar    1  UNL1        0.0012
     37 C           2.1238    3.4199   21.7832 C.ar    1  UNL1       -0.0023
     38 C          -0.7212    2.9979   24.5177 C.ar    1  UNL1        0.0815
     39 C          -0.7122    2.6767   25.9829 C.ar    1  UNL1        0.0215
     40 C          -1.9268    2.9523   26.8187 C.ar    1  UNL1        0.0328
     41 C          -3.1506    3.5492   26.1894 C.ar    1  UNL1        0.1592
     42 F          -4.3653    3.8249   27.0251 F       1  UNL1       -0.2025
     43 C          -3.1597    3.8705   24.7242 C.ar    1  UNL1        0.1283
     44 N          -1.9450    3.5948   23.8884 N.ar    1  UNL1       -0.2415
@<TRIPOS>UNITY_ATOM_ATTR
29 1
charge -1
@<TRIPOS>BOND
     1    12    13    1
     2    13    14   ar
     3    14    15   ar
     4    15    16   ar
     5    16    11    1
     6    11    10    1
     7    10     1    1
     8     1     2   ar
     9     2     3   ar
    10     3     4   ar
    11     4     5   ar
    12     5     6   ar
    13     5     7   ar
    14     7    19    1
    15    19    20    1
    16    20    21    1
    17    20    22    1
    18    20    23    1
    19     7     8   ar
    20     8    24    1
    21    24    25    1
    22    25    26    1
    23    25    27    1
    24    25    28    1
    25    28    29   ar
    26    28    30   ar
    27     8     9   ar
    28     9    31    1
    29    31    32    1
    30    32    33   ar
    31    33    34   ar
    32    34    35   ar
    33    35    38    1
    34    38    39   ar
    35    39    40   ar
    36    40    41   ar
    37    41    42    1
    38    41    43   ar
    39    43    44   ar
    40    35    36   ar
    41    36    37   ar
    42    16    17   ar
    43    17    18   ar
    44    18    13   ar
    45     6     1   ar
    46    37    32   ar
    47     9     4   ar
    48    44    38   ar
@<TRIPOS>MOLECULE
*****
 44 48 0 0 0
SMALL
GASTEIGER

@<TRIPOS>ATOM
      1 C           2.2436    0.5362   30.3012 C.ar    1  UNL1        0.1392
      2 C           2.6744    0.9853   28.9364 C.ar    1  UNL1        0.0384
      3 C           3.9781    0.5095   28.3672 C.ar    1  UNL1        0.0203
      4 C           4.8509   -0.4153   29.1628 C.ar    1  UNL1        0.0606
      5 C           4.4200   -0.8643   30.5276 C.ar    1  UNL1        0.0256
      6 C           3.1164   -0.3886   31.0968 C.ar    1  UNL1        0.0389
      7 C           5.4820   -1.7721   31.0736 C.ar    1  UNL1        0.0383
      8 C           6.5692   -1.8841   30.0462 C.ar    1  UNL1        0.0433
      9 N           6.1792   -1.0456   28.8653 N.ar    1  UNL1       -0.3260
     10 O           0.9398    1.0119   30.8705 O.3     1  UNL1       -0.4690
     11 C           0.7490    2.4635   31.1966 C.3     1  UNL1        0.2508
     12 C           2.2125    4.5344   36.6344 C.3     1  UNL1        0.0327
     13 C           1.8466    4.0167   35.2749 C.ar    1  UNL1       -0.0027
     14 C           2.3498    2.6783   34.8217 C.ar    1  UNL1       -0.0014
     15 C           1.9839    2.1606   33.4623 C.ar    1  UNL1        0.0181
     16 C           1.1149    2.9813   32.5561 C.ar    1  UNL1        0.1026
     17 N           0.6117    4.3197   33.0093 N.ar    1  UNL1       -0.2448
     18 C           0.9776    4.8374   34.3688 C.ar    1  UNL1        0.0943
     19 S           5.4605   -2.4491   32.4119 S.3     1  UNL1       -0.1142
     20 C           5.2444   -1.6416   33.6575 C.3     1  UNL1        0.0434
     21 C           3.9604   -2.3748   33.9100 C.3     1  UNL1        0.0112
     22 C           6.5285   -0.9084   33.4049 C.3     1  UNL1        0.0112
     23 C           5.0284   -0.8341   34.9030 C.3     1  UNL1        0.0112
     24 C           7.8259   -2.6928   30.1769 C.3     1  UNL1        0.0495
     25 C           7.7451   -4.1650   30.4525 C.3     1  UNL1        0.0376
     26 C           6.8700   -4.3426   29.2472 C.3     1  UNL1        0.0059
     27 C           8.6202   -3.9875   31.6578 C.3     1  UNL1        0.0059
     28 C           7.6643   -5.6373   30.7281 C.2     1  UNL1        0.0500
     29 O           8.4840   -6.5979   29.9186 O.co2   1  UNL1       -0.5492
     30 O           6.7637   -6.1489   31.8132 O.co2   1  UNL1       -0.5492
     31 C           6.9773   -0.8683   27.6076 C.3     1  UNL1        0.1324
     32 C           6.4053   -1.2988   26.2895 C.ar    1  UNL1        0.0004
     33 C           5.8255   -0.2791   25.3546 C.ar    1  UNL1       -0.0023
     34 C           5.2535   -0.7096   24.0364 C.ar    1  UNL1        0.0012
     35 C           5.2615   -2.1599   23.6532 C.ar    1  UNL1        0.0176
     36 C           5.8413   -3.1795   24.5881 C.ar    1  UNL1        0.0012
     37 C           6.4133   -2.7490   25.9063 C.ar    1  UNL1       -0.0023
     38 C           4.6895   -2.5904   22.3351 C.ar    1  UNL1        0.0815
     39 C           4.8472   -4.0099   21.8767 C.ar    1  UNL1        0.0215
     40 C           4.2753   -4.4404   20.5586 C.ar    1  UNL1        0.0328
     41 C           3.5456   -3.4513   19.6987 C.ar    1  UNL1        0.1592
     42 F           2.9736   -3.8817   18.3805 F       1  UNL1       -0.2025
     43 C           3.3879   -2.0318   20.1570 C.ar    1  UNL1        0.1283
     44 N           3.9599   -1.6013   21.4752 N.ar    1  UNL1       -0.2415
@<TRIPOS>UNITY_ATOM_ATTR
29 1
charge -1
@<TRIPOS>BOND
     1    12    13    1
     2    13    14   ar
     3    14    15   ar
     4    15    16   ar
     5    16    11    1
     6    11    10    1
     7    10     1    1
     8     1     2   ar
     9     2     3   ar
    10     3     4   ar
    11     4     5   ar
    12     5     6   ar
    13     5     7   ar
    14     7    19    1
    15    19    20    1
    16    20    21    1
    17    20    22    1
    18    20    23    1
    19     7     8   ar
    20     8    24    1
    21    24    25    1
    22    25    26    1
    23    25    27    1
    24    25    28    1
    25    28    29   ar
    26    28    30   ar
    27     8     9   ar
    28     9    31    1
    29    31    32    1
    30    32    33   ar
    31    33    34   ar
    32    34    35   ar
    33    35    38    1
    34    38    39   ar
    35    39    40   ar
    36    40    41   ar
    37    41    42    1
    38    41    43   ar
    39    43    44   ar
    40    35    36   ar
    41    36    37   ar
    42    16    17   ar
    43    17    18   ar
    44    18    13   ar
    45     6     1   ar
    46    37    32   ar
    47     9     4   ar
    48    44    38   ar
@<TRIPOS>MOLECULE
*****
 44 48 0 0 0
SMALL
GASTEIGER

@<TRIPOS>ATOM
      1 C           3.6916   -0.7395   25.0369 C.ar    1  UNL1        0.1392
      2 C           3.2062    0.6760   25.1392 C.ar    1  UNL1        0.0384
      3 C           2.9257    1.4645   23.8944 C.ar    1  UNL1        0.0203
      4 C           3.1305    0.8374   22.5473 C.ar    1  UNL1        0.0606
      5 C           3.6159   -0.5782   22.4450 C.ar    1  UNL1        0.0256
      6 C           3.8965   -1.3666   23.6898 C.ar    1  UNL1        0.0389
      7 C           3.7244   -0.9269   20.9901 C.ar    1  UNL1        0.0383
      8 C           3.3060    0.2731   20.1933 C.ar    1  UNL1        0.0433
      9 N           2.9390    1.3635   21.1557 N.ar    1  UNL1       -0.3260
     10 O           3.9722   -1.5281   26.2817 O.3     1  UNL1       -0.4690
     11 C           5.3703   -1.9788   26.5848 C.3     1  UNL1        0.2508
     12 C           6.8665   -3.5614   32.1757 C.3     1  UNL1        0.0327
     13 C           6.4925   -3.1657   30.7779 C.ar    1  UNL1       -0.0027
     14 C           6.7391   -4.1108   29.6395 C.ar    1  UNL1       -0.0014
     15 C           6.3651   -3.7152   28.2418 C.ar    1  UNL1        0.0181
     16 C           5.7444   -2.3745   27.9826 C.ar    1  UNL1        0.1026
     17 N           5.4977   -1.4294   29.1210 N.ar    1  UNL1       -0.2448
     18 C           5.8718   -1.8251   30.5187 C.ar    1  UNL1        0.0943
     19 S           4.1725   -2.2444   20.4304 S.3     1  UNL1       -0.1142
     20 C           5.3840   -2.9259   20.9944 C.3     1  UNL1        0.0434
     21 C           6.2437   -1.7938   20.5154 C.3     1  UNL1        0.0112
     22 C           4.5243   -4.0579   21.4733 C.3     1  UNL1        0.0112
     23 C           6.5954   -3.6073   21.5584 C.3     1  UNL1        0.0112
     24 C           3.2623    0.3662   18.6968 C.3     1  UNL1        0.0495
     25 C           4.5299    0.2623   17.9016 C.3     1  UNL1        0.0376
     26 C           3.9278   -0.8436   17.0863 C.3     1  UNL1        0.0059
     27 C           5.1320    1.3681   18.7168 C.3     1  UNL1        0.0059
     28 C           5.7975    0.1583   17.1063 C.2     1  UNL1        0.0500
     29 O           6.5803   -1.1212   17.1067 O.co2   1  UNL1       -0.5492
     30 O           6.2823    1.3339   16.3107 O.co2   1  UNL1       -0.5492
     31 C           2.4638    2.7386   20.7906 C.3     1  UNL1        0.1324
     32 C           1.0134    2.9760   20.4907 C.ar    1  UNL1        0.0004
     33 C           0.0167    3.0388   21.6099 C.ar    1  UNL1       -0.0023
     34 C          -1.4338    3.2761   21.3101 C.ar    1  UNL1        0.0012
     35 C          -1.8874    3.4506   19.8910 C.ar    1  UNL1        0.0176
     36 C          -0.8907    3.3878   18.7719 C.ar    1  UNL1        0.0012
     37 C           0.5597    3.1505   19.0717 C.ar    1  UNL1       -0.0023
     38 C          -3.3379    3.6880   19.5911 C.ar    1  UNL1        0.0815
     39 C          -4.3693    3.4743   20.6591 C.ar    1  UNL1        0.0215
     40 C          -5.8197    3.7116   20.3593 C.ar    1  UNL1        0.0328
     41 C          -6.2388    4.1626   18.9915 C.ar    1  UNL1        0.1592
     42 F          -7.6892    4.4000   18.6916 F       1  UNL1       -0.2025
     43 C          -5.2074    4.3763   17.9235 C.ar    1  UNL1        0.1283
     44 N          -3.7570    4.1390   18.2233 N.ar    1  UNL1       -0.2415
@<TRIPOS>UNITY_ATOM_ATTR
29 1
charge -1
@<TRIPOS>BOND
     1    12    13    1
     2    13    14   ar
     3    14    15   ar
     4    15    16   ar
     5    16    11    1
     6    11    10    1
     7    10     1    1
     8     1     2   ar
     9     2     3   ar
    10     3     4   ar
    11     4     5   ar
    12     5     6   ar
    13     5     7   ar
    14     7    19    1
    15    19    20    1
    16    20    21    1
    17    20    22    1
    18    20    23    1
    19     7     8   ar
    20     8    24    1
    21    24    25    1
    22    25    26    1
    23    25    27    1
    24    25    28    1
    25    28    29   ar
    26    28    30   ar
    27     8     9   ar
    28     9    31    1
    29    31    32    1
    30    32    33   ar
    31    33    34   ar
    32    34    35   ar
    33    35    38    1
    34    38    39   ar
    35    39    40   ar
    36    40    41   ar
    37    41    42    1
    38    41    43   ar
    39    43    44   ar
    40    35    36   ar
    41    36    37   ar
    42    16    17   ar
    43    17    18   ar
    44    18    13   ar
    45     6     1   ar
    46    37    32   ar
    47     9     4   ar
    48    44    38   ar
