@<TRIPOS>MOLECULE
*****
 25 28 0 0 0
SMALL
GASTEIGER

@<TRIPOS>ATOM
      1 C         -13.0046   -3.9739   19.3163 C.ar    1  UNL1        0.1917
      2 N         -13.1862   -2.5377   19.7091 N.ar    1  UNL1       -0.1268
      3 N         -14.6508   -2.2987   19.9279 N.ar    1  UNL1       -0.1316
      4 C         -15.3743   -3.5872   19.6705 C.ar    1  UNL1        0.1615
      5 N         -14.3569   -4.6226   19.2925 N.ar    1  UNL1       -0.2940
      6 C         -14.7933   -6.0222   18.9754 C.3     1  UNL1        0.1302
      7 C         -16.2472   -6.3865   19.0364 C.3     1  UNL1        0.1186
      8 N         -17.2646   -5.3511   19.4143 N.am    1  UNL1       -0.2688
      9 C         -18.7184   -5.7154   19.4753 C.2     1  UNL1        0.2494
     10 O         -19.7358   -4.6800   19.8533 O.2     1  UNL1       -0.2699
     11 C         -16.8281   -3.9514   19.7314 C.3     1  UNL1        0.1343
     12 C         -17.8455   -2.9161   20.1094 C.3     1  UNL1        0.0298
     13 C         -19.1548   -7.1150   19.1582 C.ar    1  UNL1        0.0537
     14 C         -19.2374   -7.5698   17.7312 C.ar    1  UNL1        0.0068
     15 C         -19.6738   -8.9695   17.4142 C.ar    1  UNL1        0.0298
     16 C         -20.0276   -9.9143   18.5241 C.ar    1  UNL1        0.1401
     17 F         -20.4640  -11.3140   18.2071 F       1  UNL1       -0.2042
     18 C         -19.9450   -9.4596   19.9511 C.ar    1  UNL1        0.0298
     19 C         -19.5086   -8.0599   20.2682 C.ar    1  UNL1        0.0068
     20 C          -9.2871   -7.6636   18.6483 C.3     1  UNL1        0.0744
     21 C          -9.9910   -6.3400   18.6955 C.ar    1  UNL1        0.1481
     22 N          -9.3927   -5.0102   18.3438 N.ar    1  UNL1       -0.1929
     23 S         -10.4488   -3.9619   18.5336 S.2     1  UNL1        0.0369
     24 C         -11.6998   -4.6439   19.0025 C.ar    1  UNL1        0.1652
     25 N         -11.4169   -6.1136   19.1026 N.ar    1  UNL1       -0.2190
@<TRIPOS>BOND
     1    20    21    1
     2    21    22   ar
     3    22    23   ar
     4    23    24   ar
     5    24     1    1
     6     1     2   ar
     7     2     3   ar
     8     3     4   ar
     9     4     5   ar
    10     5     6    1
    11     6     7    1
    12     7     8    1
    13     8     9   am
    14     9    10    2
    15     9    13    1
    16    13    14   ar
    17    14    15   ar
    18    15    16   ar
    19    16    17    1
    20    16    18   ar
    21    18    19   ar
    22     8    11    1
    23    11    12    1
    24    24    25   ar
    25    25    21   ar
    26     5     1   ar
    27    19    13   ar
    28    11     4    1
@<TRIPOS>MOLECULE
*****
 25 28 0 0 0
SMALL
GASTEIGER

@<TRIPOS>ATOM
      1 C         -17.6388   -1.2903   20.1514 C.ar    1  UNL1        0.1917
      2 N         -18.7971   -2.1671   20.5249 N.ar    1  UNL1       -0.1268
      3 N         -18.3917   -3.5930   20.2961 N.ar    1  UNL1       -0.1316
      4 C         -16.9829   -3.5975   19.7812 C.ar    1  UNL1        0.1615
      5 N         -16.5175   -2.1743   19.6918 N.ar    1  UNL1       -0.2940
      6 C         -15.1329   -1.8672   19.2034 C.3     1  UNL1        0.1302
      7 C         -14.2136   -2.9834   18.8044 C.3     1  UNL1        0.1186
      8 N         -14.6789   -4.4066   18.8938 N.am    1  UNL1       -0.2688
      9 C         -13.7597   -5.5227   18.4948 C.2     1  UNL1        0.2494
     10 O         -14.2250   -6.9459   18.5842 O.2     1  UNL1       -0.2699
     11 C         -16.0636   -4.7136   19.3822 C.3     1  UNL1        0.1343
     12 C         -16.5290   -6.1368   19.4716 C.3     1  UNL1        0.0298
     13 C         -12.3751   -5.2156   18.0064 C.ar    1  UNL1        0.0537
     14 C         -11.2528   -5.0516   18.9880 C.ar    1  UNL1        0.0068
     15 C          -9.8681   -4.7445   18.4995 C.ar    1  UNL1        0.0298
     16 C          -9.6059   -4.6014   17.0296 C.ar    1  UNL1        0.1401
     17 F          -8.2212   -4.2944   16.5411 F       1  UNL1       -0.2042
     18 C         -10.7282   -4.7655   16.0480 C.ar    1  UNL1        0.0298
     19 C         -12.1128   -5.0725   16.5364 C.ar    1  UNL1        0.0068
     20 C         -17.1071    3.6384   21.9696 C.3     1  UNL1        0.0744
     21 C         -17.3628    2.4731   21.0605 C.ar    1  UNL1        0.1481
     22 N         -17.7544    2.5522   19.6146 N.ar    1  UNL1       -0.1929
     23 S         -17.9055    1.1519   19.0981 S.2     1  UNL1        0.0369
     24 C         -17.6072    0.2076   20.2247 C.ar    1  UNL1        0.1652
     25 N         -17.2718    1.0241   21.4375 N.ar    1  UNL1       -0.2190
@<TRIPOS>BOND
     1    20    21    1
     2    21    22   ar
     3    22    23   ar
     4    23    24   ar
     5    24     1    1
     6     1     2   ar
     7     2     3   ar
     8     3     4   ar
     9     4     5   ar
    10     5     6    1
    11     6     7    1
    12     7     8    1
    13     8     9   am
    14     9    10    2
    15     9    13    1
    16    13    14   ar
    17    14    15   ar
    18    15    16   ar
    19    16    17    1
    20    16    18   ar
    21    18    19   ar
    22     8    11    1
    23    11    12    1
    24    24    25   ar
    25    25    21   ar
    26     5     1   ar
    27    19    13   ar
    28    11     4    1
@<TRIPOS>MOLECULE
*****
 25 28 0 0 0
SMALL
GASTEIGER

@<TRIPOS>ATOM
      1 C           6.7608   -4.1278   23.1799 C.ar    1  UNL1        0.1917
      2 N           7.6525   -4.9291   22.2783 N.ar    1  UNL1       -0.1268
      3 N           7.2853   -4.6090   20.8596 N.ar    1  UNL1       -0.1316
      4 C           6.1667   -3.6099   20.8844 C.ar    1  UNL1        0.1615
      5 N           5.8426   -3.3125   22.3184 N.ar    1  UNL1       -0.2940
      6 C           4.7531   -2.3378   22.6545 C.3     1  UNL1        0.1302
      7 C           3.9878   -1.6604   21.5566 C.3     1  UNL1        0.1186
      8 N           4.3119   -1.9578   20.1225 N.am    1  UNL1       -0.2688
      9 C           3.5467   -1.2804   19.0246 C.2     1  UNL1        0.2494
     10 O           3.8708   -1.5778   17.5905 O.2     1  UNL1       -0.2699
     11 C           5.4014   -2.9326   19.7864 C.3     1  UNL1        0.1343
     12 C           5.7256   -3.2300   18.3524 C.3     1  UNL1        0.0298
     13 C           2.4572   -0.3057   19.3607 C.ar    1  UNL1        0.0537
     14 C           1.2504   -0.7638   20.1247 C.ar    1  UNL1        0.0068
     15 C           0.1610    0.2110   20.4608 C.ar    1  UNL1        0.0298
     16 C           0.2784    1.6439   20.0329 C.ar    1  UNL1        0.1401
     17 F          -0.8111    2.6187   20.3690 F       1  UNL1       -0.2042
     18 C           1.4852    2.1019   19.2688 C.ar    1  UNL1        0.0298
     19 C           2.5746    1.1272   18.9327 C.ar    1  UNL1        0.0068
     20 C           7.0075   -5.7903   28.1855 C.3     1  UNL1        0.0744
     21 C           6.8968   -4.9039   26.9805 C.ar    1  UNL1        0.1481
     22 N           6.7397   -3.4122   26.9948 N.ar    1  UNL1       -0.1929
     23 S           6.6696   -2.9399   25.5727 S.2     1  UNL1        0.0369
     24 C           6.7834   -4.1397   24.6797 C.ar    1  UNL1        0.1652
     25 N           6.9239   -5.3535   25.5497 N.ar    1  UNL1       -0.2190
@<TRIPOS>BOND
     1    20    21    1
     2    21    22   ar
     3    22    23   ar
     4    23    24   ar
     5    24     1    1
     6     1     2   ar
     7     2     3   ar
     8     3     4   ar
     9     4     5   ar
    10     5     6    1
    11     6     7    1
    12     7     8    1
    13     8     9   am
    14     9    10    2
    15     9    13    1
    16    13    14   ar
    17    14    15   ar
    18    15    16   ar
    19    16    17    1
    20    16    18   ar
    21    18    19   ar
    22     8    11    1
    23    11    12    1
    24    24    25   ar
    25    25    21   ar
    26     5     1   ar
    27    19    13   ar
    28    11     4    1
@<TRIPOS>MOLECULE
*****
 25 28 0 0 0
SMALL
GASTEIGER

@<TRIPOS>ATOM
      1 C         -18.5771   -3.8206   19.5948 C.ar    1  UNL1        0.1917
      2 N         -19.4947   -4.9638   19.9128 N.ar    1  UNL1       -0.1268
      3 N         -18.7197   -6.2382   19.7541 N.ar    1  UNL1       -0.1316
      4 C         -17.3231   -5.8827   19.3379 C.ar    1  UNL1        0.1615
      5 N         -17.2350   -4.3885   19.2395 N.ar    1  UNL1       -0.2940
      6 C         -15.9441   -3.7381   18.8390 C.3     1  UNL1        0.1302
      7 C         -14.7412   -4.5819   18.5369 C.3     1  UNL1        0.1186
      8 N         -14.8293   -6.0760   18.6353 N.am    1  UNL1       -0.2688
      9 C         -13.6265   -6.9198   18.3333 C.2     1  UNL1        0.2494
     10 O         -13.7147   -8.4140   18.4317 O.2     1  UNL1       -0.2699
     11 C         -16.1204   -6.7264   19.0358 C.3     1  UNL1        0.1343
     12 C         -16.2085   -8.2206   19.1343 C.3     1  UNL1        0.0298
     13 C         -12.3356   -6.2694   17.9328 C.ar    1  UNL1        0.0537
     14 C         -11.3442   -5.8615   18.9820 C.ar    1  UNL1        0.0068
     15 C         -10.0532   -5.2111   18.5814 C.ar    1  UNL1        0.0298
     16 C          -9.7537   -4.9686   17.1318 C.ar    1  UNL1        0.1401
     17 F          -8.4627   -4.3182   16.7313 F       1  UNL1       -0.2042
     18 C         -10.7451   -5.3765   16.0827 C.ar    1  UNL1        0.0298
     19 C         -12.0360   -6.0269   16.4831 C.ar    1  UNL1        0.0068
     20 C         -19.8549    0.9997   21.3304 C.3     1  UNL1        0.0744
     21 C         -19.5255   -0.1494   20.4244 C.ar    1  UNL1        0.1481
     22 N         -19.4622   -0.1010   18.9264 N.ar    1  UNL1       -0.1929
     23 S         -19.0992   -1.4704   18.4334 S.2     1  UNL1        0.0369
     24 C         -18.9382   -2.3651   19.6265 C.ar    1  UNL1        0.1652
     25 N         -19.2017   -1.5487   20.8570 N.ar    1  UNL1       -0.2190
@<TRIPOS>BOND
     1    20    21    1
     2    21    22   ar
     3    22    23   ar
     4    23    24   ar
     5    24     1    1
     6     1     2   ar
     7     2     3   ar
     8     3     4   ar
     9     4     5   ar
    10     5     6    1
    11     6     7    1
    12     7     8    1
    13     8     9   am
    14     9    10    2
    15     9    13    1
    16    13    14   ar
    17    14    15   ar
    18    15    16   ar
    19    16    17    1
    20    16    18   ar
    21    18    19   ar
    22     8    11    1
    23    11    12    1
    24    24    25   ar
    25    25    21   ar
    26     5     1   ar
    27    19    13   ar
    28    11     4    1
@<TRIPOS>MOLECULE
*****
 25 28 0 0 0
SMALL
GASTEIGER

@<TRIPOS>ATOM
      1 C           5.6012   -1.2083   33.2530 C.ar    1  UNL1        0.1917
      2 N           5.6546   -0.6673   34.6510 N.ar    1  UNL1       -0.1268
      3 N           4.5879    0.3788   34.7842 N.ar    1  UNL1       -0.1316
      4 C           3.8752    0.4843   33.4685 C.ar    1  UNL1        0.1615
      5 N           4.5015   -0.4966   32.5222 N.ar    1  UNL1       -0.2940
      6 C           3.9895   -0.6151   31.1173 C.3     1  UNL1        0.1302
      7 C           2.8511    0.2475   30.6587 C.3     1  UNL1        0.1186
      8 N           2.2248    1.2284   31.6050 N.am    1  UNL1       -0.2688
      9 C           1.0865    2.0909   31.1465 C.2     1  UNL1        0.2494
     10 O           0.4602    3.0718   32.0928 O.2     1  UNL1       -0.2699
     11 C           2.7369    1.3468   33.0100 C.3     1  UNL1        0.1343
     12 C           2.1106    2.3277   33.9563 C.3     1  UNL1        0.0298
     13 C           0.5745    1.9725   29.7416 C.ar    1  UNL1        0.0537
     14 C          -0.4430    0.9246   29.4000 C.ar    1  UNL1        0.0068
     15 C          -0.9550    0.8062   27.9950 C.ar    1  UNL1        0.0298
     16 C          -0.4496    1.7356   26.9317 C.ar    1  UNL1        0.1401
     17 F          -0.9616    1.6172   25.5267 F       1  UNL1       -0.2042
     18 C           0.5679    2.7835   27.2733 C.ar    1  UNL1        0.0298
     19 C           1.0799    2.9019   28.6782 C.ar    1  UNL1        0.0068
     20 C           7.2929   -5.7641   31.1882 C.3     1  UNL1        0.0744
     21 C           7.2688   -4.3681   31.7363 C.ar    1  UNL1        0.1481
     22 N           8.4530   -3.4598   31.8877 N.ar    1  UNL1       -0.1929
     23 S           7.9724   -2.1655   32.4743 S.2     1  UNL1        0.0369
     24 C           6.4913   -2.2740   32.6854 C.ar    1  UNL1        0.1652
     25 N           6.0564   -3.6352   32.2294 N.ar    1  UNL1       -0.2190
@<TRIPOS>BOND
     1    20    21    1
     2    21    22   ar
     3    22    23   ar
     4    23    24   ar
     5    24     1    1
     6     1     2   ar
     7     2     3   ar
     8     3     4   ar
     9     4     5   ar
    10     5     6    1
    11     6     7    1
    12     7     8    1
    13     8     9   am
    14     9    10    2
    15     9    13    1
    16    13    14   ar
    17    14    15   ar
    18    15    16   ar
    19    16    17    1
    20    16    18   ar
    21    18    19   ar
    22     8    11    1
    23    11    12    1
    24    24    25   ar
    25    25    21   ar
    26     5     1   ar
    27    19    13   ar
    28    11     4    1
@<TRIPOS>MOLECULE
*****
 25 28 0 0 0
SMALL
GASTEIGER

@<TRIPOS>ATOM
      1 C         -16.1949   -8.6543   18.5575 C.ar    1  UNL1        0.1917
      2 N         -15.4957   -9.9453   18.2502 N.ar    1  UNL1       -0.1268
      3 N         -14.0951   -9.6229   17.8206 N.ar    1  UNL1       -0.1316
      4 C         -13.9288   -8.1328   17.8623 C.ar    1  UNL1        0.1615
      5 N         -15.2266   -7.5341   18.3178 N.ar    1  UNL1       -0.2940
      6 C         -15.3589   -6.0463   18.4553 C.3     1  UNL1        0.1302
      7 C         -14.1934   -5.1571   18.1375 C.3     1  UNL1        0.1186
      8 N         -12.8956   -5.7558   17.6821 N.am    1  UNL1       -0.2688
      9 C         -11.7301   -4.8667   17.3642 C.2     1  UNL1        0.2494
     10 O         -10.4324   -5.4653   16.9088 O.2     1  UNL1       -0.2699
     11 C         -12.7633   -7.2436   17.5445 C.3     1  UNL1        0.1343
     12 C         -11.4656   -7.8423   17.0891 C.3     1  UNL1        0.0298
     13 C         -11.8624   -3.3789   17.5018 C.ar    1  UNL1        0.0537
     14 C         -12.1649   -2.5382   16.2969 C.ar    1  UNL1        0.0068
     15 C         -12.2972   -1.0503   16.4345 C.ar    1  UNL1        0.0298
     16 C         -12.1270   -0.4032   17.7770 C.ar    1  UNL1        0.1401
     17 F         -12.2593    1.0846   17.9146 F       1  UNL1       -0.2042
     18 C         -11.8246   -1.2439   18.9819 C.ar    1  UNL1        0.0298
     19 C         -11.6923   -2.7317   18.8443 C.ar    1  UNL1        0.0068
     20 C         -20.4640   -8.4121   21.6554 C.3     1  UNL1        0.0744
     21 C         -19.5758   -8.3977   20.4468 C.ar    1  UNL1        0.1481
     22 N         -20.0173   -8.1732   19.0309 N.ar    1  UNL1       -0.1929
     23 S         -18.8045   -8.2420   18.1508 S.2     1  UNL1        0.0369
     24 C         -17.6135   -8.5090   19.0228 C.ar    1  UNL1        0.1652
     25 N         -18.0902   -8.6052   20.4418 N.ar    1  UNL1       -0.2190
@<TRIPOS>BOND
     1    20    21    1
     2    21    22   ar
     3    22    23   ar
     4    23    24   ar
     5    24     1    1
     6     1     2   ar
     7     2     3   ar
     8     3     4   ar
     9     4     5   ar
    10     5     6    1
    11     6     7    1
    12     7     8    1
    13     8     9   am
    14     9    10    2
    15     9    13    1
    16    13    14   ar
    17    14    15   ar
    18    15    16   ar
    19    16    17    1
    20    16    18   ar
    21    18    19   ar
    22     8    11    1
    23    11    12    1
    24    24    25   ar
    25    25    21   ar
    26     5     1   ar
    27    19    13   ar
    28    11     4    1
@<TRIPOS>MOLECULE
*****
 25 28 0 0 0
SMALL
GASTEIGER

@<TRIPOS>ATOM
      1 C         -13.4340   -1.9735   18.0504 C.ar    1  UNL1        0.1917
      2 N         -14.1177   -0.7109   18.4844 N.ar    1  UNL1       -0.1268
      3 N         -15.4653   -1.0781   19.0313 N.ar    1  UNL1       -0.1316
      4 C         -15.6145   -2.5675   18.9351 C.ar    1  UNL1        0.1615
      5 N         -14.3591   -3.1210   18.3289 N.ar    1  UNL1       -0.2940
      6 C         -14.2205   -4.5982   18.1088 C.3     1  UNL1        0.1302
      7 C         -15.3373   -5.5221   18.4950 C.3     1  UNL1        0.1186
      8 N         -16.5928   -4.9687   19.1013 N.am    1  UNL1       -0.2688
      9 C         -17.7097   -5.8925   19.4874 C.2     1  UNL1        0.2494
     10 O         -18.9651   -5.3391   20.0937 O.2     1  UNL1       -0.2699
     11 C         -16.7314   -3.4914   19.3213 C.3     1  UNL1        0.1343
     12 C         -17.9869   -2.9379   19.9276 C.3     1  UNL1        0.0298
     13 C         -17.5710   -7.3697   19.2674 C.ar    1  UNL1        0.0537
     14 C         -18.1427   -8.0010   18.0326 C.ar    1  UNL1        0.0068
     15 C         -18.0040   -9.4783   17.8125 C.ar    1  UNL1        0.0298
     16 C         -17.2938  -10.3243   18.8273 C.ar    1  UNL1        0.1401
     17 F         -17.1551  -11.8017   18.6073 F       1  UNL1       -0.2042
     18 C         -16.7221   -9.6931   20.0621 C.ar    1  UNL1        0.0298
     19 C         -16.8608   -8.2158   20.2822 C.ar    1  UNL1        0.0068
     20 C          -8.8400   -3.9078   16.3083 C.3     1  UNL1        0.0744
     21 C          -9.9538   -2.9606   16.6434 C.ar    1  UNL1        0.1481
     22 N          -9.9651   -1.4841   16.3792 N.ar    1  UNL1       -0.1929
     23 S         -11.2702   -0.9346   16.8741 S.2     1  UNL1        0.0369
     24 C         -12.0654   -2.0715   17.4441 C.ar    1  UNL1        0.1652
     25 N         -11.2519   -3.3237   17.3016 N.ar    1  UNL1       -0.2190
@<TRIPOS>BOND
     1    20    21    1
     2    21    22   ar
     3    22    23   ar
     4    23    24   ar
     5    24     1    1
     6     1     2   ar
     7     2     3   ar
     8     3     4   ar
     9     4     5   ar
    10     5     6    1
    11     6     7    1
    12     7     8    1
    13     8     9   am
    14     9    10    2
    15     9    13    1
    16    13    14   ar
    17    14    15   ar
    18    15    16   ar
    19    16    17    1
    20    16    18   ar
    21    18    19   ar
    22     8    11    1
    23    11    12    1
    24    24    25   ar
    25    25    21   ar
    26     5     1   ar
    27    19    13   ar
    28    11     4    1
@<TRIPOS>MOLECULE
*****
 25 28 0 0 0
SMALL
GASTEIGER

@<TRIPOS>ATOM
      1 C         -13.4164   -5.9162   18.9057 C.ar    1  UNL1        0.1917
      2 N         -11.9191   -5.9603   18.9833 N.ar    1  UNL1       -0.1268
      3 N         -11.4111   -4.5496   18.9414 N.ar    1  UNL1       -0.1316
      4 C         -12.5945   -3.6336   18.8379 C.ar    1  UNL1        0.1615
      5 N         -13.8339   -4.4783   18.8159 N.ar    1  UNL1       -0.2940
      6 C         -15.1823   -3.8289   18.7169 C.3     1  UNL1        0.1302
      7 C         -15.2915   -2.3348   18.6399 C.3     1  UNL1        0.1186
      8 N         -14.0521   -1.4902   18.6619 N.am    1  UNL1       -0.2688
      9 C         -14.1612    0.0038   18.5849 C.2     1  UNL1        0.2494
     10 O         -12.9218    0.8485   18.6069 O.2     1  UNL1       -0.2699
     11 C         -12.7036   -2.1396   18.7609 C.3     1  UNL1        0.1343
     12 C         -11.4642   -1.2950   18.7830 C.3     1  UNL1        0.0298
     13 C         -15.5097    0.6532   18.4859 C.ar    1  UNL1        0.0537
     14 C         -16.0985    0.9577   17.1403 C.ar    1  UNL1        0.0068
     15 C         -17.4471    1.6071   17.0413 C.ar    1  UNL1        0.0298
     16 C         -18.2067    1.9520   18.2879 C.ar    1  UNL1        0.1401
     17 F         -19.5553    2.6014   18.1889 F       1  UNL1       -0.2042
     18 C         -17.6179    1.6475   19.6334 C.ar    1  UNL1        0.0298
     19 C         -16.2694    0.9982   19.7325 C.ar    1  UNL1        0.0068
     20 C         -17.5490   -9.0587   19.8689 C.3     1  UNL1        0.0744
     21 C         -16.2347   -8.5463   19.3589 C.ar    1  UNL1        0.1481
     22 N         -15.2632   -9.3067   18.5056 N.ar    1  UNL1       -0.1929
     23 S         -14.0891   -8.4140   18.2320 S.2     1  UNL1        0.0369
     24 C         -14.3351   -7.1019   18.9162 C.ar    1  UNL1        0.1652
     25 N         -15.6611   -7.1837   19.6126 N.ar    1  UNL1       -0.2190
@<TRIPOS>BOND
     1    20    21    1
     2    21    22   ar
     3    22    23   ar
     4    23    24   ar
     5    24     1    1
     6     1     2   ar
     7     2     3   ar
     8     3     4   ar
     9     4     5   ar
    10     5     6    1
    11     6     7    1
    12     7     8    1
    13     8     9   am
    14     9    10    2
    15     9    13    1
    16    13    14   ar
    17    14    15   ar
    18    15    16   ar
    19    16    17    1
    20    16    18   ar
    21    18    19   ar
    22     8    11    1
    23    11    12    1
    24    24    25   ar
    25    25    21   ar
    26     5     1   ar
    27    19    13   ar
    28    11     4    1
@<TRIPOS>MOLECULE
*****
 25 28 0 0 0
SMALL
GASTEIGER

@<TRIPOS>ATOM
      1 C           5.7474   -2.6564   26.9899 C.ar    1  UNL1        0.1917
      2 N           6.6983   -3.6315   27.6182 N.ar    1  UNL1       -0.1268
      3 N           7.3759   -4.3928   26.5177 N.ar    1  UNL1       -0.1316
      4 C           6.8437   -3.8883   25.2091 C.ar    1  UNL1        0.1615
      5 N           5.8372   -2.8151   25.5010 N.ar    1  UNL1       -0.2940
      6 C           5.1325   -2.1210   24.3734 C.3     1  UNL1        0.1302
      7 C           5.4343   -2.5001   22.9537 C.3     1  UNL1        0.1186
      8 N           6.4408   -3.5733   22.6619 N.am    1  UNL1       -0.2688
      9 C           6.7427   -3.9524   21.2423 C.2     1  UNL1        0.2494
     10 O           7.7492   -5.0256   20.9505 O.2     1  UNL1       -0.2699
     11 C           7.1455   -4.2674   23.7896 C.3     1  UNL1        0.1343
     12 C           8.1520   -5.3406   23.4978 C.3     1  UNL1        0.0298
     13 C           6.0380   -3.2584   20.1147 C.ar    1  UNL1        0.0537
     14 C           6.7238   -2.1519   19.3695 C.ar    1  UNL1        0.0068
     15 C           6.0191   -1.4578   18.2418 C.ar    1  UNL1        0.0298
     16 C           4.6286   -1.8702   17.8593 C.ar    1  UNL1        0.1401
     17 F           3.9239   -1.1761   16.7316 F       1  UNL1       -0.2042
     18 C           3.9428   -2.9767   18.6045 C.ar    1  UNL1        0.0298
     19 C           4.6474   -3.6708   19.7321 C.ar    1  UNL1        0.0068
     20 C           1.4691   -0.1258   28.7714 C.3     1  UNL1        0.0744
     21 C           2.8955   -0.5287   28.5407 C.ar    1  UNL1        0.1481
     22 N           4.1035    0.1134   29.1560 N.ar    1  UNL1       -0.1929
     23 S           5.3189   -0.6056   28.6499 S.2     1  UNL1        0.0369
     24 C           4.8620   -1.6919   27.7219 C.ar    1  UNL1        0.1652
     25 N           3.3642   -1.6444   27.6545 N.ar    1  UNL1       -0.2190
@<TRIPOS>BOND
     1    20    21    1
     2    21    22   ar
     3    22    23   ar
     4    23    24   ar
     5    24     1    1
     6     1     2   ar
     7     2     3   ar
     8     3     4   ar
     9     4     5   ar
    10     5     6    1
    11     6     7    1
    12     7     8    1
    13     8     9   am
    14     9    10    2
    15     9    13    1
    16    13    14   ar
    17    14    15   ar
    18    15    16   ar
    19    16    17    1
    20    16    18   ar
    21    18    19   ar
    22     8    11    1
    23    11    12    1
    24    24    25   ar
    25    25    21   ar
    26     5     1   ar
    27    19    13   ar
    28    11     4    1
