@<TRIPOS>MOLECULE
*****
 39 42 0 0 0
SMALL
GASTEIGER

@<TRIPOS>ATOM
      1 C           6.2229   -2.5058   25.8844 C.2     1  UNL1        0.2486
      2 O           6.5337   -1.1205   25.4004 O.2     1  UNL1       -0.2726
      3 N           5.6035   -3.5046   24.9523 N.am    1  UNL1       -0.2823
      4 H           5.3995   -4.4138   25.2699 H       1  UNL1        0.1549
      5 O           9.2658   -5.8303   27.4089 O.2     1  UNL1       -0.2649
      6 C           8.3344   -4.8082   26.8277 C.2     1  UNL1        0.3037
      7 N           7.5020   -3.9506   27.7341 N.am    1  UNL1       -0.2582
      8 C           7.4940   -4.0008   29.2332 C.3     1  UNL1        0.1211
      9 C           6.5184   -2.9734   29.7262 C.ar    1  UNL1       -0.0030
     10 C           6.0950   -2.5733   31.1084 C.ar    1  UNL1        0.0155
     11 C           5.0767   -1.4881   31.2961 C.ar    1  UNL1        0.1054
     12 C           4.4818   -0.8030   30.1016 C.ar    1  UNL1        0.0181
     13 C           4.9053   -1.2031   28.7194 C.ar    1  UNL1       -0.0011
     14 C           5.9236   -2.2884   28.5317 C.ar    1  UNL1        0.0023
     15 C           6.5315   -2.8923   27.3006 C.3     1  UNL1        0.1754
     16 S           4.6532   -1.0879   32.6784 S.O2    1  UNL1        0.0086
     17 O           5.2948    0.2543   32.4864 O.2     1  UNL1       -0.1686
     18 O           4.0116   -2.4300   32.8704 O.2     1  UNL1       -0.1686
     19 C           4.2297   -0.6877   34.0606 C.3     1  UNL1        0.1559
     20 C           5.2637   -0.4198   35.1138 C.3     1  UNL1        0.0240
     21 C           6.6982   -0.2230   35.5055 C.3     1  UNL1        0.0018
     22 C           5.6201   -0.1524   36.5461 C.3     1  UNL1        0.0018
     23 C           5.2950   -3.1180   23.5362 C.ar    1  UNL1        0.0503
     24 C           4.1363   -2.2122   23.2414 C.ar    1  UNL1        0.0144
     25 C           3.8278   -1.8256   21.8253 C.ar    1  UNL1       -0.0002
     26 C           4.6780   -2.3450   20.7040 C.ar    1  UNL1        0.0182
     27 C           5.8366   -3.2508   20.9987 C.ar    1  UNL1       -0.0002
     28 C           6.1452   -3.6374   22.4148 C.ar    1  UNL1        0.0144
     29 C           4.3695   -1.9585   19.2878 C.3     1  UNL1        0.2827
     30 O           5.0772   -0.6515   19.4903 O.3     1  UNL1       -0.3692
     31 H           5.0417   -0.1342   18.6705 H       1  UNL1        0.2112
     32 C           4.0610   -1.5720   17.8716 C.3     1  UNL1        0.4311
     33 F           3.7525   -1.1856   16.4555 F       1  UNL1       -0.1669
     34 F           4.6945   -2.0569   17.4869 F       1  UNL1       -0.1669
     35 F           2.9421   -0.6972   18.3541 F       1  UNL1       -0.1669
     36 C           3.6618   -3.2654   19.0854 C.3     1  UNL1        0.4311
     37 F           2.9540   -4.5724   18.8829 F       1  UNL1       -0.1669
     38 F           2.8834   -3.0213   19.4306 F       1  UNL1       -0.1669
     39 F           4.6947   -4.1416   18.4408 F       1  UNL1       -0.1669
@<TRIPOS>BOND
     1     5     6    2
     2     6     7   am
     3     7     8    1
     4     8     9    1
     5     9    10   ar
     6    10    11   ar
     7    11    16    1
     8    16    17    2
     9    16    18    2
    10    16    19    1
    11    19    20    1
    12    20    21    1
    13    21    22    1
    14    11    12   ar
    15    12    13   ar
    16    13    14   ar
    17    14    15    1
    18    15     1    1
    19     1     2    2
    20     1     3   am
    21     3    23    1
    22    23    24   ar
    23    24    25   ar
    24    25    26   ar
    25    26    29    1
    26    29    30    1
    27    29    32    1
    28    32    33    1
    29    32    34    1
    30    32    35    1
    31    29    36    1
    32    36    37    1
    33    36    38    1
    34    36    39    1
    35    26    27   ar
    36    27    28   ar
    37    15     7    1
    38    28    23   ar
    39    14     9   ar
    40    22    20    1
    41     3     4    1
    42    30    31    1
@<TRIPOS>MOLECULE
*****
 39 42 0 0 0
SMALL
GASTEIGER

@<TRIPOS>ATOM
      1 C          -0.8642    3.3738   20.5505 C.2     1  UNL1        0.2486
      2 O          -0.9335    2.9352   21.9832 O.2     1  UNL1       -0.2726
      3 N          -2.0488    4.0355   19.9107 N.am    1  UNL1       -0.2823
      4 H          -2.0034    4.3235   18.9703 H       1  UNL1        0.1549
      5 O           1.5676    6.5502   17.9751 O.2     1  UNL1       -0.2649
      6 C           0.7318    5.6275   18.8117 C.2     1  UNL1        0.3037
      7 N           1.1230    4.1868   18.9583 N.am    1  UNL1       -0.2582
      8 C           2.3164    3.5291   18.3315 C.3     1  UNL1        0.1211
      9 C           2.3205    2.0867   18.7433 C.ar    1  UNL1       -0.0030
     10 C           3.2547    0.9560   18.4295 C.ar    1  UNL1        0.0155
     11 C           2.9980   -0.4085   18.9972 C.ar    1  UNL1        0.1054
     12 C           1.8070   -0.6422   19.8786 C.ar    1  UNL1        0.0181
     13 C           0.8727    0.4886   20.1923 C.ar    1  UNL1       -0.0011
     14 C           1.1294    1.8530   19.6246 C.ar    1  UNL1        0.0023
     15 C           0.3894    3.1510   19.7576 C.3     1  UNL1        0.1754
     16 S           3.9323   -1.5393   18.6835 S.O2    1  UNL1        0.0086
     17 O           3.7929   -1.2482   17.2186 O.2     1  UNL1       -0.1686
     18 O           4.0718   -1.8304   20.1483 O.2     1  UNL1       -0.1686
     19 C           4.8666   -2.6701   18.3698 C.3     1  UNL1        0.1559
     20 C           4.5024   -4.0731   18.7561 C.3     1  UNL1        0.0240
     21 C           3.5840   -5.0311   19.4552 C.3     1  UNL1        0.0018
     22 C           4.7899   -5.5449   18.7261 C.3     1  UNL1        0.0018
     23 C          -3.3024    4.2584   20.7037 C.ar    1  UNL1        0.0503
     24 C          -4.3554    3.1915   20.7575 C.ar    1  UNL1        0.0144
     25 C          -5.6090    3.4144   21.5505 C.ar    1  UNL1       -0.0002
     26 C          -5.8095    4.7042   22.2895 C.ar    1  UNL1        0.0182
     27 C          -4.7565    5.7711   22.2357 C.ar    1  UNL1       -0.0002
     28 C          -3.5029    5.5482   21.4427 C.ar    1  UNL1        0.0144
     29 C          -7.0631    4.9272   23.0825 C.3     1  UNL1        0.2827
     30 O          -7.8174    5.1971   21.8144 O.3     1  UNL1       -0.3692
     31 H          -8.7443    5.3912   22.0245 H       1  UNL1        0.2112
     32 C          -8.3167    5.1501   23.8756 C.3     1  UNL1        0.4311
     33 F          -9.5702    5.3731   24.6687 F       1  UNL1       -0.1669
     34 F          -8.4244    4.3132   24.1449 F       1  UNL1       -0.1669
     35 F          -8.2869    6.6055   23.5135 F       1  UNL1       -0.1669
     36 C          -6.3088    4.6573   24.3507 C.3     1  UNL1        0.4311
     37 F          -5.5545    4.3873   25.6188 F       1  UNL1       -0.1669
     38 F          -6.1856    3.7898   24.2205 F       1  UNL1       -0.1669
     39 F          -6.2404    5.9958   25.0243 F       1  UNL1       -0.1669
@<TRIPOS>BOND
     1     5     6    2
     2     6     7   am
     3     7     8    1
     4     8     9    1
     5     9    10   ar
     6    10    11   ar
     7    11    16    1
     8    16    17    2
     9    16    18    2
    10    16    19    1
    11    19    20    1
    12    20    21    1
    13    21    22    1
    14    11    12   ar
    15    12    13   ar
    16    13    14   ar
    17    14    15    1
    18    15     1    1
    19     1     2    2
    20     1     3   am
    21     3    23    1
    22    23    24   ar
    23    24    25   ar
    24    25    26   ar
    25    26    29    1
    26    29    30    1
    27    29    32    1
    28    32    33    1
    29    32    34    1
    30    32    35    1
    31    29    36    1
    32    36    37    1
    33    36    38    1
    34    36    39    1
    35    26    27   ar
    36    27    28   ar
    37    15     7    1
    38    28    23   ar
    39    14     9   ar
    40    22    20    1
    41     3     4    1
    42    30    31    1
@<TRIPOS>MOLECULE
*****
 39 42 0 0 0
SMALL
GASTEIGER

@<TRIPOS>ATOM
      1 C          -2.0436    3.3647   21.1359 C.2     1  UNL1        0.2486
      2 O          -3.4644    2.8851   21.1008 O.2     1  UNL1       -0.2726
      3 N          -1.5677    4.2170   22.2749 N.am    1  UNL1       -0.2823
      4 H          -0.6352    4.5319   22.2980 H       1  UNL1        0.1549
      5 O          -1.7145    5.2894   16.7973 O.2     1  UNL1       -0.2649
      6 C          -1.8981    4.7518   18.1856 C.2     1  UNL1        0.3037
      7 N          -1.0318    3.6297   18.6760 N.am    1  UNL1       -0.2582
      8 C           0.0534    2.9482   17.8965 C.3     1  UNL1        0.1211
      9 C           0.6573    1.8894   18.7708 C.ar    1  UNL1       -0.0030
     10 C           1.7635    0.9041   18.5355 C.ar    1  UNL1        0.0155
     11 C           2.1576   -0.0541   19.6202 C.ar    1  UNL1        0.1054
     12 C           1.4455   -0.0269   20.9401 C.ar    1  UNL1        0.0181
     13 C           0.3393    0.9584   21.1753 C.ar    1  UNL1       -0.0011
     14 C          -0.0548    1.9166   20.0907 C.ar    1  UNL1        0.0023
     15 C          -1.0987    2.9922   20.0321 C.3     1  UNL1        0.1754
     16 S           3.2639   -1.0395   19.3850 S.O2    1  UNL1        0.0086
     17 O           3.4566   -0.4929   18.0015 O.2     1  UNL1       -0.1686
     18 O           3.0711   -1.5860   20.7685 O.2     1  UNL1       -0.1686
     19 C           4.3701   -2.0248   19.1498 C.3     1  UNL1        0.1559
     20 C           4.0661   -3.4923   19.0846 C.3     1  UNL1        0.0240
     21 C           3.0709   -4.6145   19.0969 C.3     1  UNL1        0.0018
     22 C           4.5347   -4.9117   18.9594 C.3     1  UNL1        0.0018
     23 C          -2.5126    4.5896   23.3787 C.ar    1  UNL1        0.0503
     24 C          -3.1159    5.9623   23.4181 C.ar    1  UNL1        0.0144
     25 C          -4.0608    6.3349   24.5219 C.ar    1  UNL1       -0.0002
     26 C          -4.4024    5.3347   25.5862 C.ar    1  UNL1        0.0182
     27 C          -3.7991    3.9619   25.5468 C.ar    1  UNL1       -0.0002
     28 C          -2.8541    3.5894   24.4430 C.ar    1  UNL1        0.0144
     29 C          -5.3473    5.7072   26.6901 C.3     1  UNL1        0.2827
     30 O          -4.2441    5.5366   27.6921 O.3     1  UNL1       -0.3692
     31 H          -4.5825    5.7270   28.5810 H       1  UNL1        0.2112
     32 C          -6.2923    6.0796   27.7938 C.3     1  UNL1        0.4311
     33 F          -7.2372    6.4521   28.8976 F       1  UNL1       -0.1669
     34 F          -6.8923    5.4464   27.6406 F       1  UNL1       -0.1669
     35 F          -5.3845    7.2059   28.1909 F       1  UNL1       -0.1669
     36 C          -6.4505    5.8777   25.6881 C.3     1  UNL1        0.4311
     37 F          -7.5536    6.0481   24.6860 F       1  UNL1       -0.1669
     38 F          -6.5279    5.0236   25.4664 F       1  UNL1       -0.1669
     39 F          -6.7207    7.3531   25.6932 F       1  UNL1       -0.1669
@<TRIPOS>BOND
     1     5     6    2
     2     6     7   am
     3     7     8    1
     4     8     9    1
     5     9    10   ar
     6    10    11   ar
     7    11    16    1
     8    16    17    2
     9    16    18    2
    10    16    19    1
    11    19    20    1
    12    20    21    1
    13    21    22    1
    14    11    12   ar
    15    12    13   ar
    16    13    14   ar
    17    14    15    1
    18    15     1    1
    19     1     2    2
    20     1     3   am
    21     3    23    1
    22    23    24   ar
    23    24    25   ar
    24    25    26   ar
    25    26    29    1
    26    29    30    1
    27    29    32    1
    28    32    33    1
    29    32    34    1
    30    32    35    1
    31    29    36    1
    32    36    37    1
    33    36    38    1
    34    36    39    1
    35    26    27   ar
    36    27    28   ar
    37    15     7    1
    38    28    23   ar
    39    14     9   ar
    40    22    20    1
    41     3     4    1
    42    30    31    1
@<TRIPOS>MOLECULE
*****
 39 42 0 0 0
SMALL
GASTEIGER

@<TRIPOS>ATOM
      1 C           6.6341   -4.2024   25.0409 C.2     1  UNL1        0.2486
      2 O           7.6146   -4.5519   23.9610 O.2     1  UNL1       -0.2726
      3 N           5.4072   -3.4051   24.7106 N.am    1  UNL1       -0.2823
      4 H           4.7636   -3.1756   25.4194 H       1  UNL1        0.1549
      5 O           7.6361   -8.5912   26.5804 O.2     1  UNL1       -0.2649
      6 C           7.3163   -7.2476   25.9953 C.2     1  UNL1        0.3037
      7 N           7.1940   -6.0498   26.8899 N.am    1  UNL1       -0.2582
      8 C           7.3638   -6.0414   28.3802 C.3     1  UNL1        0.1211
      9 C           7.1553   -4.6365   28.8626 C.ar    1  UNL1       -0.0030
     10 C           7.1988   -4.0291   30.2334 C.ar    1  UNL1        0.0155
     11 C           6.9435   -2.5618   30.4120 C.ar    1  UNL1        0.1054
     12 C           6.6448   -1.7019   29.2198 C.ar    1  UNL1        0.0181
     13 C           6.6013   -2.3093   27.8490 C.ar    1  UNL1       -0.0011
     14 C           6.8565   -3.7766   27.6704 C.ar    1  UNL1        0.0023
     15 C           6.8805   -4.6501   26.4512 C.3     1  UNL1        0.1754
     16 S           6.9870   -1.9544   31.7829 S.O2    1  UNL1        0.0086
     17 O           6.8064   -3.3136   32.3910 O.2     1  UNL1       -0.1686
     18 O           7.1676   -0.5952   31.1748 O.2     1  UNL1       -0.1686
     19 C           7.0305   -1.3469   33.1537 C.3     1  UNL1        0.1559
     20 C           5.7625   -1.1661   33.9345 C.3     1  UNL1        0.0240
     21 C           4.2937   -1.4189   34.1033 C.3     1  UNL1        0.0018
     22 C           5.0353   -0.6001   35.1180 C.3     1  UNL1        0.0018
     23 C           5.1608   -2.9574   23.3003 C.ar    1  UNL1        0.0503
     24 C           5.3525   -1.5175   22.9262 C.ar    1  UNL1        0.0144
     25 C           5.1062   -1.0698   21.5159 C.ar    1  UNL1       -0.0002
     26 C           4.6681   -2.0620   20.4798 C.ar    1  UNL1        0.0182
     27 C           4.4764   -3.5019   20.8540 C.ar    1  UNL1       -0.0002
     28 C           4.7228   -3.9496   22.2643 C.ar    1  UNL1        0.0144
     29 C           4.4218   -1.6144   19.0695 C.3     1  UNL1        0.2827
     30 O           5.8294   -1.9841   18.7062 O.3     1  UNL1       -0.3692
     31 H           5.9825   -1.7909   17.7680 H       1  UNL1        0.2112
     32 C           4.1753   -1.1668   17.6592 C.3     1  UNL1        0.4311
     33 F           3.9288   -0.7191   16.2489 F       1  UNL1       -0.1669
     34 F           3.5847   -1.7925   17.4489 F       1  UNL1       -0.1669
     35 F           5.1527   -0.0442   17.8447 F       1  UNL1       -0.1669
     36 C           3.0142   -1.2447   19.4328 C.3     1  UNL1        0.4311
     37 F           1.6065   -0.8751   19.7962 F       1  UNL1       -0.1669
     38 F           2.7068   -2.0700   19.5276 F       1  UNL1       -0.1669
     39 F           3.0146    0.2551   19.4072 F       1  UNL1       -0.1669
@<TRIPOS>BOND
     1     5     6    2
     2     6     7   am
     3     7     8    1
     4     8     9    1
     5     9    10   ar
     6    10    11   ar
     7    11    16    1
     8    16    17    2
     9    16    18    2
    10    16    19    1
    11    19    20    1
    12    20    21    1
    13    21    22    1
    14    11    12   ar
    15    12    13   ar
    16    13    14   ar
    17    14    15    1
    18    15     1    1
    19     1     2    2
    20     1     3   am
    21     3    23    1
    22    23    24   ar
    23    24    25   ar
    24    25    26   ar
    25    26    29    1
    26    29    30    1
    27    29    32    1
    28    32    33    1
    29    32    34    1
    30    32    35    1
    31    29    36    1
    32    36    37    1
    33    36    38    1
    34    36    39    1
    35    26    27   ar
    36    27    28   ar
    37    15     7    1
    38    28    23   ar
    39    14     9   ar
    40    22    20    1
    41     3     4    1
    42    30    31    1
@<TRIPOS>MOLECULE
*****
 39 42 0 0 0
SMALL
GASTEIGER

@<TRIPOS>ATOM
      1 C           2.7633    1.0247   27.2069 C.2     1  UNL1        0.2486
      2 O           3.5577    2.1733   27.7541 O.2     1  UNL1       -0.2726
      3 N           2.5427   -0.2007   28.0435 N.am    1  UNL1       -0.2823
      4 H           2.0214   -0.9546   27.6844 H       1  UNL1        0.1549
      5 O          -0.7795    3.7992   25.6621 O.2     1  UNL1       -0.2649
      6 C           0.3244    2.9686   26.2464 C.2     1  UNL1        0.3037
      7 N           1.0686    1.9948   25.3816 N.am    1  UNL1       -0.2582
      8 C           0.8224    1.7434   23.9234 C.3     1  UNL1        0.1211
      9 C           1.7912    0.6946   23.4637 C.ar    1  UNL1       -0.0030
     10 C           2.0131    0.0498   22.1277 C.ar    1  UNL1        0.0155
     11 C           3.0801   -0.9920   21.9658 C.ar    1  UNL1        0.1054
     12 C           3.9251   -1.3889   23.1399 C.ar    1  UNL1        0.0181
     13 C           3.7032   -0.7440   24.4759 C.ar    1  UNL1       -0.0011
     14 C           2.6362    0.2977   24.6378 C.ar    1  UNL1        0.0023
     15 C           2.1896    1.1013   25.8230 C.3     1  UNL1        0.1754
     16 S           3.3021   -1.6369   20.6298 S.O2    1  UNL1        0.0086
     17 O           4.6705   -2.0695   21.0659 O.2     1  UNL1       -0.1686
     18 O           1.9336   -1.2044   20.1937 O.2     1  UNL1       -0.1686
     19 C           3.5240   -2.2818   19.2939 C.3     1  UNL1        0.1559
     20 C           3.8165   -3.7507   19.2094 C.3     1  UNL1        0.0240
     21 C           4.6729   -4.8782   18.7143 C.3     1  UNL1        0.0018
     22 C           3.4669   -5.1670   19.5581 C.3     1  UNL1        0.0018
     23 C           3.1165   -0.2773   29.4274 C.ar    1  UNL1        0.0503
     24 C           4.4456   -0.9349   29.6529 C.ar    1  UNL1        0.0144
     25 C           5.0193   -1.0115   31.0367 C.ar    1  UNL1       -0.0002
     26 C           4.2639   -0.4304   32.1950 C.ar    1  UNL1        0.0182
     27 C           2.9347    0.2273   31.9694 C.ar    1  UNL1       -0.0002
     28 C           2.3610    0.3039   30.5856 C.ar    1  UNL1        0.0144
     29 C           4.8375   -0.5069   33.5788 C.3     1  UNL1        0.2827
     30 O           5.1861    0.9507   33.5150 O.3     1  UNL1       -0.3692
     31 H           5.6110    1.2181   34.3450 H       1  UNL1        0.2112
     32 C           5.4112   -0.5835   34.9627 C.3     1  UNL1        0.4311
     33 F           5.9848   -0.6601   36.3466 F       1  UNL1       -0.1669
     34 F           4.6408   -0.6420   35.3959 F       1  UNL1       -0.1669
     35 F           6.7961   -0.4932   34.3936 F       1  UNL1       -0.1669
     36 C           4.4889   -1.9644   33.6427 C.3     1  UNL1        0.4311
     37 F           4.1402   -3.4220   33.7065 F       1  UNL1       -0.1669
     38 F           3.6433   -1.8626   33.8860 F       1  UNL1       -0.1669
     39 F           5.7628   -2.6594   33.2629 F       1  UNL1       -0.1669
@<TRIPOS>BOND
     1     5     6    2
     2     6     7   am
     3     7     8    1
     4     8     9    1
     5     9    10   ar
     6    10    11   ar
     7    11    16    1
     8    16    17    2
     9    16    18    2
    10    16    19    1
    11    19    20    1
    12    20    21    1
    13    21    22    1
    14    11    12   ar
    15    12    13   ar
    16    13    14   ar
    17    14    15    1
    18    15     1    1
    19     1     2    2
    20     1     3   am
    21     3    23    1
    22    23    24   ar
    23    24    25   ar
    24    25    26   ar
    25    26    29    1
    26    29    30    1
    27    29    32    1
    28    32    33    1
    29    32    34    1
    30    32    35    1
    31    29    36    1
    32    36    37    1
    33    36    38    1
    34    36    39    1
    35    26    27   ar
    36    27    28   ar
    37    15     7    1
    38    28    23   ar
    39    14     9   ar
    40    22    20    1
    41     3     4    1
    42    30    31    1
@<TRIPOS>MOLECULE
*****
 39 42 0 0 0
SMALL
GASTEIGER

@<TRIPOS>ATOM
      1 C          -0.5830    2.8236   20.5286 C.2     1  UNL1        0.2486
      2 O           0.6895    3.6130   20.4423 O.2     1  UNL1       -0.2726
      3 N          -0.5636    1.3417   20.2965 N.am    1  UNL1       -0.2823
      4 H          -1.3988    0.8236   20.3532 H       1  UNL1        0.1549
      5 O          -3.8416    4.4747   17.4805 O.2     1  UNL1       -0.2649
      6 C          -2.7569    3.9217   18.3565 C.2     1  UNL1        0.3037
      7 N          -2.8742    4.0207   19.8486 N.am    1  UNL1       -0.2582
      8 C          -4.0114    4.6418   20.6043 C.3     1  UNL1        0.1211
      9 C          -3.7150    4.5210   22.0698 C.ar    1  UNL1       -0.0030
     10 C          -4.4768    4.9546   23.2869 C.ar    1  UNL1        0.0155
     11 C          -3.9182    4.6925   24.6541 C.ar    1  UNL1        0.1054
     12 C          -2.5978    3.9967   24.8041 C.ar    1  UNL1        0.0181
     13 C          -1.8361    3.5630   23.5870 C.ar    1  UNL1       -0.0011
     14 C          -2.3946    3.8252   22.2198 C.ar    1  UNL1        0.0023
     15 C          -1.8750    3.5160   20.8470 C.3     1  UNL1        0.1754
     16 S          -4.6800    5.1262   25.8714 S.O2    1  UNL1        0.0086
     17 O          -4.6645    3.7164   26.3834 O.2     1  UNL1       -0.1686
     18 O          -4.6955    6.5360   25.3594 O.2     1  UNL1       -0.1686
     19 C          -5.4418    5.5599   27.0886 C.3     1  UNL1        0.1559
     20 C          -6.7402    6.2957   26.9380 C.3     1  UNL1        0.0240
     21 C          -8.0518    6.4857   26.2354 C.3     1  UNL1        0.0018
     22 C          -7.6776    7.3802   27.3799 C.3     1  UNL1        0.0018
     23 C           0.7285    0.6494   19.9781 C.ar    1  UNL1        0.0503
     24 C           1.3099    0.7439   18.5986 C.ar    1  UNL1        0.0144
     25 C           2.6019    0.0515   18.2802 C.ar    1  UNL1       -0.0002
     26 C           3.3124   -0.7353   19.3414 C.ar    1  UNL1        0.0182
     27 C           2.7310   -0.8298   20.7209 C.ar    1  UNL1       -0.0002
     28 C           1.4390   -0.1374   21.0393 C.ar    1  UNL1        0.0144
     29 C           4.6044   -1.4277   19.0231 C.3     1  UNL1        0.2827
     30 O           5.3017   -0.1008   18.9667 O.3     1  UNL1       -0.3692
     31 H           6.2397   -0.2370   18.7605 H       1  UNL1        0.2112
     32 C           5.8964   -2.1202   18.7048 C.3     1  UNL1        0.4311
     33 F           7.1884   -2.8127   18.3865 F       1  UNL1       -0.1669
     34 F           5.6709   -2.4035   17.8965 F       1  UNL1       -0.1669
     35 F           6.4400   -1.7219   20.0449 F       1  UNL1       -0.1669
     36 C           3.9071   -2.7546   19.0794 C.3     1  UNL1        0.4311
     37 F           3.2098   -4.0815   19.1357 F       1  UNL1       -0.1669
     38 F           3.4718   -2.6805   18.3116 F       1  UNL1       -0.1669
     39 F           4.3759   -3.3565   20.3709 F       1  UNL1       -0.1669
@<TRIPOS>BOND
     1     5     6    2
     2     6     7   am
     3     7     8    1
     4     8     9    1
     5     9    10   ar
     6    10    11   ar
     7    11    16    1
     8    16    17    2
     9    16    18    2
    10    16    19    1
    11    19    20    1
    12    20    21    1
    13    21    22    1
    14    11    12   ar
    15    12    13   ar
    16    13    14   ar
    17    14    15    1
    18    15     1    1
    19     1     2    2
    20     1     3   am
    21     3    23    1
    22    23    24   ar
    23    24    25   ar
    24    25    26   ar
    25    26    29    1
    26    29    30    1
    27    29    32    1
    28    32    33    1
    29    32    34    1
    30    32    35    1
    31    29    36    1
    32    36    37    1
    33    36    38    1
    34    36    39    1
    35    26    27   ar
    36    27    28   ar
    37    15     7    1
    38    28    23   ar
    39    14     9   ar
    40    22    20    1
    41     3     4    1
    42    30    31    1
@<TRIPOS>MOLECULE
*****
 39 42 0 0 0
SMALL
GASTEIGER

@<TRIPOS>ATOM
      1 C           2.7626    1.1309   26.0582 C.2     1  UNL1        0.2486
      2 O           3.9743    1.8306   25.5179 O.2     1  UNL1       -0.2726
      3 N           1.9348    0.2618   25.1584 N.am    1  UNL1       -0.2823
      4 H           1.1395   -0.1974   25.5131 H       1  UNL1        0.1549
      5 O          -0.5492    4.0211   27.8788 O.2     1  UNL1       -0.2649
      6 C           0.4688    3.1477   27.2075 C.2     1  UNL1        0.3037
      7 N           1.3243    2.2272   28.0266 N.am    1  UNL1       -0.2582
      8 C           1.2756    2.0721   29.5177 C.3     1  UNL1        0.1211
      9 C           2.2999    1.0492   29.9111 C.ar    1  UNL1       -0.0030
     10 C           2.6998    0.4906   31.2444 C.ar    1  UNL1        0.0155
     11 C           3.7815   -0.5450   31.3297 C.ar    1  UNL1        0.1054
     12 C           4.4632   -1.0221   30.0817 C.ar    1  UNL1        0.0181
     13 C           4.0632   -0.4635   28.7483 C.ar    1  UNL1       -0.0011
     14 C           2.9816    0.5722   28.6630 C.ar    1  UNL1        0.0023
     15 C           2.3786    1.3002   27.4983 C.3     1  UNL1        0.1754
     16 S           4.1815   -1.1037   32.6632 S.O2    1  UNL1        0.0086
     17 O           3.4051   -0.0198   33.3503 O.2     1  UNL1       -0.1686
     18 O           4.9580   -2.1876   31.9761 O.2     1  UNL1       -0.1686
     19 C           4.5816   -1.6624   33.9965 C.3     1  UNL1        0.1559
     20 C           5.0934   -0.7480   35.0699 C.3     1  UNL1        0.0240
     21 C           4.9259   -0.0977   36.4111 C.3     1  UNL1        0.0018
     22 C           6.1473    0.1854   35.5877 C.3     1  UNL1        0.0018
     23 C           2.3188    0.0925   23.7183 C.ar    1  UNL1        0.0503
     24 C           1.6124    0.8814   22.6560 C.ar    1  UNL1        0.0144
     25 C           1.9964    0.7122   21.2159 C.ar    1  UNL1       -0.0002
     26 C           3.0869   -0.2460   20.8382 C.ar    1  UNL1        0.0182
     27 C           3.7933   -1.0349   21.9005 C.ar    1  UNL1       -0.0002
     28 C           3.4093   -0.8656   23.3406 C.ar    1  UNL1        0.0144
     29 C           3.4709   -0.4154   19.3981 C.3     1  UNL1        0.2827
     30 O           3.7343    1.0577   19.2950 O.3     1  UNL1       -0.3692
     31 H           4.0253    1.2719   18.3948 H       1  UNL1        0.2112
     32 C           3.8550   -0.5848   17.9580 C.3     1  UNL1        0.4311
     33 F           4.2391   -0.7543   16.5180 F       1  UNL1       -0.1669
     34 F           3.0500   -0.7970   17.6558 F       1  UNL1       -0.1669
     35 F           5.2759   -0.2436   18.2968 F       1  UNL1       -0.1669
     36 C           3.2076   -1.8885   19.5012 C.3     1  UNL1        0.4311
     37 F           2.9441   -3.3616   19.6043 F       1  UNL1       -0.1669
     38 F           2.3396   -1.8315   19.6683 F       1  UNL1       -0.1669
     39 F           4.5494   -2.5148   19.2618 F       1  UNL1       -0.1669
@<TRIPOS>BOND
     1     5     6    2
     2     6     7   am
     3     7     8    1
     4     8     9    1
     5     9    10   ar
     6    10    11   ar
     7    11    16    1
     8    16    17    2
     9    16    18    2
    10    16    19    1
    11    19    20    1
    12    20    21    1
    13    21    22    1
    14    11    12   ar
    15    12    13   ar
    16    13    14   ar
    17    14    15    1
    18    15     1    1
    19     1     2    2
    20     1     3   am
    21     3    23    1
    22    23    24   ar
    23    24    25   ar
    24    25    26   ar
    25    26    29    1
    26    29    30    1
    27    29    32    1
    28    32    33    1
    29    32    34    1
    30    32    35    1
    31    29    36    1
    32    36    37    1
    33    36    38    1
    34    36    39    1
    35    26    27   ar
    36    27    28   ar
    37    15     7    1
    38    28    23   ar
    39    14     9   ar
    40    22    20    1
    41     3     4    1
    42    30    31    1
@<TRIPOS>MOLECULE
*****
 39 42 0 0 0
SMALL
GASTEIGER

@<TRIPOS>ATOM
      1 C           2.3472    0.4698   24.3198 C.2     1  UNL1        0.2486
      2 O           2.9970    1.7678   24.6977 O.2     1  UNL1       -0.2726
      3 N           0.8697    0.2888   24.5054 N.am    1  UNL1       -0.2823
      4 H           0.4431   -0.5631   24.2573 H       1  UNL1        0.1549
      5 O           2.2648   -1.2844   19.8981 O.2     1  UNL1       -0.2649
      6 C           2.2141   -0.6621   21.2619 C.2     1  UNL1        0.3037
      7 N           3.1135   -1.1675   22.3508 N.am    1  UNL1       -0.2582
      8 C           4.1097   -2.2819   22.2253 C.3     1  UNL1        0.1211
      9 C           4.7866   -2.4503   23.5533 C.ar    1  UNL1       -0.0030
     10 C           5.8545   -3.3931   24.0232 C.ar    1  UNL1        0.0155
     11 C           6.3444   -3.3255   25.4392 C.ar    1  UNL1        0.1054
     12 C           5.7665   -2.3152   26.3855 C.ar    1  UNL1        0.0181
     13 C           4.6987   -1.3725   25.9156 C.ar    1  UNL1       -0.0011
     14 C           4.2087   -1.4400   24.4995 C.ar    1  UNL1        0.0023
     15 C           3.1747   -0.6472   23.7563 C.3     1  UNL1        0.1754
     16 S           7.4123   -4.2684   25.9092 S.O2    1  UNL1        0.0086
     17 O           8.2962   -3.8305   24.7792 O.2     1  UNL1       -0.1686
     18 O           6.5284   -4.7062   27.0392 O.2     1  UNL1       -0.1686
     19 C           8.4802   -5.2111   26.3791 C.3     1  UNL1        0.1559
     20 C           8.5380   -6.6089   25.8376 C.3     1  UNL1        0.0240
     21 C           8.4853   -7.5546   24.6746 C.3     1  UNL1        0.0018
     22 C           8.6908   -8.0840   26.0629 C.3     1  UNL1        0.0018
     23 C           0.0422    1.4058   25.0688 C.ar    1  UNL1        0.0503
     24 C          -0.2927    1.4274   26.5308 C.ar    1  UNL1        0.0144
     25 C          -1.1203    2.5444   27.0943 C.ar    1  UNL1       -0.0002
     26 C          -1.6129    3.6398   26.1957 C.ar    1  UNL1        0.0182
     27 C          -1.2780    3.6182   24.7337 C.ar    1  UNL1       -0.0002
     28 C          -0.4504    2.5012   24.1703 C.ar    1  UNL1        0.0144
     29 C          -2.4404    4.7569   26.7591 C.3     1  UNL1        0.2827
     30 O          -1.2008    5.3981   27.3088 O.3     1  UNL1       -0.3692
     31 H          -1.4381    6.2174   27.7707 H       1  UNL1        0.2112
     32 C          -3.2680    5.8739   27.3224 C.3     1  UNL1        0.4311
     33 F          -4.0956    6.9909   27.8858 F       1  UNL1       -0.1669
     34 F          -3.7249    5.3870   27.9044 F       1  UNL1       -0.1669
     35 F          -2.5902    6.8420   26.3986 F       1  UNL1       -0.1669
     36 C          -3.6800    4.1156   26.2094 C.3     1  UNL1        0.4311
     37 F          -4.9197    3.4743   25.6598 F       1  UNL1       -0.1669
     38 F          -3.7152    3.4405   26.7818 F       1  UNL1       -0.1669
     39 F          -4.0696    5.0017   25.0635 F       1  UNL1       -0.1669
@<TRIPOS>BOND
     1     5     6    2
     2     6     7   am
     3     7     8    1
     4     8     9    1
     5     9    10   ar
     6    10    11   ar
     7    11    16    1
     8    16    17    2
     9    16    18    2
    10    16    19    1
    11    19    20    1
    12    20    21    1
    13    21    22    1
    14    11    12   ar
    15    12    13   ar
    16    13    14   ar
    17    14    15    1
    18    15     1    1
    19     1     2    2
    20     1     3   am
    21     3    23    1
    22    23    24   ar
    23    24    25   ar
    24    25    26   ar
    25    26    29    1
    26    29    30    1
    27    29    32    1
    28    32    33    1
    29    32    34    1
    30    32    35    1
    31    29    36    1
    32    36    37    1
    33    36    38    1
    34    36    39    1
    35    26    27   ar
    36    27    28   ar
    37    15     7    1
    38    28    23   ar
    39    14     9   ar
    40    22    20    1
    41     3     4    1
    42    30    31    1
@<TRIPOS>MOLECULE
*****
 39 42 0 0 0
SMALL
GASTEIGER

@<TRIPOS>ATOM
      1 C           3.7960   -0.3096   32.3411 C.2     1  UNL1        0.2486
      2 O           2.9617   -1.3118   31.6000 O.2     1  UNL1       -0.2726
      3 N           5.2867   -0.4683   32.3954 N.am    1  UNL1       -0.2823
      4 H           5.8343    0.1895   32.8819 H       1  UNL1        0.1549
      5 O           0.5925    2.7162   30.5471 O.2     1  UNL1       -0.2649
      6 C           1.6031    1.7125   31.0173 C.2     1  UNL1        0.3037
      7 N           2.1319    1.7808   32.4194 N.am    1  UNL1       -0.2582
      8 C           1.7456    2.7905   33.4591 C.3     1  UNL1        0.1211
      9 C           2.5147    2.4852   34.7102 C.ar    1  UNL1       -0.0030
     10 C           2.5417    3.1436   36.0577 C.ar    1  UNL1        0.0155
     11 C           3.4305    2.6035   37.1386 C.ar    1  UNL1        0.1054
     12 C           4.2922    1.4050   36.8720 C.ar    1  UNL1        0.0181
     13 C           4.2652    0.7466   35.5245 C.ar    1  UNL1       -0.0011
     14 C           3.3764    1.2867   34.4437 C.ar    1  UNL1        0.0023
     15 C           3.1398    0.8514   33.0278 C.3     1  UNL1        0.1754
     16 S           3.4576    3.2620   38.4861 S.O2    1  UNL1        0.0086
     17 O           3.6200    1.9209   39.1382 O.2     1  UNL1       -0.1686
     18 O           3.2952    4.6030   37.8341 O.2     1  UNL1       -0.1686
     19 C           3.4846    3.9204   39.8336 C.3     1  UNL1        0.1559
     20 C           4.7892    4.3673   40.4239 C.3     1  UNL1        0.0240
     21 C           5.7792    4.3492   41.5507 C.3     1  UNL1        0.0018
     22 C           6.0587    5.1594   40.3197 C.3     1  UNL1        0.0018
     23 C           5.9428   -1.6293   31.7087 C.ar    1  UNL1        0.0503
     24 C           6.2403   -1.5614   30.2401 C.ar    1  UNL1        0.0144
     25 C           6.8965   -2.7224   29.5533 C.ar    1  UNL1       -0.0002
     26 C           7.2551   -3.9511   30.3352 C.ar    1  UNL1        0.0182
     27 C           6.9576   -4.0190   31.8039 C.ar    1  UNL1       -0.0002
     28 C           6.3015   -2.8580   32.4906 C.ar    1  UNL1        0.0144
     29 C           7.9113   -5.1121   29.6485 C.3     1  UNL1        0.2827
     30 O           9.1446   -4.9051   30.4768 O.3     1  UNL1       -0.3692
     31 H           9.8105   -5.5683   30.2367 H       1  UNL1        0.2112
     32 C           8.5674   -6.2732   28.9618 C.3     1  UNL1        0.4311
     33 F           9.2235   -7.4342   28.2751 F       1  UNL1       -0.1669
     34 F           8.0480   -6.9061   29.2997 F       1  UNL1       -0.1669
     35 F           9.5342   -5.3359   28.3009 F       1  UNL1       -0.1669
     36 C           6.6780   -5.3192   28.8202 C.3     1  UNL1        0.4311
     37 F           5.4446   -5.5262   27.9920 F       1  UNL1       -0.1669
     38 F           6.1750   -5.6675   29.4608 F       1  UNL1       -0.1669
     39 F           7.0652   -4.8174   27.4607 F       1  UNL1       -0.1669
@<TRIPOS>BOND
     1     5     6    2
     2     6     7   am
     3     7     8    1
     4     8     9    1
     5     9    10   ar
     6    10    11   ar
     7    11    16    1
     8    16    17    2
     9    16    18    2
    10    16    19    1
    11    19    20    1
    12    20    21    1
    13    21    22    1
    14    11    12   ar
    15    12    13   ar
    16    13    14   ar
    17    14    15    1
    18    15     1    1
    19     1     2    2
    20     1     3   am
    21     3    23    1
    22    23    24   ar
    23    24    25   ar
    24    25    26   ar
    25    26    29    1
    26    29    30    1
    27    29    32    1
    28    32    33    1
    29    32    34    1
    30    32    35    1
    31    29    36    1
    32    36    37    1
    33    36    38    1
    34    36    39    1
    35    26    27   ar
    36    27    28   ar
    37    15     7    1
    38    28    23   ar
    39    14     9   ar
    40    22    20    1
    41     3     4    1
    42    30    31    1
