@<TRIPOS>MOLECULE
*****
 40 44 0 0 0
SMALL
GASTEIGER

@<TRIPOS>ATOM
      1 C           5.9138   -2.5966   22.5047 C.3     1  UNL1        0.1517
      2 C           6.4642   -3.5262   23.5454 C.2     1  UNL1        0.3504
      3 N           7.2151   -4.7565   23.1304 N.2     1  UNL1       -0.0411
      4 C           7.7654   -5.6860   24.1710 C.2     1  UNL1        0.2134
      5 C           8.5163   -6.9165   23.7560 C.3     1  UNL1        0.2481
      6 F           8.7169   -7.2173   22.3002 F       1  UNL1       -0.2234
      7 C           9.0667   -7.8460   24.7967 C.2     1  UNL1        0.0166
      8 C           8.8661   -7.5451   26.2524 C.2     1  UNL1       -0.0053
      9 C           8.1153   -6.3148   26.6675 C.2     1  UNL1       -0.0119
     10 C           7.9147   -6.0139   28.1233 C.3     1  UNL1        0.0314
     11 C           7.5649   -5.3852   25.6268 C.2     1  UNL1        0.1197
     12 C           6.8140   -4.1548   26.0419 C.2     1  UNL1        0.3783
     13 O           6.6134   -3.8540   27.4977 O.2     1  UNL1       -0.2376
     14 N           6.2636   -3.2253   25.0012 N.am    1  UNL1        0.0324
     15 C           5.4750   -3.1346   21.1751 C.ar    1  UNL1       -0.0070
     16 C           6.1886   -2.7157   19.9240 C.ar    1  UNL1       -0.0035
     17 C           5.7498   -3.2539   18.5943 C.ar    1  UNL1        0.0020
     18 C           4.5975   -4.2109   18.5158 C.ar    1  UNL1        0.0296
     19 C           3.8839   -4.6298   19.7669 C.ar    1  UNL1        0.1398
     20 F           2.7316   -5.5868   19.6884 F       1  UNL1       -0.2042
     21 C           4.3226   -4.0917   21.0966 C.ar    1  UNL1        0.0260
     22 C           5.8022   -1.1289   22.7937 C.3     1  UNL1        0.1063
     23 C           3.2901   -0.4685   22.7349 C.2     1  UNL1        0.2475
     24 O           3.0168   -1.4065   23.8730 O.2     1  UNL1       -0.2701
     25 N           4.6828   -0.3297   22.1953 N.am    1  UNL1       -0.2999
     26 H           4.8622    0.2860   21.4483 H       1  UNL1        0.1498
     27 C          -0.0679    1.9293   20.9393 C.ar    1  UNL1        0.0863
     28 C           0.4481    0.7129   20.2294 C.ar    1  UNL1        0.0308
     29 C           1.5674   -0.0864   20.8280 C.ar    1  UNL1        0.0643
     30 CL          2.0835   -1.3029   20.1181 Cl      1  UNL1       -0.0820
     31 C           2.1708    0.3308   22.1364 C.ar    1  UNL1        0.0745
     32 C           1.6548    1.5473   22.8462 C.ar    1  UNL1        0.0643
     33 CL          2.2581    1.9645   24.1546 Cl      1  UNL1       -0.0820
     34 C           0.5354    2.3465   22.2477 C.ar    1  UNL1        0.0308
     35 C          -4.8426    4.0013   20.0501 C.3     1  UNL1        0.0756
     36 C          -3.3819    3.6810   19.9320 C.ar    1  UNL1        0.1613
     37 N          -2.4375    4.2362   18.9073 N.ar    1  UNL1       -0.2073
     38 C          -1.0812    3.6476   19.1600 C.ar    1  UNL1        0.2013
     39 N          -1.1873    2.7286   20.3407 N.ar    1  UNL1       -0.2083
     40 N          -2.6092    2.7493   20.8179 N.ar    1  UNL1       -0.1487
@<TRIPOS>BOND
     1    35    36    1
     2    36    37   ar
     3    37    38   ar
     4    38    39   ar
     5    39    27    1
     6    27    28   ar
     7    28    29   ar
     8    29    30    1
     9    29    31   ar
    10    31    23    1
    11    23    24    2
    12    23    25   am
    13    25    22    1
    14     1    22    1
    15     1    15    1
    16    15    16   ar
    17    16    17   ar
    18    17    18   ar
    19    18    19   ar
    20    19    20    1
    21    19    21   ar
    22     1     2    1
    23     2     3    1
    24     3     4    2
    25     4     5    1
    26     5     6    1
    27     5     7    1
    28     7     8    2
    29     8     9    1
    30     9    10    1
    31     9    11    2
    32    11    12    1
    33    12    13    2
    34    12    14    1
    35    31    32   ar
    36    32    33    1
    37    32    34   ar
    38    39    40   ar
    39    40    36   ar
    40    34    27   ar
    41    21    15   ar
    42    14     2    2
    43    11     4    1
    44    25    26    1
@<TRIPOS>MOLECULE
*****
 40 44 0 0 0
SMALL
GASTEIGER

@<TRIPOS>ATOM
      1 C           5.6926   -2.8109   22.7748 C.3     1  UNL1        0.1517
      2 C           6.3606   -3.7731   23.7120 C.2     1  UNL1        0.3504
      3 N           7.1763   -4.9075   23.1664 N.2     1  UNL1       -0.0411
      4 C           7.8441   -5.8696   24.1036 C.2     1  UNL1        0.2134
      5 C           8.6599   -7.0041   23.5580 C.3     1  UNL1        0.2481
      6 F           8.8077   -7.1764   22.0753 F       1  UNL1       -0.2234
      7 C           9.3277   -7.9661   24.4952 C.2     1  UNL1        0.0166
      8 C           9.1799   -7.7938   25.9779 C.2     1  UNL1       -0.0053
      9 C           8.3642   -6.6594   26.5235 C.2     1  UNL1       -0.0119
     10 C           8.2163   -6.4871   28.0062 C.3     1  UNL1        0.0314
     11 C           7.6963   -5.6973   25.5863 C.2     1  UNL1        0.1197
     12 C           6.8805   -4.5629   26.1319 C.2     1  UNL1        0.3783
     13 O           6.7327   -4.3905   27.6146 O.2     1  UNL1       -0.2376
     14 N           6.2127   -3.6008   25.1947 N.am    1  UNL1        0.0324
     15 C           5.3347   -3.2445   21.3842 C.ar    1  UNL1       -0.0070
     16 C           4.1901   -4.1887   21.1643 C.ar    1  UNL1       -0.0035
     17 C           3.8321   -4.6223   19.7736 C.ar    1  UNL1        0.0020
     18 C           4.6189   -4.1118   18.6030 C.ar    1  UNL1        0.0296
     19 C           5.7635   -3.1677   18.8229 C.ar    1  UNL1        0.1398
     20 F           6.5502   -2.6572   17.6523 F       1  UNL1       -0.2042
     21 C           6.1214   -2.7340   20.2135 C.ar    1  UNL1        0.0260
     22 C           5.3827   -1.4151   23.2283 C.3     1  UNL1        0.1063
     23 C           4.0551    0.2300   21.7180 C.2     1  UNL1        0.2475
     24 O           5.3192    0.5837   20.9921 O.2     1  UNL1       -0.2701
     25 N           4.0869   -0.7694   22.8361 N.am    1  UNL1       -0.2999
     26 H           3.2572   -1.0015   23.3126 H       1  UNL1        0.1498
     27 C           0.1675    2.1669   20.5413 C.ar    1  UNL1        0.0863
     28 C           0.4744    0.7686   20.0937 C.ar    1  UNL1        0.0308
     29 C           1.7702    0.1230   20.4859 C.ar    1  UNL1        0.0643
     30 CL          2.0772   -1.2755   20.0383 Cl      1  UNL1       -0.0820
     31 C           2.7592    0.8757   21.3258 C.ar    1  UNL1        0.0745
     32 C           2.4524    2.2740   21.7734 C.ar    1  UNL1        0.0643
     33 CL          3.4414    3.0268   22.6132 Cl      1  UNL1       -0.0820
     34 C           1.1565    2.9197   21.3811 C.ar    1  UNL1        0.0308
     35 C          -4.9251    3.5595   20.4537 C.3     1  UNL1        0.0756
     36 C          -3.4691    3.4527   20.1088 C.ar    1  UNL1        0.1613
     37 N          -2.7758    4.1599   18.9822 N.ar    1  UNL1       -0.2073
     38 C          -1.3291    3.7643   19.0071 C.ar    1  UNL1        0.2013
     39 N          -1.1284    2.8127   20.1491 N.ar    1  UNL1       -0.2083
     40 N          -2.4510    2.6201   20.8300 N.ar    1  UNL1       -0.1487
@<TRIPOS>BOND
     1    35    36    1
     2    36    37   ar
     3    37    38   ar
     4    38    39   ar
     5    39    27    1
     6    27    28   ar
     7    28    29   ar
     8    29    30    1
     9    29    31   ar
    10    31    23    1
    11    23    24    2
    12    23    25   am
    13    25    22    1
    14     1    22    1
    15     1    15    1
    16    15    16   ar
    17    16    17   ar
    18    17    18   ar
    19    18    19   ar
    20    19    20    1
    21    19    21   ar
    22     1     2    1
    23     2     3    1
    24     3     4    2
    25     4     5    1
    26     5     6    1
    27     5     7    1
    28     7     8    2
    29     8     9    1
    30     9    10    1
    31     9    11    2
    32    11    12    1
    33    12    13    2
    34    12    14    1
    35    31    32   ar
    36    32    33    1
    37    32    34   ar
    38    39    40   ar
    39    40    36   ar
    40    34    27   ar
    41    21    15   ar
    42    14     2    2
    43    11     4    1
    44    25    26    1
@<TRIPOS>MOLECULE
*****
 40 44 0 0 0
SMALL
GASTEIGER

@<TRIPOS>ATOM
      1 C           5.5278   -2.8104   22.7563 C.3     1  UNL1        0.1517
      2 C           6.2800   -3.8652   23.5124 C.2     1  UNL1        0.3504
      3 N           6.1848   -3.9275   25.0081 N.2     1  UNL1       -0.0411
      4 C           6.9370   -4.9823   25.7641 C.2     1  UNL1        0.2134
      5 C           6.8419   -5.0446   27.2599 C.3     1  UNL1        0.2481
      6 F           5.9945   -4.0521   27.9995 F       1  UNL1       -0.2234
      7 C           7.5940   -6.0993   28.0159 C.2     1  UNL1        0.0166
      8 C           8.4414   -7.0918   27.2764 C.2     1  UNL1       -0.0053
      9 C           8.5365   -7.0295   25.7807 C.2     1  UNL1       -0.0119
     10 C           9.3839   -8.0220   25.0411 C.3     1  UNL1        0.0314
     11 C           7.7843   -5.9747   25.0246 C.2     1  UNL1        0.1197
     12 C           7.8795   -5.9125   23.5289 C.2     1  UNL1        0.3783
     13 O           8.7269   -6.9049   22.7893 O.2     1  UNL1       -0.2376
     14 N           7.1273   -4.8577   22.7728 N.am    1  UNL1        0.0324
     15 C           5.3373   -2.9420   21.2743 C.ar    1  UNL1       -0.0070
     16 C           6.2652   -2.2329   20.3330 C.ar    1  UNL1       -0.0035
     17 C           6.0747   -2.3645   18.8509 C.ar    1  UNL1        0.0020
     18 C           4.9564   -3.2053   18.3102 C.ar    1  UNL1        0.0296
     19 C           4.0285   -3.9145   19.2516 C.ar    1  UNL1        0.1398
     20 F           2.9102   -4.7553   18.7109 F       1  UNL1       -0.2042
     21 C           4.2190   -3.7829   20.7336 C.ar    1  UNL1        0.0260
     22 C           4.9661   -1.6240   23.4822 C.3     1  UNL1        0.1063
     23 C           3.7558    0.2579   22.1619 C.2     1  UNL1        0.2475
     24 O           5.0823    0.8577   21.8007 O.2     1  UNL1       -0.2701
     25 N           3.6977   -0.9829   23.0027 N.am    1  UNL1       -0.2999
     26 H           2.8270   -1.3765   23.2398 H       1  UNL1        0.1498
     27 C          -0.0497    2.1812   20.7233 C.ar    1  UNL1        0.0863
     28 C           0.5453    1.0339   19.9618 C.ar    1  UNL1        0.0308
     29 C           1.8137    0.3929   20.4413 C.ar    1  UNL1        0.0643
     30 CL          2.4087   -0.7544   19.6798 Cl      1  UNL1       -0.0820
     31 C           2.4872    0.8990   21.6824 C.ar    1  UNL1        0.0745
     32 C           1.8923    2.0463   22.4439 C.ar    1  UNL1        0.0643
     33 CL          2.5658    2.5524   23.6849 Cl      1  UNL1       -0.0820
     34 C           0.6239    2.6873   21.9643 C.ar    1  UNL1        0.0308
     35 C          -5.1173    3.6122   20.3331 C.3     1  UNL1        0.0756
     36 C          -3.6475    3.4800   20.0644 C.ar    1  UNL1        0.1613
     37 N          -2.8928    4.1377   18.9472 N.ar    1  UNL1       -0.2073
     38 C          -1.4532    3.7311   19.0581 C.ar    1  UNL1        0.2013
     39 N          -1.3182    2.8223   20.2437 N.ar    1  UNL1       -0.2083
     40 N          -2.6743    2.6671   20.8657 N.ar    1  UNL1       -0.1487
@<TRIPOS>BOND
     1    35    36    1
     2    36    37   ar
     3    37    38   ar
     4    38    39   ar
     5    39    27    1
     6    27    28   ar
     7    28    29   ar
     8    29    30    1
     9    29    31   ar
    10    31    23    1
    11    23    24    2
    12    23    25   am
    13    25    22    1
    14     1    22    1
    15     1    15    1
    16    15    16   ar
    17    16    17   ar
    18    17    18   ar
    19    18    19   ar
    20    19    20    1
    21    19    21   ar
    22     1     2    1
    23     2     3    1
    24     3     4    2
    25     4     5    1
    26     5     6    1
    27     5     7    1
    28     7     8    2
    29     8     9    1
    30     9    10    1
    31     9    11    2
    32    11    12    1
    33    12    13    2
    34    12    14    1
    35    31    32   ar
    36    32    33    1
    37    32    34   ar
    38    39    40   ar
    39    40    36   ar
    40    34    27   ar
    41    21    15   ar
    42    14     2    2
    43    11     4    1
    44    25    26    1
@<TRIPOS>MOLECULE
*****
 40 44 0 0 0
SMALL
GASTEIGER

@<TRIPOS>ATOM
      1 C           2.6928    0.3393   30.2669 C.3     1  UNL1        0.1517
      2 C           2.7785    0.8158   31.6867 C.2     1  UNL1        0.3504
      3 N           3.6557    0.0960   32.6677 N.2     1  UNL1       -0.0411
      4 C           3.7415    0.5724   34.0874 C.2     1  UNL1        0.2134
      5 C           4.6187   -0.1474   35.0684 C.3     1  UNL1        0.2481
      6 F           5.4103   -1.3436   34.6297 F       1  UNL1       -0.2234
      7 C           4.7045    0.3291   36.4881 C.2     1  UNL1        0.0166
      8 C           3.9129    1.5253   36.9269 C.2     1  UNL1       -0.0053
      9 C           3.0357    2.2451   35.9459 C.2     1  UNL1       -0.0119
     10 C           2.2442    3.4413   36.3847 C.3     1  UNL1        0.0314
     11 C           2.9499    1.7687   34.5261 C.2     1  UNL1        0.1197
     12 C           2.0727    2.4884   33.5452 C.2     1  UNL1        0.3783
     13 O           1.2812    3.6847   33.9839 O.2     1  UNL1       -0.2376
     14 N           1.9870    2.0120   32.1255 N.am    1  UNL1        0.0324
     15 C           1.4795    0.6530   29.4426 C.ar    1  UNL1       -0.0070
     16 C           1.4097    1.9362   28.6689 C.ar    1  UNL1       -0.0035
     17 C           0.1964    2.2499   27.8445 C.ar    1  UNL1        0.0020
     18 C          -0.9470    1.2804   27.7938 C.ar    1  UNL1        0.0296
     19 C          -0.8772   -0.0029   28.5674 C.ar    1  UNL1        0.1398
     20 F          -2.0206   -0.9724   28.5166 F       1  UNL1       -0.2042
     21 C           0.3360   -0.3165   29.3918 C.ar    1  UNL1        0.0260
     22 C           3.8203   -0.4508   29.6716 C.3     1  UNL1        0.1063
     23 C           4.4829   -0.3591   27.1611 C.2     1  UNL1        0.2475
     24 O           5.3786    0.8112   27.4403 O.2     1  UNL1       -0.2701
     25 N           3.7037   -0.9901   28.2768 N.am    1  UNL1       -0.2999
     26 H           3.1157   -1.7582   28.0935 H       1  UNL1        0.1498
     27 C           4.1329   -1.9769   22.9767 C.ar    1  UNL1        0.0863
     28 C           3.1982   -0.9016   23.4456 C.ar    1  UNL1        0.0308
     29 C           3.3148   -0.3624   24.8404 C.ar    1  UNL1        0.0643
     30 CL          2.3801    0.7130   25.3094 Cl      1  UNL1       -0.0820
     31 C           4.3662   -0.8984   25.7663 C.ar    1  UNL1        0.0745
     32 C           5.3010   -1.9737   25.2973 C.ar    1  UNL1        0.0643
     33 CL          6.3524   -2.5097   26.2232 Cl      1  UNL1       -0.0820
     34 C           5.1843   -2.5130   23.9025 C.ar    1  UNL1        0.0308
     35 C           4.5443   -5.1291   18.7605 C.3     1  UNL1        0.0756
     36 C           4.2054   -3.9651   19.6439 C.ar    1  UNL1        0.1613
     37 N           3.4682   -2.7271   19.2268 N.ar    1  UNL1       -0.2073
     38 C           3.3513   -1.8317   20.4245 C.ar    1  UNL1        0.2013
     39 N           4.0163   -2.5163   21.5818 N.ar    1  UNL1       -0.2083
     40 N           4.5441   -3.8348   21.0993 N.ar    1  UNL1       -0.1487
@<TRIPOS>BOND
     1    35    36    1
     2    36    37   ar
     3    37    38   ar
     4    38    39   ar
     5    39    27    1
     6    27    28   ar
     7    28    29   ar
     8    29    30    1
     9    29    31   ar
    10    31    23    1
    11    23    24    2
    12    23    25   am
    13    25    22    1
    14     1    22    1
    15     1    15    1
    16    15    16   ar
    17    16    17   ar
    18    17    18   ar
    19    18    19   ar
    20    19    20    1
    21    19    21   ar
    22     1     2    1
    23     2     3    1
    24     3     4    2
    25     4     5    1
    26     5     6    1
    27     5     7    1
    28     7     8    2
    29     8     9    1
    30     9    10    1
    31     9    11    2
    32    11    12    1
    33    12    13    2
    34    12    14    1
    35    31    32   ar
    36    32    33    1
    37    32    34   ar
    38    39    40   ar
    39    40    36   ar
    40    34    27   ar
    41    21    15   ar
    42    14     2    2
    43    11     4    1
    44    25    26    1
@<TRIPOS>MOLECULE
*****
 40 44 0 0 0
SMALL
GASTEIGER

@<TRIPOS>ATOM
      1 C          -1.1449    2.7305   25.6939 C.3     1  UNL1        0.1517
      2 C          -2.4967    3.3758   25.6151 C.2     1  UNL1        0.3504
      3 N          -3.3469    3.1889   24.3936 N.2     1  UNL1       -0.0411
      4 C          -4.6987    3.8342   24.3148 C.2     1  UNL1        0.2134
      5 C          -5.5490    3.6474   23.0932 C.3     1  UNL1        0.2481
      6 F          -5.0474    2.8152   21.9504 F       1  UNL1       -0.2234
      7 C          -6.9008    4.2927   23.0145 C.2     1  UNL1        0.0166
      8 C          -7.4024    5.1248   24.1573 C.2     1  UNL1       -0.0053
      9 C          -6.5522    5.3117   25.3788 C.2     1  UNL1       -0.0119
     10 C          -7.0537    6.1438   26.5216 C.3     1  UNL1        0.0314
     11 C          -5.2003    4.6664   25.4576 C.2     1  UNL1        0.1197
     12 C          -4.3501    4.8532   26.6791 C.2     1  UNL1        0.3783
     13 O          -4.8517    5.6854   27.8219 O.2     1  UNL1       -0.2376
     14 N          -2.9983    4.2079   26.7579 N.am    1  UNL1        0.0324
     15 C          -0.6083    2.2728   27.0177 C.ar    1  UNL1       -0.0070
     16 C           0.3200    3.1566   27.7969 C.ar    1  UNL1       -0.0035
     17 C           0.8566    2.6988   29.1207 C.ar    1  UNL1        0.0020
     18 C           0.4648    1.3572   29.6654 C.ar    1  UNL1        0.0296
     19 C          -0.4635    0.4734   28.8863 C.ar    1  UNL1        0.1398
     20 F          -0.8553   -0.8681   29.4309 F       1  UNL1       -0.2042
     21 C          -1.0001    0.9311   27.5625 C.ar    1  UNL1        0.0260
     22 C          -0.3296    2.5429   24.4488 C.3     1  UNL1        0.1063
     23 C           2.0628    1.5326   24.5212 C.2     1  UNL1        0.2475
     24 O           2.6242    2.8851   24.8459 O.2     1  UNL1       -0.2701
     25 N           0.5859    1.3615   24.3227 N.am    1  UNL1       -0.2999
     26 H           0.2174    0.4738   24.1095 H       1  UNL1        0.1498
     27 C           4.8093   -2.0119   24.1428 C.ar    1  UNL1        0.0863
     28 C           4.3559   -1.5558   25.4979 C.ar    1  UNL1        0.0308
     29 C           3.4404   -0.3743   25.6240 C.ar    1  UNL1        0.0643
     30 CL          2.9869    0.0818   26.9791 Cl      1  UNL1       -0.0820
     31 C           2.9783    0.3510   24.3950 C.ar    1  UNL1        0.0745
     32 C           3.4318   -0.1051   23.0400 C.ar    1  UNL1        0.0643
     33 CL          2.9698    0.6203   21.8110 Cl      1  UNL1       -0.0820
     34 C           4.3473   -1.2866   22.9138 C.ar    1  UNL1        0.0308
     35 C           7.9853   -6.0551   25.3459 C.3     1  UNL1        0.0756
     36 C           7.1847   -5.0519   24.5696 C.ar    1  UNL1        0.1613
     37 N           7.0826   -4.9713   23.0752 N.ar    1  UNL1       -0.2073
     38 C           6.1804   -3.8228   22.7335 C.ar    1  UNL1        0.2013
     39 N           5.7248   -3.1935   24.0166 N.ar    1  UNL1       -0.2083
     40 N           6.3455   -3.9531   25.1514 N.ar    1  UNL1       -0.1487
@<TRIPOS>BOND
     1    35    36    1
     2    36    37   ar
     3    37    38   ar
     4    38    39   ar
     5    39    27    1
     6    27    28   ar
     7    28    29   ar
     8    29    30    1
     9    29    31   ar
    10    31    23    1
    11    23    24    2
    12    23    25   am
    13    25    22    1
    14     1    22    1
    15     1    15    1
    16    15    16   ar
    17    16    17   ar
    18    17    18   ar
    19    18    19   ar
    20    19    20    1
    21    19    21   ar
    22     1     2    1
    23     2     3    1
    24     3     4    2
    25     4     5    1
    26     5     6    1
    27     5     7    1
    28     7     8    2
    29     8     9    1
    30     9    10    1
    31     9    11    2
    32    11    12    1
    33    12    13    2
    34    12    14    1
    35    31    32   ar
    36    32    33    1
    37    32    34   ar
    38    39    40   ar
    39    40    36   ar
    40    34    27   ar
    41    21    15   ar
    42    14     2    2
    43    11     4    1
    44    25    26    1
@<TRIPOS>MOLECULE
*****
 40 44 0 0 0
SMALL
GASTEIGER

@<TRIPOS>ATOM
      1 C          -1.2941    3.4726   25.8315 C.3     1  UNL1        0.1517
      2 C          -2.6997    3.9900   25.7501 C.2     1  UNL1        0.3504
      3 N          -3.5542    3.6564   24.5634 N.2     1  UNL1       -0.0411
      4 C          -4.9598    4.1738   24.4820 C.2     1  UNL1        0.2134
      5 C          -5.8144    3.8402   23.2952 C.3     1  UNL1        0.2481
      6 F          -5.2633    2.9890   22.1898 F       1  UNL1       -0.2234
      7 C          -7.2199    4.3576   23.2139 C.2     1  UNL1        0.0166
      8 C          -7.7709    5.2088   24.3193 C.2     1  UNL1       -0.0053
      9 C          -6.9164    5.5424   25.5061 C.2     1  UNL1       -0.0119
     10 C          -7.4674    6.3936   26.6115 C.3     1  UNL1        0.0314
     11 C          -5.5108    5.0250   25.5874 C.2     1  UNL1        0.1197
     12 C          -4.6563    5.3586   26.7742 C.2     1  UNL1        0.3783
     13 O          -5.2073    6.2098   27.8796 O.2     1  UNL1       -0.2376
     14 N          -3.2507    4.8412   26.8555 N.am    1  UNL1        0.0324
     15 C          -0.7950    2.8542   27.1037 C.ar    1  UNL1       -0.0070
     16 C           0.0833    3.6447   28.0277 C.ar    1  UNL1       -0.0035
     17 C           0.5823    3.0262   29.2999 C.ar    1  UNL1        0.0020
     18 C           0.2031    1.6173   29.6481 C.ar    1  UNL1        0.0296
     19 C          -0.6752    0.8269   28.7241 C.ar    1  UNL1        0.1398
     20 F          -1.0544   -0.5820   29.0722 F       1  UNL1       -0.2042
     21 C          -1.1742    1.4453   27.4519 C.ar    1  UNL1        0.0260
     22 C          -0.3876    3.5735   24.6406 C.3     1  UNL1        0.1063
     23 C           1.1358    2.4243   22.8776 C.2     1  UNL1        0.2475
     24 O           1.1955    3.7029   22.0957 O.2     1  UNL1       -0.2701
     25 N           0.3443    2.3596   24.1501 N.am    1  UNL1       -0.2999
     26 H           0.3051    1.5204   24.6634 H       1  UNL1        0.1498
     27 C           3.3314   -1.2177   21.4061 C.ar    1  UNL1        0.0863
     28 C           2.0636   -0.7831   20.7324 C.ar    1  UNL1        0.0308
     29 C           1.3318    0.4308   21.2230 C.ar    1  UNL1        0.0643
     30 CL          0.0639    0.8655   20.5493 Cl      1  UNL1       -0.0820
     31 C           1.8677    1.2102   22.3871 C.ar    1  UNL1        0.0745
     32 C           3.1355    0.7757   23.0608 C.ar    1  UNL1        0.0643
     33 CL          3.6715    1.5551   24.2249 Cl      1  UNL1       -0.0820
     34 C           3.8673   -0.4383   22.5702 C.ar    1  UNL1        0.0308
     35 C           4.6677   -5.4785   18.5880 C.3     1  UNL1        0.0756
     36 C           4.6775   -4.3902   19.6203 C.ar    1  UNL1        0.1613
     37 N           5.7016   -4.2096   20.7014 N.ar    1  UNL1       -0.2073
     38 C           5.3220   -2.9992   21.5019 C.ar    1  UNL1        0.2013
     39 N           4.0633   -2.4317   20.9156 N.ar    1  UNL1       -0.2083
     40 N           3.6650   -3.2914   19.7527 N.ar    1  UNL1       -0.1487
@<TRIPOS>BOND
     1    35    36    1
     2    36    37   ar
     3    37    38   ar
     4    38    39   ar
     5    39    27    1
     6    27    28   ar
     7    28    29   ar
     8    29    30    1
     9    29    31   ar
    10    31    23    1
    11    23    24    2
    12    23    25   am
    13    25    22    1
    14     1    22    1
    15     1    15    1
    16    15    16   ar
    17    16    17   ar
    18    17    18   ar
    19    18    19   ar
    20    19    20    1
    21    19    21   ar
    22     1     2    1
    23     2     3    1
    24     3     4    2
    25     4     5    1
    26     5     6    1
    27     5     7    1
    28     7     8    2
    29     8     9    1
    30     9    10    1
    31     9    11    2
    32    11    12    1
    33    12    13    2
    34    12    14    1
    35    31    32   ar
    36    32    33    1
    37    32    34   ar
    38    39    40   ar
    39    40    36   ar
    40    34    27   ar
    41    21    15   ar
    42    14     2    2
    43    11     4    1
    44    25    26    1
@<TRIPOS>MOLECULE
*****
 40 44 0 0 0
SMALL
GASTEIGER

@<TRIPOS>ATOM
      1 C          -1.8835    3.5835   24.5330 C.3     1  UNL1        0.1517
      2 C          -0.7864    3.0730   25.4196 C.2     1  UNL1        0.3504
      3 N          -1.0737    1.9973   26.4247 N.2     1  UNL1       -0.0411
      4 C           0.0234    1.4869   27.3112 C.2     1  UNL1        0.2134
      5 C          -0.2639    0.4111   28.3164 C.3     1  UNL1        0.2481
      6 F          -1.6483   -0.1541   28.4350 F       1  UNL1       -0.2234
      7 C           0.8331   -0.0993   29.2029 C.2     1  UNL1        0.0166
      8 C           2.2175    0.4660   29.0842 C.2     1  UNL1       -0.0053
      9 C           2.5048    1.5417   28.0791 C.2     1  UNL1       -0.0119
     10 C           3.8891    2.1069   27.9605 C.3     1  UNL1        0.0314
     11 C           1.4077    2.0522   27.1926 C.2     1  UNL1        0.1197
     12 C           1.6950    3.1279   26.1875 C.2     1  UNL1        0.3783
     13 O           3.0793    3.6931   26.0688 O.2     1  UNL1       -0.2376
     14 N           0.5979    3.6383   25.3010 N.am    1  UNL1        0.0324
     15 C          -3.1458    4.1236   25.1371 C.ar    1  UNL1       -0.0070
     16 C          -3.0969    4.8608   26.4424 C.ar    1  UNL1       -0.0035
     17 C          -4.3593    5.4009   27.0465 C.ar    1  UNL1        0.0020
     18 C          -5.6705    5.2037   26.3451 C.ar    1  UNL1        0.0296
     19 C          -5.7193    4.4664   25.0397 C.ar    1  UNL1        0.1398
     20 F          -7.0305    4.2692   24.3384 F       1  UNL1       -0.2042
     21 C          -4.4570    3.9263   24.4357 C.ar    1  UNL1        0.0260
     22 C          -1.7182    3.5539   23.0425 C.3     1  UNL1        0.1063
     23 C           0.4482    2.7546   21.8517 C.2     1  UNL1        0.2475
     24 O           1.0133    4.1406   21.9495 O.2     1  UNL1       -0.2701
     25 N          -0.9176    2.4612   22.3982 N.am    1  UNL1       -0.2999
     26 H          -1.2885    1.5515   22.3341 H       1  UNL1        0.1498
     27 C           2.8500   -0.5236   19.9191 C.ar    1  UNL1        0.0863
     28 C           2.7137   -0.4741   21.4120 C.ar    1  UNL1        0.0308
     29 C           1.9131    0.6186   22.0562 C.ar    1  UNL1        0.0643
     30 CL          1.7768    0.6681   23.5493 Cl      1  UNL1       -0.0820
     31 C           1.2488    1.6618   21.2075 C.ar    1  UNL1        0.0745
     32 C           1.3851    1.6124   19.7145 C.ar    1  UNL1        0.0643
     33 CL          0.7208    2.6556   18.8658 Cl      1  UNL1       -0.0820
     34 C           2.1857    0.5197   19.0703 C.ar    1  UNL1        0.0308
     35 C           4.7470   -5.2899   18.6682 C.3     1  UNL1        0.0756
     36 C           4.5226   -3.8071   18.6999 C.ar    1  UNL1        0.1613
     37 N           5.2427   -2.7884   17.8670 N.ar    1  UNL1       -0.2073
     38 C           4.7038   -1.4344   18.2223 C.ar    1  UNL1        0.2013
     39 N           3.6506   -1.6163   19.2748 N.ar    1  UNL1       -0.2083
     40 N           3.5386   -3.0827   19.5699 N.ar    1  UNL1       -0.1487
@<TRIPOS>BOND
     1    35    36    1
     2    36    37   ar
     3    37    38   ar
     4    38    39   ar
     5    39    27    1
     6    27    28   ar
     7    28    29   ar
     8    29    30    1
     9    29    31   ar
    10    31    23    1
    11    23    24    2
    12    23    25   am
    13    25    22    1
    14     1    22    1
    15     1    15    1
    16    15    16   ar
    17    16    17   ar
    18    17    18   ar
    19    18    19   ar
    20    19    20    1
    21    19    21   ar
    22     1     2    1
    23     2     3    1
    24     3     4    2
    25     4     5    1
    26     5     6    1
    27     5     7    1
    28     7     8    2
    29     8     9    1
    30     9    10    1
    31     9    11    2
    32    11    12    1
    33    12    13    2
    34    12    14    1
    35    31    32   ar
    36    32    33    1
    37    32    34   ar
    38    39    40   ar
    39    40    36   ar
    40    34    27   ar
    41    21    15   ar
    42    14     2    2
    43    11     4    1
    44    25    26    1
@<TRIPOS>MOLECULE
*****
 40 44 0 0 0
SMALL
GASTEIGER

@<TRIPOS>ATOM
      1 C           2.8569    0.8960   30.0161 C.3     1  UNL1        0.1517
      2 C           2.9382    1.1581   31.4908 C.2     1  UNL1        0.3504
      3 N           3.7522    0.2550   32.3693 N.2     1  UNL1       -0.0411
      4 C           3.8335    0.5171   33.8439 C.2     1  UNL1        0.2134
      5 C           4.6475   -0.3861   34.7225 C.3     1  UNL1        0.2481
      6 F           5.3801   -1.5513   34.1263 F       1  UNL1       -0.2234
      7 C           4.7288   -0.1240   36.1972 C.2     1  UNL1        0.0166
      8 C           3.9961    1.0413   36.7933 C.2     1  UNL1       -0.0053
      9 C           3.1822    1.9444   35.9148 C.2     1  UNL1       -0.0119
     10 C           2.4495    3.1097   36.5110 C.3     1  UNL1        0.0314
     11 C           3.1008    1.6823   34.4401 C.2     1  UNL1        0.1197
     12 C           2.2869    2.5855   33.5616 C.2     1  UNL1        0.3783
     13 O           1.5542    3.7507   34.1578 O.2     1  UNL1       -0.2376
     14 N           2.2056    2.3233   32.0870 N.am    1  UNL1        0.0324
     15 C           1.5508    1.0578   29.2965 C.ar    1  UNL1       -0.0070
     16 C           1.1743    2.3885   28.7156 C.ar    1  UNL1       -0.0035
     17 C          -0.1319    2.5503   27.9960 C.ar    1  UNL1        0.0020
     18 C          -1.0615    1.3814   27.8573 C.ar    1  UNL1        0.0296
     19 C          -0.6851    0.0506   28.4381 C.ar    1  UNL1        0.1398
     20 F          -1.6147   -1.1183   28.2994 F       1  UNL1       -0.2042
     21 C           0.6210   -0.1112   29.1577 C.ar    1  UNL1        0.0260
     22 C           4.0817    0.4721   29.2610 C.3     1  UNL1        0.1063
     23 C           3.7096   -0.7219   26.9838 C.2     1  UNL1        0.2475
     24 O           3.3273   -1.9799   27.7058 O.2     1  UNL1       -0.2701
     25 N           4.0868    0.5041   27.7614 N.am    1  UNL1       -0.2999
     26 H           4.3377    1.3297   27.2875 H       1  UNL1        0.1498
     27 C           3.7250   -0.6260   22.4848 C.ar    1  UNL1        0.0863
     28 C           4.7567   -1.4278   23.2214 C.ar    1  UNL1        0.0308
     29 C           4.7516   -1.4598   24.7210 C.ar    1  UNL1        0.0643
     30 CL          5.7833   -2.2617   25.4577 Cl      1  UNL1       -0.0820
     31 C           3.7147   -0.6899   25.4841 C.ar    1  UNL1        0.0745
     32 C           2.6830    0.1119   24.7475 C.ar    1  UNL1        0.0643
     33 CL          1.6462    0.8818   25.5106 Cl      1  UNL1       -0.0820
     34 C           2.6881    0.1439   23.2479 C.ar    1  UNL1        0.0308
     35 C           5.0345    0.4768   17.4898 C.3     1  UNL1        0.0756
     36 C           4.3320   -0.0871   18.6892 C.ar    1  UNL1        0.1613
     37 N           3.1438   -1.0024   18.6656 N.ar    1  UNL1       -0.2073
     38 C           2.7718   -1.3157   20.0846 C.ar    1  UNL1        0.2013
     39 N           3.7301   -0.5940   20.9851 N.ar    1  UNL1       -0.2083
     40 N           4.6943    0.1653   20.1227 N.ar    1  UNL1       -0.1487
@<TRIPOS>BOND
     1    35    36    1
     2    36    37   ar
     3    37    38   ar
     4    38    39   ar
     5    39    27    1
     6    27    28   ar
     7    28    29   ar
     8    29    30    1
     9    29    31   ar
    10    31    23    1
    11    23    24    2
    12    23    25   am
    13    25    22    1
    14     1    22    1
    15     1    15    1
    16    15    16   ar
    17    16    17   ar
    18    17    18   ar
    19    18    19   ar
    20    19    20    1
    21    19    21   ar
    22     1     2    1
    23     2     3    1
    24     3     4    2
    25     4     5    1
    26     5     6    1
    27     5     7    1
    28     7     8    2
    29     8     9    1
    30     9    10    1
    31     9    11    2
    32    11    12    1
    33    12    13    2
    34    12    14    1
    35    31    32   ar
    36    32    33    1
    37    32    34   ar
    38    39    40   ar
    39    40    36   ar
    40    34    27   ar
    41    21    15   ar
    42    14     2    2
    43    11     4    1
    44    25    26    1
@<TRIPOS>MOLECULE
*****
 40 44 0 0 0
SMALL
GASTEIGER

@<TRIPOS>ATOM
      1 C          -2.7851    4.7725   20.2309 C.3     1  UNL1        0.1517
      2 C          -2.8750    4.5297   21.7085 C.2     1  UNL1        0.3504
      3 N          -4.0650    5.0208   22.4782 N.2     1  UNL1       -0.0411
      4 C          -4.1548    4.7780   23.9557 C.2     1  UNL1        0.2134
      5 C          -5.3449    5.2691   24.7255 C.3     1  UNL1        0.2481
      6 F          -6.4451    6.0030   24.0178 F       1  UNL1       -0.2234
      7 C          -5.4347    5.0262   26.2030 C.2     1  UNL1        0.0166
      8 C          -4.3344    4.2923   26.9107 C.2     1  UNL1       -0.0053
      9 C          -3.1444    3.8012   26.1409 C.2     1  UNL1       -0.0119
     10 C          -2.0442    3.0673   26.8486 C.3     1  UNL1        0.0314
     11 C          -3.0546    4.0441   24.6634 C.2     1  UNL1        0.1197
     12 C          -1.8645    3.5530   23.8936 C.2     1  UNL1        0.3783
     13 O          -0.7643    2.8190   24.6013 O.2     1  UNL1       -0.2376
     14 N          -1.7747    3.7958   22.4161 N.am    1  UNL1        0.0324
     15 C          -4.0363    4.8706   19.4095 C.ar    1  UNL1       -0.0070
     16 C          -4.3073    6.1039   18.5999 C.ar    1  UNL1       -0.0035
     17 C          -5.5587    6.2019   17.7785 C.ar    1  UNL1        0.0020
     18 C          -6.5389    5.0666   17.7667 C.ar    1  UNL1        0.0296
     19 C          -6.2679    3.8332   18.5763 C.ar    1  UNL1        0.1398
     20 F          -7.2481    2.6979   18.5645 F       1  UNL1       -0.2042
     21 C          -5.0167    3.7352   19.3977 C.ar    1  UNL1        0.0260
     22 C          -1.4440    4.9173   19.5749 C.3     1  UNL1        0.1063
     23 C           0.7141    3.5147   19.9284 C.2     1  UNL1        0.2475
     24 O           1.2280    4.5470   20.8877 O.2     1  UNL1       -0.2701
     25 N          -0.6218    3.6999   19.2720 N.am    1  UNL1       -0.2999
     26 H          -0.9591    3.0223   18.6424 H       1  UNL1        0.1498
     27 C           3.1805   -0.1378   19.0196 C.ar    1  UNL1        0.0863
     28 C           3.4611    1.1526   18.3082 C.ar    1  UNL1        0.0308
     29 C           2.6389    2.3700   18.6112 C.ar    1  UNL1        0.0643
     30 CL          2.9194    3.6605   17.8997 Cl      1  UNL1       -0.0820
     31 C           1.5363    2.2971   19.6255 C.ar    1  UNL1        0.0745
     32 C           1.2558    1.0067   20.3369 C.ar    1  UNL1        0.0643
     33 CL          0.1531    0.9338   21.3512 Cl      1  UNL1       -0.0820
     34 C           2.0779   -0.2108   20.0340 C.ar    1  UNL1        0.0308
     35 C           4.8163   -5.1505   18.7392 C.3     1  UNL1        0.0756
     36 C           4.7545   -3.6594   18.5878 C.ar    1  UNL1        0.1613
     37 N           5.7812   -2.7984   17.9133 N.ar    1  UNL1       -0.2073
     38 C           5.3165   -1.3745   17.9930 C.ar    1  UNL1        0.2013
     39 N           4.0027   -1.3554   18.7167 N.ar    1  UNL1       -0.2083
     40 N           3.6554   -2.7676   19.0843 N.ar    1  UNL1       -0.1487
@<TRIPOS>BOND
     1    35    36    1
     2    36    37   ar
     3    37    38   ar
     4    38    39   ar
     5    39    27    1
     6    27    28   ar
     7    28    29   ar
     8    29    30    1
     9    29    31   ar
    10    31    23    1
    11    23    24    2
    12    23    25   am
    13    25    22    1
    14     1    22    1
    15     1    15    1
    16    15    16   ar
    17    16    17   ar
    18    17    18   ar
    19    18    19   ar
    20    19    20    1
    21    19    21   ar
    22     1     2    1
    23     2     3    1
    24     3     4    2
    25     4     5    1
    26     5     6    1
    27     5     7    1
    28     7     8    2
    29     8     9    1
    30     9    10    1
    31     9    11    2
    32    11    12    1
    33    12    13    2
    34    12    14    1
    35    31    32   ar
    36    32    33    1
    37    32    34   ar
    38    39    40   ar
    39    40    36   ar
    40    34    27   ar
    41    21    15   ar
    42    14     2    2
    43    11     4    1
    44    25    26    1
