@<TRIPOS>MOLECULE
*****
 16 16 0 0 0
SMALL
GASTEIGER

@<TRIPOS>ATOM
      1 C           2.3743  -13.4017   28.2243 C.ar    1  UNL1       -0.0224
      2 C           2.9136  -12.5811   29.3582 C.ar    1  UNL1       -0.0030
      3 C           4.3070  -12.0300   29.2888 C.ar    1  UNL1        0.0143
      4 C           5.1610  -12.2994   28.0855 C.ar    1  UNL1        0.0495
      5 C           4.6217  -13.1200   26.9516 C.ar    1  UNL1        0.0143
      6 C           3.2284  -13.6712   27.0210 C.ar    1  UNL1       -0.0030
      7 C           0.9810  -13.9529   28.2937 C.3     1  UNL1        0.0223
      8 C          -0.1827  -13.0273   28.4909 C.3     1  UNL1        0.0047
      9 C           1.7755  -16.3955   28.6839 C.3     1  UNL1        0.0003
     10 C           0.7514  -15.4296   28.1659 C.3     1  UNL1        0.0044
     11 N           6.5544  -11.7483   28.0161 N.pl3   1  UNL1       -0.2930
     12 H           6.6961  -10.7780   27.9285 H       1  UNL1        0.1538
     13 C           7.7317  -12.6755   28.0801 C.2     1  UNL1        0.2056
     14 N           7.8220  -13.6987   29.1731 N.2     1  UNL1       -0.0679
     15 O           8.9994  -14.6260   29.2371 O.2     1  UNL1       -0.4077
     16 H           9.0558  -15.2652   29.9199 H       1  UNL1        0.3278
@<TRIPOS>BOND
     1     9    10    1
     2    10     7    1
     3     7     8    1
     4     7     1    1
     5     1     2   ar
     6     2     3   ar
     7     3     4   ar
     8     4    11    1
     9    11    13    1
    10    13    14    2
    11    14    15    1
    12     4     5   ar
    13     5     6   ar
    14     6     1   ar
    15    11    12    1
    16    15    16    1
@<TRIPOS>MOLECULE
*****
 16 16 0 0 0
SMALL
GASTEIGER

@<TRIPOS>ATOM
      1 C          -8.1569  -16.0949   24.9800 C.ar    1  UNL1       -0.0224
      2 C          -7.6504  -15.4160   23.7421 C.ar    1  UNL1       -0.0030
      3 C          -8.1834  -15.8131   22.3974 C.ar    1  UNL1        0.0143
      4 C          -9.2229  -16.8892   22.2907 C.ar    1  UNL1        0.0495
      5 C          -9.7294  -17.5681   23.5286 C.ar    1  UNL1        0.0143
      6 C          -9.1964  -17.1710   24.8733 C.ar    1  UNL1       -0.0030
      7 C          -7.6239  -15.6977   26.3247 C.3     1  UNL1        0.0223
      8 C          -8.4353  -15.9567   27.5594 C.3     1  UNL1        0.0047
      9 C          -5.0521  -15.7628   25.9623 C.3     1  UNL1        0.0003
     10 C          -6.2796  -15.0416   26.4347 C.3     1  UNL1        0.0044
     11 N          -9.7559  -17.2864   20.9460 N.pl3   1  UNL1       -0.2930
     12 H          -9.2307  -17.8826   20.3648 H       1  UNL1        0.1538
     13 C         -11.0892  -16.7750   20.4868 C.2     1  UNL1        0.2056
     14 N         -11.1670  -15.7954   19.3535 N.2     1  UNL1       -0.0679
     15 O         -12.5004  -15.2841   18.8944 O.2     1  UNL1       -0.4077
     16 H         -12.5490  -14.6721   18.1865 H       1  UNL1        0.3278
@<TRIPOS>BOND
     1     9    10    1
     2    10     7    1
     3     7     8    1
     4     7     1    1
     5     1     2   ar
     6     2     3   ar
     7     3     4   ar
     8     4    11    1
     9    11    13    1
    10    13    14    2
    11    14    15    1
    12     4     5   ar
    13     5     6   ar
    14     6     1   ar
    15    11    12    1
    16    15    16    1
@<TRIPOS>MOLECULE
*****
 16 16 0 0 0
SMALL
GASTEIGER

@<TRIPOS>ATOM
      1 C          -6.9093  -19.5037   21.3379 C.ar    1  UNL1       -0.0224
      2 C          -6.2901  -20.4067   20.3128 C.ar    1  UNL1       -0.0030
      3 C          -4.7990  -20.5561   20.2477 C.ar    1  UNL1        0.0143
      4 C          -3.9271  -19.8025   21.2078 C.ar    1  UNL1        0.0495
      5 C          -4.5463  -18.8995   22.2330 C.ar    1  UNL1        0.0143
      6 C          -6.0375  -18.7501   22.2980 C.ar    1  UNL1       -0.0030
      7 C          -8.4005  -19.3542   21.4030 C.3     1  UNL1        0.0223
      8 C          -9.2142  -19.3974   20.1436 C.3     1  UNL1        0.0047
      9 C          -9.2126  -20.3158   23.6758 C.3     1  UNL1        0.0003
     10 C          -9.0778  -19.1616   22.7273 C.3     1  UNL1        0.0044
     11 N          -2.4360  -19.9520   21.1428 N.pl3   1  UNL1       -0.2930
     12 H          -1.9978  -20.7136   21.5868 H       1  UNL1        0.1538
     13 C          -1.6125  -18.9411   20.4012 C.2     1  UNL1        0.2056
     14 N          -1.8848  -18.6700   18.9513 N.2     1  UNL1       -0.0679
     15 O          -1.0613  -17.6591   18.2097 O.2     1  UNL1       -0.4077
     16 H          -1.2314  -17.4898   17.3040 H       1  UNL1        0.3278
@<TRIPOS>BOND
     1     9    10    1
     2    10     7    1
     3     7     8    1
     4     7     1    1
     5     1     2   ar
     6     2     3   ar
     7     3     4   ar
     8     4    11    1
     9    11    13    1
    10    13    14    2
    11    14    15    1
    12     4     5   ar
    13     5     6   ar
    14     6     1   ar
    15    11    12    1
    16    15    16    1
@<TRIPOS>MOLECULE
*****
 16 16 0 0 0
SMALL
GASTEIGER

@<TRIPOS>ATOM
      1 C           5.5516  -12.4929   28.1992 C.ar    1  UNL1       -0.0224
      2 C           4.6117  -12.1538   29.3179 C.ar    1  UNL1       -0.0030
      3 C           3.1408  -12.4037   29.1635 C.ar    1  UNL1        0.0143
      4 C           2.6097  -12.9926   27.8903 C.ar    1  UNL1        0.0495
      5 C           3.5496  -13.3317   26.7716 C.ar    1  UNL1        0.0143
      6 C           5.0205  -13.0818   26.9260 C.ar    1  UNL1       -0.0030
      7 C           7.0225  -12.2430   28.3537 C.3     1  UNL1        0.0223
      8 C           7.5983  -10.9062   27.9912 C.3     1  UNL1        0.0047
      9 C           9.3118  -13.4713   28.3354 C.3     1  UNL1        0.0003
     10 C           7.9177  -13.3299   28.8706 C.3     1  UNL1        0.0044
     11 N           1.1387  -13.2425   27.7359 N.pl3   1  UNL1       -0.2930
     12 H           0.5765  -12.5915   27.2569 H       1  UNL1        0.1538
     13 C           0.5244  -14.4841   28.3111 C.2     1  UNL1        0.2056
     14 N           1.1937  -15.8122   28.1149 N.2     1  UNL1       -0.0679
     15 O           0.5793  -17.0539   28.6901 O.2     1  UNL1       -0.4077
     16 H           0.9973  -17.8834   28.5676 H       1  UNL1        0.3278
@<TRIPOS>BOND
     1     9    10    1
     2    10     7    1
     3     7     8    1
     4     7     1    1
     5     1     2   ar
     6     2     3   ar
     7     3     4   ar
     8     4    11    1
     9    11    13    1
    10    13    14    2
    11    14    15    1
    12     4     5   ar
    13     5     6   ar
    14     6     1   ar
    15    11    12    1
    16    15    16    1
@<TRIPOS>MOLECULE
*****
 16 16 0 0 0
SMALL
GASTEIGER

@<TRIPOS>ATOM
      1 C         -10.2184  -17.5323   22.9636 C.ar    1  UNL1       -0.0224
      2 C          -9.8145  -17.4401   24.4052 C.ar    1  UNL1       -0.0030
      3 C          -8.6741  -16.5534   24.8094 C.ar    1  UNL1        0.0143
      4 C          -7.9376  -15.7590   23.7719 C.ar    1  UNL1        0.0495
      5 C          -8.3415  -15.8512   22.3303 C.ar    1  UNL1        0.0143
      6 C          -9.4819  -16.7379   21.9261 C.ar    1  UNL1       -0.0030
      7 C         -11.3588  -18.4190   22.5594 C.3     1  UNL1        0.0223
      8 C         -11.0993  -19.8442   22.1705 C.3     1  UNL1        0.0047
      9 C         -13.5992  -17.9415   23.7851 C.3     1  UNL1        0.0003
     10 C         -12.7586  -17.8804   22.5443 C.3     1  UNL1        0.0044
     11 N          -6.7972  -14.8723   24.1761 N.pl3   1  UNL1       -0.2930
     12 H          -6.9692  -14.0582   24.7023 H       1  UNL1        0.1538
     13 C          -5.3948  -15.2261   23.7786 C.2     1  UNL1        0.2056
     14 N          -5.0827  -16.6045   23.2762 N.2     1  UNL1       -0.0679
     15 O          -3.6802  -16.9583   22.8787 O.2     1  UNL1       -0.4077
     16 H          -3.4852  -17.8193   22.5649 H       1  UNL1        0.3278
@<TRIPOS>BOND
     1     9    10    1
     2    10     7    1
     3     7     8    1
     4     7     1    1
     5     1     2   ar
     6     2     3   ar
     7     3     4   ar
     8     4    11    1
     9    11    13    1
    10    13    14    2
    11    14    15    1
    12     4     5   ar
    13     5     6   ar
    14     6     1   ar
    15    11    12    1
    16    15    16    1
@<TRIPOS>MOLECULE
*****
 16 16 0 0 0
SMALL
GASTEIGER

@<TRIPOS>ATOM
      1 C          -6.3800  -19.2839   21.1621 C.ar    1  UNL1       -0.0224
      2 C          -7.1799  -19.7707   19.9903 C.ar    1  UNL1       -0.0030
      3 C          -8.6411  -19.4458   19.8926 C.ar    1  UNL1        0.0143
      4 C          -9.3023  -18.6342   20.9668 C.ar    1  UNL1        0.0495
      5 C          -8.5024  -18.1474   22.1387 C.ar    1  UNL1        0.0143
      6 C          -7.0413  -18.4723   22.2363 C.ar    1  UNL1       -0.0030
      7 C          -4.9189  -19.6088   21.2597 C.3     1  UNL1        0.0223
      8 C          -4.2133  -20.2467   20.0999 C.3     1  UNL1        0.0047
      9 C          -3.2013  -18.1455   22.5474 C.3     1  UNL1        0.0003
     10 C          -4.1634  -19.2959   22.5171 C.3     1  UNL1        0.0044
     11 N         -10.7635  -18.3093   20.8692 N.pl3   1  UNL1       -0.2930
     12 H         -11.3915  -18.6592   21.5417 H       1  UNL1        0.1538
     13 C         -11.2676  -17.4512   19.7470 C.2     1  UNL1        0.2056
     14 N         -12.1260  -16.2573   20.0431 N.2     1  UNL1       -0.0679
     15 O         -12.6302  -15.3992   18.9207 O.2     1  UNL1       -0.4077
     16 H         -13.1664  -14.6534   19.1057 H       1  UNL1        0.3278
@<TRIPOS>BOND
     1     9    10    1
     2    10     7    1
     3     7     8    1
     4     7     1    1
     5     1     2   ar
     6     2     3   ar
     7     3     4   ar
     8     4    11    1
     9    11    13    1
    10    13    14    2
    11    14    15    1
    12     4     5   ar
    13     5     6   ar
    14     6     1   ar
    15    11    12    1
    16    15    16    1
@<TRIPOS>MOLECULE
*****
 16 16 0 0 0
SMALL
GASTEIGER

@<TRIPOS>ATOM
      1 C          -7.7580  -16.2416   24.0871 C.ar    1  UNL1       -0.0224
      2 C          -7.3391  -17.0268   22.8797 C.ar    1  UNL1       -0.0030
      3 C          -8.3768  -17.6324   21.9817 C.ar    1  UNL1        0.0143
      4 C          -9.8335  -17.4529   22.2912 C.ar    1  UNL1        0.0495
      5 C         -10.2524  -16.6677   23.4986 C.ar    1  UNL1        0.0143
      6 C          -9.2147  -16.0621   24.3966 C.ar    1  UNL1       -0.0030
      7 C          -6.7203  -15.6360   24.9850 C.3     1  UNL1        0.0223
      8 C          -5.3060  -15.4924   24.5065 C.3     1  UNL1        0.0047
      9 C          -7.0490  -16.1330   27.5138 C.3     1  UNL1        0.0003
     10 C          -7.0969  -15.1740   26.3615 C.3     1  UNL1        0.0044
     11 N         -10.8712  -18.0585   21.3932 N.pl3   1  UNL1       -0.2930
     12 H         -10.9187  -19.0359   21.2851 H       1  UNL1        0.1538
     13 C         -11.8366  -17.1750   20.6601 C.2     1  UNL1        0.2056
     14 N         -11.3376  -16.2294   19.6081 N.2     1  UNL1       -0.0679
     15 O         -12.3030  -15.3459   18.8750 O.2     1  UNL1       -0.4077
     16 H         -11.9913  -14.7552   18.2178 H       1  UNL1        0.3278
@<TRIPOS>BOND
     1     9    10    1
     2    10     7    1
     3     7     8    1
     4     7     1    1
     5     1     2   ar
     6     2     3   ar
     7     3     4   ar
     8     4    11    1
     9    11    13    1
    10    13    14    2
    11    14    15    1
    12     4     5   ar
    13     5     6   ar
    14     6     1   ar
    15    11    12    1
    16    15    16    1
@<TRIPOS>MOLECULE
*****
 16 16 0 0 0
SMALL
GASTEIGER

@<TRIPOS>ATOM
      1 C          -9.4537  -19.2375   21.4826 C.ar    1  UNL1       -0.0224
      2 C          -9.0499  -19.2979   20.0393 C.ar    1  UNL1       -0.0030
      3 C          -7.6519  -19.6947   19.6676 C.ar    1  UNL1        0.0143
      4 C          -6.6577  -20.0311   20.7392 C.ar    1  UNL1        0.0495
      5 C          -7.0615  -19.9707   22.1825 C.ar    1  UNL1        0.0143
      6 C          -8.4595  -19.5739   22.5542 C.ar    1  UNL1       -0.0030
      7 C         -10.8517  -18.8407   21.8543 C.3     1  UNL1        0.0223
      8 C         -11.7666  -18.2583   20.8181 C.3     1  UNL1        0.0047
      9 C         -12.5061  -18.2349   23.7636 C.3     1  UNL1        0.0003
     10 C         -11.3348  -19.0264   23.2621 C.3     1  UNL1        0.0044
     11 N          -5.2597  -20.4279   20.3675 N.pl3   1  UNL1       -0.2930
     12 H          -5.1049  -21.2334   19.8229 H       1  UNL1        0.1538
     13 C          -4.0975  -19.5976   20.8255 C.2     1  UNL1        0.2056
     14 N          -2.7662  -20.2427   21.0732 N.2     1  UNL1       -0.0679
     15 O          -1.6040  -19.4123   21.5312 O.2     1  UNL1       -0.4077
     16 H          -0.7723  -19.8153   21.6860 H       1  UNL1        0.3278
@<TRIPOS>BOND
     1     9    10    1
     2    10     7    1
     3     7     8    1
     4     7     1    1
     5     1     2   ar
     6     2     3   ar
     7     3     4   ar
     8     4    11    1
     9    11    13    1
    10    13    14    2
    11    14    15    1
    12     4     5   ar
    13     5     6   ar
    14     6     1   ar
    15    11    12    1
    16    15    16    1
@<TRIPOS>MOLECULE
*****
 16 16 0 0 0
SMALL
GASTEIGER

@<TRIPOS>ATOM
      1 C         -11.8785   -6.5427   18.8161 C.ar    1  UNL1       -0.0224
      2 C         -12.8228   -5.6893   19.6098 C.ar    1  UNL1       -0.0030
      3 C         -14.2871   -6.0137   19.6337 C.ar    1  UNL1        0.0143
      4 C         -14.8071   -7.1914   18.8639 C.ar    1  UNL1        0.0495
      5 C         -13.8628   -8.0447   18.0702 C.ar    1  UNL1        0.0143
      6 C         -12.3985   -7.7203   18.0463 C.ar    1  UNL1       -0.0030
      7 C         -10.4142   -6.2183   18.7921 C.3     1  UNL1        0.0223
      8 C          -9.4006   -7.3161   18.9238 C.3     1  UNL1        0.0047
      9 C          -9.4506   -4.3125   17.3126 C.3     1  UNL1        0.0003
     10 C          -9.9635   -4.7962   18.6366 C.3     1  UNL1        0.0044
     11 N         -16.2715   -7.5157   18.8879 N.pl3   1  UNL1       -0.2930
     12 H         -16.9304   -6.8045   19.0587 H       1  UNL1        0.1538
     13 C         -16.7318   -8.9236   18.6515 C.2     1  UNL1        0.2056
     14 N         -16.5323   -9.9658   19.7117 N.2     1  UNL1       -0.0679
     15 O         -16.9926  -11.3738   19.4753 O.2     1  UNL1       -0.4077
     16 H         -16.8680  -12.0249   20.1375 H       1  UNL1        0.3278
@<TRIPOS>BOND
     1     9    10    1
     2    10     7    1
     3     7     8    1
     4     7     1    1
     5     1     2   ar
     6     2     3   ar
     7     3     4   ar
     8     4    11    1
     9    11    13    1
    10    13    14    2
    11    14    15    1
    12     4     5   ar
    13     5     6   ar
    14     6     1   ar
    15    11    12    1
    16    15    16    1
