@<TRIPOS>MOLECULE
*****
 56 60 0 0 0
SMALL
GASTEIGER

@<TRIPOS>ATOM
      1 C           3.8944    0.2173   22.4144 C.3     1  UNL1        0.0760
      2 C           4.2772   -1.2777   24.5044 C.2     1  UNL1        0.2407
      3 O           3.8645   -2.4853   23.7162 O.2     1  UNL1       -0.2733
      4 N           4.2921    0.0736   23.8535 N.am    1  UNL1       -0.3043
      5 H           4.5630    0.8663   24.3708 H       1  UNL1        0.1494
      6 C           4.6750   -1.4214   25.9436 C.3     1  UNL1        0.1557
      7 N           7.4028   -4.2650   26.4161 N.am    1  UNL1       -0.2567
      8 C           8.7886   -4.5962   25.9469 C.3     1  UNL1        0.1168
      9 C           6.7318   -3.0088   25.9452 C.2     1  UNL1        0.3046
     10 O           7.4465   -2.0837   25.0053 O.2     1  UNL1       -0.2526
     11 N           5.3461   -2.6777   26.4144 N.am    1  UNL1       -0.2821
     12 H           4.8770   -3.2848   27.0313 H       1  UNL1        0.1514
     13 C           6.6881   -5.1900   27.3560 C.3     1  UNL1        0.1413
     14 C           6.7093   -3.9258   31.0258 C.ar    1  UNL1        0.0875
     15 N           6.4882   -3.6918   29.5607 N.ar    1  UNL1       -0.2453
     16 C           6.7811   -4.9728   28.8373 C.ar    1  UNL1        0.0858
     17 C           7.1833   -5.9985   29.8553 C.ar    1  UNL1        0.0530
     18 S           7.1389   -5.3514   31.2078 S.2     1  UNL1       -0.0705
     19 C           7.6676   -2.0061   32.4909 C.3     1  UNL1        0.0069
     20 C           6.5321   -2.9121   32.1171 C.3     1  UNL1        0.0465
     21 C           5.2193   -2.8045   32.8347 C.3     1  UNL1        0.0069
     22 C           4.4017   -0.3090   26.9119 C.3     1  UNL1        0.0764
     23 C           3.0209   -0.1194   27.4663 C.ar    1  UNL1        0.0800
     24 C           1.9905    0.8440   26.9562 C.ar    1  UNL1        0.0921
     25 N           0.7608    0.6988   27.8027 N.ar    1  UNL1       -0.3061
     26 C          -0.5152    1.4712   27.6439 C.3     1  UNL1        0.1321
     27 C           1.0311   -0.3544   28.8360 C.ar    1  UNL1        0.1783
     28 N           2.4279   -0.8601   28.6280 N.ar    1  UNL1       -0.2282
     29 C           2.4774    0.5566   22.0582 C.3     1  UNL1        0.0216
     30 C           1.7507   -0.2497   21.0229 C.3     1  UNL1        0.0217
     31 C           0.7921    0.4228   20.0854 C.3     1  UNL1        0.0792
     32 N          -0.5359    0.9052   20.5892 N.am    1  UNL1       -0.2720
     33 C          -0.7082    2.3389   20.9954 C.2     1  UNL1        0.4019
     34 O           0.4475    3.2901   20.8977 O.2     1  UNL1       -0.2264
     35 H          -1.2944    0.2808   20.6533 H       1  UNL1        0.1527
     36 O          -2.0361    2.8213   21.4992 O.3     1  UNL1       -0.4291
     37 C          -2.0975    3.9204   22.5181 C.3     1  UNL1        0.2447
     38 C          -2.9606    3.7673   23.7353 C.ar    1  UNL1        0.0714
     39 C          -4.4429    3.5378   23.7419 C.ar    1  UNL1        0.1053
     40 N          -4.8914    3.4456   25.1703 N.ar    1  UNL1       -0.2350
     41 C          -3.6862    3.6181   26.0466 C.ar    1  UNL1        0.1343
     42 S          -2.4930    3.8169   25.1597 S.2     1  UNL1       -0.0652
     43 C           1.1614    0.6128   18.6441 C.3     1  UNL1        0.0460
     44 C           2.6052    0.6756   18.2418 C.ar    1  UNL1       -0.0205
     45 C           3.2348   -0.4815   17.5244 C.ar    1  UNL1       -0.0042
     46 C           4.6785   -0.4187   17.1221 C.ar    1  UNL1       -0.0003
     47 C           5.4925    0.8012   17.4372 C.ar    1  UNL1       -0.0000
     48 C           4.8628    1.9582   18.1546 C.ar    1  UNL1       -0.0003
     49 C           3.4192    1.8954   18.5569 C.ar    1  UNL1       -0.0042
     50 C           4.9137    0.0217   21.3314 C.3     1  UNL1        0.0459
     51 C           5.0586   -1.3172   20.6709 C.ar    1  UNL1       -0.0205
     52 C           6.4042   -1.7757   20.1922 C.ar    1  UNL1       -0.0042
     53 C           6.5492   -3.1146   19.5317 C.ar    1  UNL1       -0.0003
     54 C           5.3485   -3.9951   19.3499 C.ar    1  UNL1       -0.0000
     55 C           4.0028   -3.5367   19.8286 C.ar    1  UNL1       -0.0003
     56 C           3.8579   -2.1978   20.4891 C.ar    1  UNL1       -0.0042
@<TRIPOS>BOND
     1    19    20    1
     2    20    21    1
     3    20    14    1
     4    14    15   ar
     5    15    16   ar
     6    16    13    1
     7    13     7    1
     8     7     8    1
     9     7     9   am
    10     9    10    2
    11     9    11   am
    12    11     6    1
    13     6    22    1
    14    22    23    1
    15    23    24   ar
    16    24    25   ar
    17    25    26    1
    18    25    27   ar
    19    27    28   ar
    20     6     2    1
    21     2     3    2
    22     2     4   am
    23     4     1    1
    24     1    29    1
    25    29    30    1
    26    31    30    1
    27    31    43    1
    28    43    44    1
    29    44    45   ar
    30    45    46   ar
    31    46    47   ar
    32    47    48   ar
    33    48    49   ar
    34    31    32    1
    35    32    33   am
    36    33    34    2
    37    33    36    1
    38    36    37    1
    39    37    38    1
    40    38    39   ar
    41    39    40   ar
    42    40    41   ar
    43    41    42   ar
    44     1    50    1
    45    50    51    1
    46    51    52   ar
    47    52    53   ar
    48    53    54   ar
    49    54    55   ar
    50    55    56   ar
    51    16    17   ar
    52    17    18   ar
    53    18    14   ar
    54    28    23   ar
    55    49    44   ar
    56    42    38   ar
    57    56    51   ar
    58    11    12    1
    59     4     5    1
    60    32    35    1
@<TRIPOS>MOLECULE
*****
 56 60 0 0 0
SMALL
GASTEIGER

@<TRIPOS>ATOM
      1 C           4.5906   -2.3322   23.5422 C.3     1  UNL1        0.0760
      2 C           6.4344   -2.8068   25.3100 C.2     1  UNL1        0.2407
      3 O           7.4523   -2.9300   24.2153 O.2     1  UNL1       -0.2733
      4 N           5.0035   -2.5079   24.9735 N.am    1  UNL1       -0.3043
      5 H           4.3353   -2.4270   25.6920 H       1  UNL1        0.1494
      6 C           6.8473   -2.9824   26.7414 C.3     1  UNL1        0.1557
      7 N           5.7663   -0.2205   29.3783 N.am    1  UNL1       -0.2567
      8 C           6.1979    1.1415   29.8352 C.3     1  UNL1        0.1168
      9 C           6.5226   -0.9204   28.2883 C.2     1  UNL1        0.3046
     10 O           7.7105   -0.2585   27.6552 O.2     1  UNL1       -0.2526
     11 N           6.0910   -2.2824   27.8314 N.am    1  UNL1       -0.2821
     12 H           5.3113   -2.7168   28.2469 H       1  UNL1        0.1514
     13 C           4.5785   -0.8825   30.0113 C.3     1  UNL1        0.1413
     14 C           0.9791    0.3065   29.1767 C.ar    1  UNL1        0.0875
     15 N           2.1667   -0.5677   28.9024 N.ar    1  UNL1       -0.2453
     16 C           3.2245   -0.2439   29.9155 C.ar    1  UNL1        0.0858
     17 C           2.6906    0.8304   30.8159 C.ar    1  UNL1        0.0530
     18 S           1.3029    1.1706   30.3593 S.2     1  UNL1       -0.0705
     19 C          -1.4963   -0.4391   28.9193 C.3     1  UNL1        0.0069
     20 C          -0.3066    0.3152   28.4040 C.3     1  UNL1        0.0465
     21 C          -0.4024    1.0781   27.1161 C.3     1  UNL1        0.0069
     22 C           8.0163   -3.8580   27.0827 C.3     1  UNL1        0.0764
     23 C           7.9229   -5.3427   26.8902 C.ar    1  UNL1        0.0800
     24 C           8.5007   -6.3876   27.7980 C.ar    1  UNL1        0.0921
     25 N           8.1702   -7.7338   27.2249 N.ar    1  UNL1       -0.3061
     26 C           8.5543   -9.0600   27.8110 C.3     1  UNL1        0.1321
     27 C           7.3879   -7.5209   25.9629 C.ar    1  UNL1        0.1783
     28 N           7.2351   -6.0431   25.7560 N.ar    1  UNL1       -0.2282
     29 C           4.2340   -0.9697   23.0262 C.3     1  UNL1        0.0216
     30 C           2.7984   -0.6147   22.7754 C.3     1  UNL1        0.0217
     31 C           2.4074    0.0731   21.5010 C.3     1  UNL1        0.0792
     32 N           1.9124    1.4886   21.5341 N.am    1  UNL1       -0.2720
     33 C           0.5117    1.8037   21.0992 C.2     1  UNL1        0.4019
     34 O          -0.3938    0.7032   20.6313 O.2     1  UNL1       -0.2264
     35 H           2.5067    2.2109   21.8412 H       1  UNL1        0.1527
     36 O           0.0167    3.2193   21.1323 O.3     1  UNL1       -0.4291
     37 C          -0.6673    3.8028   19.9317 C.3     1  UNL1        0.2447
     38 C          -2.1602    3.7255   19.8077 C.ar    1  UNL1        0.0714
     39 C          -3.1107    3.2641   20.8724 C.ar    1  UNL1        0.1053
     40 N          -4.5026    3.3495   20.3199 N.ar    1  UNL1       -0.2350
     41 C          -4.4124    3.8637   18.9137 C.ar    1  UNL1        0.1343
     42 S          -2.9647    4.0961   18.5971 S.2     1  UNL1       -0.0652
     43 C           2.5115   -0.6547   20.1935 C.3     1  UNL1        0.0460
     44 C           3.5672   -0.2665   19.2010 C.ar    1  UNL1       -0.0205
     45 C           3.4080   -0.6324   17.7551 C.ar    1  UNL1       -0.0042
     46 C           4.4636   -0.2442   16.7627 C.ar    1  UNL1       -0.0003
     47 C           5.6784    0.5098   17.2161 C.ar    1  UNL1       -0.0000
     48 C           5.8376    0.8757   18.6621 C.ar    1  UNL1       -0.0003
     49 C           4.7820    0.4875   19.6545 C.ar    1  UNL1       -0.0042
     50 C           4.5343   -3.5193   22.6268 C.3     1  UNL1        0.0459
     51 C           5.0073   -3.3958   21.2087 C.ar    1  UNL1       -0.0205
     52 C           4.1730   -3.9444   20.0893 C.ar    1  UNL1       -0.0042
     53 C           4.6460   -3.8210   18.6712 C.ar    1  UNL1       -0.0003
     54 C           5.9533   -3.1490   18.3724 C.ar    1  UNL1       -0.0000
     55 C           6.7877   -2.6004   19.4918 C.ar    1  UNL1       -0.0003
     56 C           6.3147   -2.7238   20.9099 C.ar    1  UNL1       -0.0042
@<TRIPOS>BOND
     1    19    20    1
     2    20    21    1
     3    20    14    1
     4    14    15   ar
     5    15    16   ar
     6    16    13    1
     7    13     7    1
     8     7     8    1
     9     7     9   am
    10     9    10    2
    11     9    11   am
    12    11     6    1
    13     6    22    1
    14    22    23    1
    15    23    24   ar
    16    24    25   ar
    17    25    26    1
    18    25    27   ar
    19    27    28   ar
    20     6     2    1
    21     2     3    2
    22     2     4   am
    23     4     1    1
    24     1    29    1
    25    29    30    1
    26    31    30    1
    27    31    43    1
    28    43    44    1
    29    44    45   ar
    30    45    46   ar
    31    46    47   ar
    32    47    48   ar
    33    48    49   ar
    34    31    32    1
    35    32    33   am
    36    33    34    2
    37    33    36    1
    38    36    37    1
    39    37    38    1
    40    38    39   ar
    41    39    40   ar
    42    40    41   ar
    43    41    42   ar
    44     1    50    1
    45    50    51    1
    46    51    52   ar
    47    52    53   ar
    48    53    54   ar
    49    54    55   ar
    50    55    56   ar
    51    16    17   ar
    52    17    18   ar
    53    18    14   ar
    54    28    23   ar
    55    49    44   ar
    56    42    38   ar
    57    56    51   ar
    58    11    12    1
    59     4     5    1
    60    32    35    1
@<TRIPOS>MOLECULE
*****
 56 60 0 0 0
SMALL
GASTEIGER

@<TRIPOS>ATOM
      1 C           2.4182   -0.2574   21.9634 C.3     1  UNL1        0.0760
      2 C           0.4171    1.3340   21.5019 C.2     1  UNL1        0.2407
      3 O          -0.2549    0.2573   20.7026 O.2     1  UNL1       -0.2733
      4 N           1.7537    1.0767   22.1323 N.am    1  UNL1       -0.3043
      5 H           2.1948    1.7834   22.6569 H       1  UNL1        0.1494
      6 C          -0.2474    2.6682   21.6708 C.3     1  UNL1        0.1557
      7 N          -3.7307    3.4212   19.9247 N.am    1  UNL1       -0.2567
      8 C          -4.2569    3.9067   18.6065 C.3     1  UNL1        0.1168
      9 C          -2.2521    3.2874   20.1386 C.2     1  UNL1        0.3046
     10 O          -1.2997    3.6390   19.0345 O.2     1  UNL1       -0.2526
     11 N          -1.7260    2.8020   21.4568 N.am    1  UNL1       -0.2821
     12 H          -2.3512    2.5713   22.1815 H       1  UNL1        0.1514
     13 C          -4.6832    3.0697   21.0289 C.3     1  UNL1        0.1413
     14 C          -4.8585    4.7236   24.5360 C.ar    1  UNL1        0.0875
     15 N          -4.6894    3.5143   23.6647 N.ar    1  UNL1       -0.2453
     16 C          -4.7933    3.9552   22.2347 C.ar    1  UNL1        0.0858
     17 C          -5.0266    5.4368   22.2222 C.ar    1  UNL1        0.0530
     18 S          -5.0669    5.9118   23.6444 S.2     1  UNL1       -0.0705
     19 C          -3.8177    3.9102   26.7732 C.3     1  UNL1        0.0069
     20 C          -4.8251    4.7415   26.0355 C.3     1  UNL1        0.0465
     21 C          -5.7990    5.5907   26.7972 C.3     1  UNL1        0.0069
     22 C           0.5667    3.8684   22.0537 C.3     1  UNL1        0.0764
     23 C           0.1327    4.7348   23.1987 C.ar    1  UNL1        0.0800
     24 C           1.0221    5.2874   24.2728 C.ar    1  UNL1        0.0921
     25 N           0.1721    6.0949   25.2085 N.ar    1  UNL1       -0.3061
     26 C           0.6526    6.8273   26.4262 C.3     1  UNL1        0.1321
     27 C          -1.2425    6.0413   24.7128 C.ar    1  UNL1        0.1783
     28 N          -1.2669    5.2008   23.4706 N.ar    1  UNL1       -0.2282
     29 C           3.0351   -0.9432   23.1462 C.3     1  UNL1        0.0216
     30 C           4.5040   -0.8001   23.4142 C.3     1  UNL1        0.0217
     31 C           5.3878   -2.0121   23.4152 C.3     1  UNL1        0.0792
     32 N           5.4105   -2.9227   24.6069 N.am    1  UNL1       -0.2720
     33 C           6.3190   -2.6233   25.7624 C.2     1  UNL1        0.4019
     34 O           7.2047   -1.4133   25.7262 O.2     1  UNL1       -0.2264
     35 H           4.8292   -3.7169   24.6307 H       1  UNL1        0.1527
     36 O           6.3417   -3.5339   26.9542 O.3     1  UNL1       -0.4291
     37 C           6.2426   -2.9619   28.3372 C.3     1  UNL1        0.2447
     38 C           6.5382   -3.8241   29.5285 C.ar    1  UNL1        0.0714
     39 C           6.5597   -3.3740   30.9592 C.ar    1  UNL1        0.1053
     40 N           6.8989   -4.5596   31.8131 N.ar    1  UNL1       -0.2350
     41 C           7.0871   -5.7425   30.9102 C.ar    1  UNL1        0.1343
     42 S           6.8641   -5.2880   29.4982 S.2     1  UNL1       -0.0652
     43 C           6.2489   -2.3134   22.2245 C.3     1  UNL1        0.0460
     44 C           5.6595   -2.9973   21.0265 C.ar    1  UNL1       -0.0205
     45 C           4.4559   -3.8787   21.1827 C.ar    1  UNL1       -0.0042
     46 C           3.8667   -4.5625   19.9847 C.ar    1  UNL1       -0.0003
     47 C           4.4809   -4.3648   18.6306 C.ar    1  UNL1       -0.0000
     48 C           5.6845   -3.4833   18.4745 C.ar    1  UNL1       -0.0003
     49 C           6.2738   -2.7996   19.6724 C.ar    1  UNL1       -0.0042
     50 C           2.4658   -0.9058   20.6116 C.3     1  UNL1        0.0459
     51 C           3.4531   -0.4315   19.5867 C.ar    1  UNL1       -0.0205
     52 C           3.2913   -0.8288   18.1493 C.ar    1  UNL1       -0.0042
     53 C           4.2785   -0.3546   17.1244 C.ar    1  UNL1       -0.0003
     54 C           5.4275    0.5170   17.5368 C.ar    1  UNL1       -0.0000
     55 C           5.5893    0.9144   18.9742 C.ar    1  UNL1       -0.0003
     56 C           4.6021    0.4401   19.9991 C.ar    1  UNL1       -0.0042
@<TRIPOS>BOND
     1    19    20    1
     2    20    21    1
     3    20    14    1
     4    14    15   ar
     5    15    16   ar
     6    16    13    1
     7    13     7    1
     8     7     8    1
     9     7     9   am
    10     9    10    2
    11     9    11   am
    12    11     6    1
    13     6    22    1
    14    22    23    1
    15    23    24   ar
    16    24    25   ar
    17    25    26    1
    18    25    27   ar
    19    27    28   ar
    20     6     2    1
    21     2     3    2
    22     2     4   am
    23     4     1    1
    24     1    29    1
    25    29    30    1
    26    31    30    1
    27    31    43    1
    28    43    44    1
    29    44    45   ar
    30    45    46   ar
    31    46    47   ar
    32    47    48   ar
    33    48    49   ar
    34    31    32    1
    35    32    33   am
    36    33    34    2
    37    33    36    1
    38    36    37    1
    39    37    38    1
    40    38    39   ar
    41    39    40   ar
    42    40    41   ar
    43    41    42   ar
    44     1    50    1
    45    50    51    1
    46    51    52   ar
    47    52    53   ar
    48    53    54   ar
    49    54    55   ar
    50    55    56   ar
    51    16    17   ar
    52    17    18   ar
    53    18    14   ar
    54    28    23   ar
    55    49    44   ar
    56    42    38   ar
    57    56    51   ar
    58    11    12    1
    59     4     5    1
    60    32    35    1
@<TRIPOS>MOLECULE
*****
 56 60 0 0 0
SMALL
GASTEIGER

@<TRIPOS>ATOM
      1 C           3.5442   -0.3780   24.6567 C.3     1  UNL1        0.0760
      2 C           3.1088    0.2427   27.1417 C.2     1  UNL1        0.2407
      3 O           3.3848    1.6838   26.8301 O.2     1  UNL1       -0.2733
      4 N           3.1885   -0.7882   26.0550 N.am    1  UNL1       -0.3043
      5 H           3.0074   -1.7340   26.2595 H       1  UNL1        0.1494
      6 C           2.7531   -0.1675   28.5400 C.3     1  UNL1        0.1557
      7 N           5.8461   -0.7118   30.9663 N.am    1  UNL1       -0.2567
      8 C           6.8980    0.1002   31.6623 C.3     1  UNL1        0.1168
      9 C           4.8255   -0.0336   30.1011 C.2     1  UNL1        0.3046
     10 O           4.8568    1.4564   29.9319 O.2     1  UNL1       -0.2526
     11 N           3.7737   -0.8456   29.4052 N.am    1  UNL1       -0.2821
     12 H           3.7532   -1.8236   29.5163 H       1  UNL1        0.1514
     13 C           5.8148   -2.2019   31.1356 C.3     1  UNL1        0.1413
     14 C           7.1586   -4.0110   27.9754 C.ar    1  UNL1        0.0875
     15 N           6.3858   -2.8980   28.6187 N.ar    1  UNL1       -0.2453
     16 C           6.4510   -3.0872   30.1053 C.ar    1  UNL1        0.0858
     17 C           7.2641   -4.3173   30.3808 C.ar    1  UNL1        0.0530
     18 S           7.7015   -4.8882   29.0644 S.2     1  UNL1       -0.0705
     19 C           7.9005   -3.0974   25.6591 C.3     1  UNL1        0.0069
     20 C           7.3543   -4.2117   26.5018 C.3     1  UNL1        0.0465
     21 C           7.0037   -5.5266   25.8709 C.3     1  UNL1        0.0069
     22 C           1.3769    0.1004   29.0730 C.3     1  UNL1        0.0764
     23 C           1.1173    1.3265   29.8973 C.ar    1  UNL1        0.0800
     24 C           0.9038    2.7144   29.3700 C.ar    1  UNL1        0.0921
     25 N           0.6802    3.6256   30.5404 N.ar    1  UNL1       -0.3061
     26 C           0.4260    5.1023   30.4721 C.3     1  UNL1        0.1321
     27 C           0.7556    2.8008   31.7910 C.ar    1  UNL1        0.1783
     28 N           1.0257    1.3799   31.3935 N.ar    1  UNL1       -0.2282
     29 C           2.4647    0.0198   23.6942 C.3     1  UNL1        0.0216
     30 C           2.7986    0.8627   22.4993 C.3     1  UNL1        0.0217
     31 C           2.4132    0.4017   21.1248 C.3     1  UNL1        0.0792
     32 N           1.9197    1.3923   20.1124 N.am    1  UNL1       -0.2720
     33 C           0.4524    1.4974   19.8192 C.2     1  UNL1        0.4019
     34 O          -0.5215    0.6119   20.5385 O.2     1  UNL1       -0.2264
     35 H           2.5589    1.9736   19.6403 H       1  UNL1        0.1527
     36 O          -0.0411    2.4881   18.8068 O.3     1  UNL1       -0.4291
     37 C          -0.7003    3.7573   19.2588 C.3     1  UNL1        0.2447
     38 C          -1.9357    3.6997   20.1076 C.ar    1  UNL1        0.0714
     39 C          -1.9744    3.6556   21.6065 C.ar    1  UNL1        0.1053
     40 N          -3.4119    3.6047   22.0319 N.ar    1  UNL1       -0.2350
     41 C          -4.2617    3.6173   20.7959 C.ar    1  UNL1        0.1343
     42 S          -3.3494    3.6760   19.6067 S.2     1  UNL1       -0.0652
     43 C           2.5212   -1.0500   20.7630 C.3     1  UNL1        0.0460
     44 C           3.6969   -1.5400   19.9706 C.ar    1  UNL1       -0.0205
     45 C           3.7037   -2.9371   19.4248 C.ar    1  UNL1       -0.0042
     46 C           4.8794   -3.4270   18.6325 C.ar    1  UNL1       -0.0003
     47 C           6.0483   -2.5198   18.3861 C.ar    1  UNL1       -0.0000
     48 C           6.0415   -1.1227   18.9320 C.ar    1  UNL1       -0.0003
     49 C           4.8658   -0.6328   19.7243 C.ar    1  UNL1       -0.0042
     50 C           4.9795   -0.3655   24.2209 C.3     1  UNL1        0.0459
     51 C           5.5354   -1.5175   23.4374 C.ar    1  UNL1       -0.0205
     52 C           4.7730   -2.8067   23.3562 C.ar    1  UNL1       -0.0042
     53 C           5.3289   -3.9588   22.5727 C.ar    1  UNL1       -0.0003
     54 C           6.6472   -3.8216   21.8705 C.ar    1  UNL1       -0.0000
     55 C           7.4097   -2.5323   21.9517 C.ar    1  UNL1       -0.0003
     56 C           6.8538   -1.3803   22.7352 C.ar    1  UNL1       -0.0042
@<TRIPOS>BOND
     1    19    20    1
     2    20    21    1
     3    20    14    1
     4    14    15   ar
     5    15    16   ar
     6    16    13    1
     7    13     7    1
     8     7     8    1
     9     7     9   am
    10     9    10    2
    11     9    11   am
    12    11     6    1
    13     6    22    1
    14    22    23    1
    15    23    24   ar
    16    24    25   ar
    17    25    26    1
    18    25    27   ar
    19    27    28   ar
    20     6     2    1
    21     2     3    2
    22     2     4   am
    23     4     1    1
    24     1    29    1
    25    29    30    1
    26    31    30    1
    27    31    43    1
    28    43    44    1
    29    44    45   ar
    30    45    46   ar
    31    46    47   ar
    32    47    48   ar
    33    48    49   ar
    34    31    32    1
    35    32    33   am
    36    33    34    2
    37    33    36    1
    38    36    37    1
    39    37    38    1
    40    38    39   ar
    41    39    40   ar
    42    40    41   ar
    43    41    42   ar
    44     1    50    1
    45    50    51    1
    46    51    52   ar
    47    52    53   ar
    48    53    54   ar
    49    54    55   ar
    50    55    56   ar
    51    16    17   ar
    52    17    18   ar
    53    18    14   ar
    54    28    23   ar
    55    49    44   ar
    56    42    38   ar
    57    56    51   ar
    58    11    12    1
    59     4     5    1
    60    32    35    1
@<TRIPOS>MOLECULE
*****
 56 60 0 0 0
SMALL
GASTEIGER

@<TRIPOS>ATOM
      1 C           3.4340    0.0051   22.4056 C.3     1  UNL1        0.0760
      2 C           4.1815   -1.1871   24.5896 C.2     1  UNL1        0.2407
      3 O           4.0225   -2.5185   23.9173 O.2     1  UNL1       -0.2733
      4 N           3.8872    0.0748   23.8337 N.am    1  UNL1       -0.3043
      5 H           3.9916    0.9486   24.2750 H       1  UNL1        0.1494
      6 C           4.6348   -1.1174   26.0178 C.3     1  UNL1        0.1557
      7 N           2.2515    1.1955   28.1904 N.am    1  UNL1       -0.2567
      8 C           1.7757    2.6177   28.2258 C.3     1  UNL1        0.1168
      9 C           3.2052    0.7501   27.1218 C.2     1  UNL1        0.3046
     10 O           3.6831    1.7268   26.0885 O.2     1  UNL1       -0.2526
     11 N           3.6810   -0.6719   27.0865 N.am    1  UNL1       -0.2821
     12 H           3.3673   -1.3129   27.7647 H       1  UNL1        0.1514
     13 C           1.7736    0.2189   29.2238 C.3     1  UNL1        0.1413
     14 C           3.5528   -0.4906   32.5997 C.ar    1  UNL1        0.0875
     15 N           3.1136   -0.9263   31.2333 N.ar    1  UNL1       -0.2453
     16 C           2.3842    0.2179   30.5939 C.ar    1  UNL1        0.0858
     17 C           2.3726    1.3608   31.5652 C.ar    1  UNL1        0.0530
     18 S           3.0948    0.9230   32.8049 S.2     1  UNL1       -0.0705
     19 C           4.9906   -0.6676   34.7564 C.3     1  UNL1        0.0069
     20 C           4.3160   -1.3222   33.5875 C.3     1  UNL1        0.0465
     21 C           4.4045   -2.8086   33.4065 C.3     1  UNL1        0.0069
     22 C           6.0417   -1.4932   26.3773 C.3     1  UNL1        0.0764
     23 C           6.3406   -2.8666   26.9012 C.ar    1  UNL1        0.0800
     24 C           6.3495   -3.2774   28.3438 C.ar    1  UNL1        0.0921
     25 N           6.6975   -4.7350   28.4086 N.ar    1  UNL1       -0.3061
     26 C           6.8181   -5.5580   29.6569 C.3     1  UNL1        0.1321
     27 C           6.9037   -5.2251   27.0060 C.ar    1  UNL1        0.1783
     28 N           6.6832   -4.0703   26.0744 N.ar    1  UNL1       -0.2282
     29 C           1.9703   -0.0694   22.0860 C.3     1  UNL1        0.0216
     30 C           1.5214   -0.5156   20.7261 C.3     1  UNL1        0.0217
     31 C           0.7106    0.4062   19.8641 C.3     1  UNL1        0.0792
     32 N          -0.5574    1.0072   20.3942 N.am    1  UNL1       -0.2720
     33 C          -0.5505    2.3981   20.9560 C.2     1  UNL1        0.4019
     34 O           0.7243    3.1878   20.9876 O.2     1  UNL1       -0.2264
     35 H          -1.3941    0.4888   20.3734 H       1  UNL1        0.1527
     36 O          -1.8184    2.9991   21.4861 O.3     1  UNL1       -0.4291
     37 C          -2.4633    4.1458   20.7657 C.3     1  UNL1        0.2447
     38 C          -3.6182    3.8968   19.8415 C.ar    1  UNL1        0.0714
     39 C          -3.5951    4.0251   18.3471 C.ar    1  UNL1        0.1053
     40 N          -4.9615    3.6834   17.8313 N.ar    1  UNL1       -0.2350
     41 C          -5.8291    3.3439   19.0069 C.ar    1  UNL1        0.1343
     42 S          -4.9989    3.4758   20.2492 S.2     1  UNL1       -0.0652
     43 C           1.1678    0.7269   18.4719 C.3     1  UNL1        0.0460
     44 C           2.6324    0.7403   18.1479 C.ar    1  UNL1       -0.0205
     45 C           3.2709   -0.4591   17.5125 C.ar    1  UNL1       -0.0042
     46 C           4.7354   -0.4457   17.1885 C.ar    1  UNL1       -0.0003
     47 C           5.5614    0.7671   17.4999 C.ar    1  UNL1       -0.0000
     48 C           4.9229    1.9665   18.1353 C.ar    1  UNL1       -0.0003
     49 C           3.4584    1.9530   18.4593 C.ar    1  UNL1       -0.0042
     50 C           4.4444    0.0099   21.2969 C.3     1  UNL1        0.0459
     51 C           5.0076   -1.2845   20.7898 C.ar    1  UNL1       -0.0205
     52 C           6.4785   -1.4097   20.5242 C.ar    1  UNL1       -0.0042
     53 C           7.0416   -2.7041   20.0170 C.ar    1  UNL1       -0.0003
     54 C           6.1338   -3.8735   19.7755 C.ar    1  UNL1       -0.0000
     55 C           4.6628   -3.7484   20.0411 C.ar    1  UNL1       -0.0003
     56 C           4.0996   -2.4539   20.5482 C.ar    1  UNL1       -0.0042
@<TRIPOS>BOND
     1    19    20    1
     2    20    21    1
     3    20    14    1
     4    14    15   ar
     5    15    16   ar
     6    16    13    1
     7    13     7    1
     8     7     8    1
     9     7     9   am
    10     9    10    2
    11     9    11   am
    12    11     6    1
    13     6    22    1
    14    22    23    1
    15    23    24   ar
    16    24    25   ar
    17    25    26    1
    18    25    27   ar
    19    27    28   ar
    20     6     2    1
    21     2     3    2
    22     2     4   am
    23     4     1    1
    24     1    29    1
    25    29    30    1
    26    31    30    1
    27    31    43    1
    28    43    44    1
    29    44    45   ar
    30    45    46   ar
    31    46    47   ar
    32    47    48   ar
    33    48    49   ar
    34    31    32    1
    35    32    33   am
    36    33    34    2
    37    33    36    1
    38    36    37    1
    39    37    38    1
    40    38    39   ar
    41    39    40   ar
    42    40    41   ar
    43    41    42   ar
    44     1    50    1
    45    50    51    1
    46    51    52   ar
    47    52    53   ar
    48    53    54   ar
    49    54    55   ar
    50    55    56   ar
    51    16    17   ar
    52    17    18   ar
    53    18    14   ar
    54    28    23   ar
    55    49    44   ar
    56    42    38   ar
    57    56    51   ar
    58    11    12    1
    59     4     5    1
    60    32    35    1
@<TRIPOS>MOLECULE
*****
 56 60 0 0 0
SMALL
GASTEIGER

@<TRIPOS>ATOM
      1 C           2.4458   -0.1480   21.6356 C.3     1  UNL1        0.0760
      2 C           0.4258    1.3882   21.0788 C.2     1  UNL1        0.2407
      3 O          -0.3178    0.2095   20.5241 O.2     1  UNL1       -0.2733
      4 N           1.8076    1.2095   21.6345 N.am    1  UNL1       -0.3043
      5 H           2.2956    1.9832   21.9986 H       1  UNL1        0.1494
      6 C          -0.2124    2.7457   21.0778 C.3     1  UNL1        0.1557
      7 N          -3.9868    3.4543   20.0768 N.am    1  UNL1       -0.2567
      8 C          -4.7781    3.9078   18.8860 C.3     1  UNL1        0.1168
      9 C          -2.4953    3.3267   19.9819 C.2     1  UNL1        0.3046
     10 O          -1.7950    3.6527   18.6960 O.2     1  UNL1       -0.2526
     11 N          -1.7040    2.8732   21.1727 N.am    1  UNL1       -0.2821
     12 H          -2.1636    2.6593   22.0166 H       1  UNL1        0.1514
     13 C          -4.6870    3.1283   21.3627 C.3     1  UNL1        0.1413
     14 C          -5.4213    5.3074   24.4897 C.ar    1  UNL1        0.0875
     15 N          -5.4227    3.9825   23.7864 N.ar    1  UNL1       -0.2453
     16 C          -4.8666    4.1885   22.4086 C.ar    1  UNL1        0.0858
     17 C          -4.5214    5.6407   22.2604 C.ar    1  UNL1        0.0530
     18 S          -4.8643    6.3322   23.5465 S.2     1  UNL1       -0.0705
     19 C          -5.0472    5.1442   27.0555 C.3     1  UNL1        0.0069
     20 C          -5.8940    5.5627   25.8902 C.3     1  UNL1        0.0465
     21 C          -7.2133    6.2365   26.1254 C.3     1  UNL1        0.0069
     22 C           0.6409    3.9755   20.9818 C.3     1  UNL1        0.0764
     23 C           1.5834    4.1463   19.8274 C.ar    1  UNL1        0.0800
     24 C           1.4075    5.0942   18.6783 C.ar    1  UNL1        0.0921
     25 N           2.5826    4.9329   17.7602 N.ar    1  UNL1       -0.3061
     26 C           2.8147    5.6869   16.4844 C.3     1  UNL1        0.1321
     27 C           3.4848    3.8851   18.3418 C.ar    1  UNL1        0.1783
     28 N           2.8672    3.3990   19.6194 N.ar    1  UNL1       -0.2282
     29 C           2.9420   -0.7424   22.9202 C.3     1  UNL1        0.0216
     30 C           4.4146   -0.9154   23.1469 C.3     1  UNL1        0.0217
     31 C           4.9291   -2.1507   23.8247 C.3     1  UNL1        0.0792
     32 N           4.6194   -2.3965   25.2717 N.am    1  UNL1       -0.2720
     33 C           5.4401   -1.7328   26.3376 C.2     1  UNL1        0.4019
     34 O           6.5704   -0.8233   25.9565 O.2     1  UNL1       -0.2264
     35 H           3.8776   -2.9934   25.5218 H       1  UNL1        0.1527
     36 O           5.1304   -1.9785   27.7845 O.3     1  UNL1       -0.4291
     37 C           6.2447   -2.0774   28.7837 C.3     1  UNL1        0.2447
     38 C           6.5227   -3.3816   29.4707 C.ar    1  UNL1        0.0714
     39 C           6.5475   -4.7330   28.8202 C.ar    1  UNL1        0.1053
     40 N           6.8647   -5.7500   29.8762 N.ar    1  UNL1       -0.2350
     41 C           7.0359   -5.0271   31.1793 C.ar    1  UNL1        0.1343
     42 S           6.8245   -3.5634   30.9287 S.2     1  UNL1       -0.0652
     43 C           5.7533   -3.1402   23.0556 C.3     1  UNL1        0.0460
     44 C           5.4580   -3.3975   21.6075 C.ar    1  UNL1       -0.0205
     45 C           6.3991   -2.9006   20.5504 C.ar    1  UNL1       -0.0042
     46 C           6.1038   -3.1579   19.1025 C.ar    1  UNL1       -0.0003
     47 C           4.8675   -3.9121   18.7117 C.ar    1  UNL1       -0.0000
     48 C           3.9265   -4.4090   19.7688 C.ar    1  UNL1       -0.0003
     49 C           4.2218   -4.1517   21.2167 C.ar    1  UNL1       -0.0042
     50 C           2.5877   -0.9110   20.3519 C.3     1  UNL1        0.0459
     51 C           3.6004   -0.4814   19.3321 C.ar    1  UNL1       -0.0205
     52 C           4.8082    0.2997   19.7574 C.ar    1  UNL1       -0.0042
     53 C           5.8209    0.7293   18.7377 C.ar    1  UNL1       -0.0003
     54 C           5.6257    0.3778   17.2926 C.ar    1  UNL1       -0.0000
     55 C           4.4178   -0.4034   16.8672 C.ar    1  UNL1       -0.0003
     56 C           3.4052   -0.8330   17.8870 C.ar    1  UNL1       -0.0042
@<TRIPOS>BOND
     1    19    20    1
     2    20    21    1
     3    20    14    1
     4    14    15   ar
     5    15    16   ar
     6    16    13    1
     7    13     7    1
     8     7     8    1
     9     7     9   am
    10     9    10    2
    11     9    11   am
    12    11     6    1
    13     6    22    1
    14    22    23    1
    15    23    24   ar
    16    24    25   ar
    17    25    26    1
    18    25    27   ar
    19    27    28   ar
    20     6     2    1
    21     2     3    2
    22     2     4   am
    23     4     1    1
    24     1    29    1
    25    29    30    1
    26    31    30    1
    27    31    43    1
    28    43    44    1
    29    44    45   ar
    30    45    46   ar
    31    46    47   ar
    32    47    48   ar
    33    48    49   ar
    34    31    32    1
    35    32    33   am
    36    33    34    2
    37    33    36    1
    38    36    37    1
    39    37    38    1
    40    38    39   ar
    41    39    40   ar
    42    40    41   ar
    43    41    42   ar
    44     1    50    1
    45    50    51    1
    46    51    52   ar
    47    52    53   ar
    48    53    54   ar
    49    54    55   ar
    50    55    56   ar
    51    16    17   ar
    52    17    18   ar
    53    18    14   ar
    54    28    23   ar
    55    49    44   ar
    56    42    38   ar
    57    56    51   ar
    58    11    12    1
    59     4     5    1
    60    32    35    1
@<TRIPOS>MOLECULE
*****
 56 60 0 0 0
SMALL
GASTEIGER

@<TRIPOS>ATOM
      1 C           4.1494   -2.0001   24.0293 C.3     1  UNL1        0.0760
      2 C           5.6667   -1.4343   26.0611 C.2     1  UNL1        0.2407
      3 O           6.1027   -0.1693   25.3832 O.2     1  UNL1       -0.2733
      4 N           4.6900   -2.3497   25.3841 N.am    1  UNL1       -0.3043
      5 H           4.4038   -3.1800   25.8290 H       1  UNL1        0.1494
      6 C           6.2072   -1.7840   27.4159 C.3     1  UNL1        0.1557
      7 N           5.3242   -0.0115   30.8551 N.am    1  UNL1       -0.2567
      8 C           5.9415    0.9509   31.8261 C.3     1  UNL1        0.1168
      9 C           6.0743   -0.4165   29.6210 C.2     1  UNL1        0.3046
     10 O           7.4418    0.1409   29.3577 O.2     1  UNL1       -0.2526
     11 N           5.4570   -1.3790   28.6501 N.am    1  UNL1       -0.2821
     12 H           4.5595   -1.7448   28.8229 H       1  UNL1        0.1514
     13 C           3.9567   -0.5689   31.1184 C.3     1  UNL1        0.1413
     14 C           0.6515    0.6608   29.4969 C.ar    1  UNL1        0.0875
     15 N           1.6697   -0.4127   29.7433 N.ar    1  UNL1       -0.2453
     16 C           2.7421    0.1587   30.6230 C.ar    1  UNL1        0.0858
     17 C           2.3865    1.5853   30.9202 C.ar    1  UNL1        0.0530
     18 S           1.0945    1.8956   30.2243 S.2     1  UNL1       -0.0705
     19 C          -1.5397   -0.6110   28.9212 C.3     1  UNL1        0.0069
     20 C          -0.5915    0.5236   28.6686 C.3     1  UNL1        0.0465
     21 C          -0.8863    1.5209   27.5877 C.3     1  UNL1        0.0069
     22 C           7.4979   -2.5387   27.5365 C.3     1  UNL1        0.0764
     23 C           7.5384   -3.8413   28.2792 C.ar    1  UNL1        0.0800
     24 C           8.5329   -4.9447   28.0705 C.ar    1  UNL1        0.0921
     25 N           8.2007   -6.0545   29.0234 N.ar    1  UNL1       -0.3061
     26 C           8.9388   -7.3537   29.1554 C.3     1  UNL1        0.1321
     27 C           7.0009   -5.6371   29.8210 C.ar    1  UNL1        0.1783
     28 N           6.5916   -4.2693   29.3611 N.ar    1  UNL1       -0.2282
     29 C           3.2461   -0.8139   23.8655 C.3     1  UNL1        0.0216
     30 C           3.2826   -0.0127   22.5979 C.3     1  UNL1        0.0217
     31 C           2.0263    0.1938   21.8047 C.3     1  UNL1        0.0792
     32 N           0.9742    1.1416   22.2994 N.am    1  UNL1       -0.2720
     33 C           0.8649    2.5159   21.7081 C.2     1  UNL1        0.4019
     34 O           1.8077    2.9422   20.6221 O.2     1  UNL1       -0.2264
     35 H           0.3555    0.8618   23.0122 H       1  UNL1        0.1527
     36 O          -0.1872    3.4637   22.2029 O.3     1  UNL1       -0.4291
     37 C          -1.1439    4.0940   21.2347 C.3     1  UNL1        0.2447
     38 C          -2.6057    3.7648   21.3029 C.ar    1  UNL1        0.0714
     39 C          -3.4279    3.6571   22.5529 C.ar    1  UNL1        0.1053
     40 N          -4.8323    3.3111   22.1556 N.ar    1  UNL1       -0.2350
     41 C          -4.8782    3.2050   20.6600 C.ar    1  UNL1        0.1343
     42 S          -3.5020    3.4854   20.1331 S.2     1  UNL1       -0.0652
     43 C           1.8221   -0.5475   20.5168 C.3     1  UNL1        0.0460
     44 C           3.0005   -1.1190   19.7854 C.ar    1  UNL1       -0.0205
     45 C           3.1161   -2.6020   19.5921 C.ar    1  UNL1       -0.0042
     46 C           4.2944   -3.1734   18.8607 C.ar    1  UNL1       -0.0003
     47 C           5.3572   -2.2618   18.3226 C.ar    1  UNL1       -0.0000
     48 C           5.2416   -0.7788   18.5159 C.ar    1  UNL1       -0.0003
     49 C           4.0633   -0.2074   19.2473 C.ar    1  UNL1       -0.0042
     50 C           4.5123   -2.8366   22.8382 C.3     1  UNL1        0.0459
     51 C           5.8343   -2.6388   22.1575 C.ar    1  UNL1       -0.0205
     52 C           6.5858   -3.8208   21.6209 C.ar    1  UNL1       -0.0042
     53 C           7.9078   -3.6230   20.9402 C.ar    1  UNL1       -0.0003
     54 C           8.4782   -2.2432   20.7961 C.ar    1  UNL1       -0.0000
     55 C           7.7266   -1.0611   21.3328 C.ar    1  UNL1       -0.0003
     56 C           6.4047   -1.2589   22.0135 C.ar    1  UNL1       -0.0042
@<TRIPOS>BOND
     1    19    20    1
     2    20    21    1
     3    20    14    1
     4    14    15   ar
     5    15    16   ar
     6    16    13    1
     7    13     7    1
     8     7     8    1
     9     7     9   am
    10     9    10    2
    11     9    11   am
    12    11     6    1
    13     6    22    1
    14    22    23    1
    15    23    24   ar
    16    24    25   ar
    17    25    26    1
    18    25    27   ar
    19    27    28   ar
    20     6     2    1
    21     2     3    2
    22     2     4   am
    23     4     1    1
    24     1    29    1
    25    29    30    1
    26    31    30    1
    27    31    43    1
    28    43    44    1
    29    44    45   ar
    30    45    46   ar
    31    46    47   ar
    32    47    48   ar
    33    48    49   ar
    34    31    32    1
    35    32    33   am
    36    33    34    2
    37    33    36    1
    38    36    37    1
    39    37    38    1
    40    38    39   ar
    41    39    40   ar
    42    40    41   ar
    43    41    42   ar
    44     1    50    1
    45    50    51    1
    46    51    52   ar
    47    52    53   ar
    48    53    54   ar
    49    54    55   ar
    50    55    56   ar
    51    16    17   ar
    52    17    18   ar
    53    18    14   ar
    54    28    23   ar
    55    49    44   ar
    56    42    38   ar
    57    56    51   ar
    58    11    12    1
    59     4     5    1
    60    32    35    1
@<TRIPOS>MOLECULE
*****
 56 60 0 0 0
SMALL
GASTEIGER

@<TRIPOS>ATOM
      1 C           3.6906   -1.4392   23.0079 C.3     1  UNL1        0.0760
      2 C           5.3529   -1.4281   25.0046 C.2     1  UNL1        0.2407
      3 O           5.9279   -0.1308   24.5188 O.2     1  UNL1       -0.2733
      4 N           4.2342   -2.0824   24.2492 N.am    1  UNL1       -0.3043
      5 H           3.8568   -2.9339   24.5681 H       1  UNL1        0.1494
      6 C           5.8964   -2.0713   26.2459 C.3     1  UNL1        0.1557
      7 N           5.6328   -0.3126   29.7938 N.am    1  UNL1       -0.2567
      8 C           6.4179    0.6362   30.6503 C.3     1  UNL1        0.1168
      9 C           6.1572   -0.7176   28.4481 C.2     1  UNL1        0.3046
     10 O           7.4667   -0.1738   27.9588 O.2     1  UNL1       -0.2526
     11 N           5.3721   -1.6663   27.5917 N.am    1  UNL1       -0.2821
     12 H           4.5126   -2.0232   27.9129 H       1  UNL1        0.1514
     13 C           4.3233   -0.8564   30.2831 C.3     1  UNL1        0.1413
     14 C           0.8532    0.5063   29.2025 C.ar    1  UNL1        0.0875
     15 N           1.9071   -0.5608   29.1786 N.ar    1  UNL1       -0.2453
     16 C           3.0541   -0.0987   30.0277 C.ar    1  UNL1        0.0858
     17 C           2.7091    1.2540   30.5764 C.ar    1  UNL1        0.0530
     18 S           1.3489    1.6279   30.0665 S.2     1  UNL1       -0.0705
     19 C          -0.7651    1.4511   27.4030 C.3     1  UNL1        0.0069
     20 C          -0.4649    0.4599   28.4881 C.3     1  UNL1        0.0465
     21 C          -1.4828   -0.5777   28.8587 C.3     1  UNL1        0.0069
     22 C           6.9643   -3.1195   26.1415 C.3     1  UNL1        0.0764
     23 C           7.1267   -4.1361   27.2325 C.ar    1  UNL1        0.0800
     24 C           8.2441   -5.1295   27.3527 C.ar    1  UNL1        0.0921
     25 N           8.0082   -5.9452   28.5893 N.ar    1  UNL1       -0.3061
     26 C           8.8821   -7.0552   29.0933 C.3     1  UNL1        0.1321
     27 C           6.7450   -5.4558   29.2333 C.ar    1  UNL1        0.1783
     28 N           6.2002   -4.3377   28.3947 N.ar    1  UNL1       -0.2282
     29 C           4.2808   -1.7734   21.6700 C.3     1  UNL1        0.0216
     30 C           3.4014   -1.8334   20.4563 C.3     1  UNL1        0.0217
     31 C           3.7594   -1.0454   19.2311 C.3     1  UNL1        0.0792
     32 N           5.1774   -1.0212   18.7428 N.am    1  UNL1       -0.2720
     33 C           5.8187   -2.2800   18.2385 C.2     1  UNL1        0.4019
     34 O           5.0419   -3.5630   18.2226 O.2     1  UNL1       -0.2264
     35 H           5.6873   -0.1790   18.7532 H       1  UNL1        0.1527
     36 O           7.2368   -2.2557   17.7502 O.3     1  UNL1       -0.4291
     37 C           8.3665   -2.4499   18.7176 C.3     1  UNL1        0.2447
     38 C           8.0791   -2.6475   20.1765 C.ar    1  UNL1        0.0714
     39 C           8.0444   -1.5723   21.2219 C.ar    1  UNL1        0.1053
     40 N           7.7198   -2.2152   22.5376 N.ar    1  UNL1       -0.2350
     41 C           7.5539   -3.6878   22.3055 C.ar    1  UNL1        0.1343
     42 S           7.7760   -3.9550   20.8463 S.2     1  UNL1       -0.0652
     43 C           2.6992   -0.2819   18.4942 C.3     1  UNL1        0.0460
     44 C           1.9569    0.8251   19.1825 C.ar    1  UNL1       -0.0205
     45 C           2.4451    2.2389   19.0698 C.ar    1  UNL1       -0.0042
     46 C           1.7028    3.3458   19.7581 C.ar    1  UNL1       -0.0003
     47 C           0.4723    3.0388   20.5591 C.ar    1  UNL1       -0.0000
     48 C          -0.0159    1.6250   20.6718 C.ar    1  UNL1       -0.0003
     49 C           0.7264    0.5181   19.9835 C.ar    1  UNL1       -0.0042
     50 C           2.5569   -0.4618   23.1045 C.3     1  UNL1        0.0459
     51 C           2.8348    1.0122   23.0988 C.ar    1  UNL1       -0.0205
     52 C           1.9727    1.9412   23.9011 C.ar    1  UNL1       -0.0042
     53 C           2.2507    3.4152   23.8953 C.ar    1  UNL1       -0.0003
     54 C           3.3908    3.9602   23.0873 C.ar    1  UNL1       -0.0000
     55 C           4.2531    3.0313   22.2849 C.ar    1  UNL1       -0.0003
     56 C           3.9751    1.5573   22.2907 C.ar    1  UNL1       -0.0042
@<TRIPOS>BOND
     1    19    20    1
     2    20    21    1
     3    20    14    1
     4    14    15   ar
     5    15    16   ar
     6    16    13    1
     7    13     7    1
     8     7     8    1
     9     7     9   am
    10     9    10    2
    11     9    11   am
    12    11     6    1
    13     6    22    1
    14    22    23    1
    15    23    24   ar
    16    24    25   ar
    17    25    26    1
    18    25    27   ar
    19    27    28   ar
    20     6     2    1
    21     2     3    2
    22     2     4   am
    23     4     1    1
    24     1    29    1
    25    29    30    1
    26    31    30    1
    27    31    43    1
    28    43    44    1
    29    44    45   ar
    30    45    46   ar
    31    46    47   ar
    32    47    48   ar
    33    48    49   ar
    34    31    32    1
    35    32    33   am
    36    33    34    2
    37    33    36    1
    38    36    37    1
    39    37    38    1
    40    38    39   ar
    41    39    40   ar
    42    40    41   ar
    43    41    42   ar
    44     1    50    1
    45    50    51    1
    46    51    52   ar
    47    52    53   ar
    48    53    54   ar
    49    54    55   ar
    50    55    56   ar
    51    16    17   ar
    52    17    18   ar
    53    18    14   ar
    54    28    23   ar
    55    49    44   ar
    56    42    38   ar
    57    56    51   ar
    58    11    12    1
    59     4     5    1
    60    32    35    1
@<TRIPOS>MOLECULE
*****
 56 60 0 0 0
SMALL
GASTEIGER

@<TRIPOS>ATOM
      1 C           4.2606   -2.1611   23.3574 C.3     1  UNL1        0.0760
      2 C           5.7381   -1.6731   25.4380 C.2     1  UNL1        0.2407
      3 O           6.7789   -1.0532   24.5534 O.2     1  UNL1       -0.2733
      4 N           4.4789   -2.2271   24.8399 N.am    1  UNL1       -0.3043
      5 H           3.7958   -2.6340   25.4205 H       1  UNL1        0.1494
      6 C           5.9565   -1.7391   26.9205 C.3     1  UNL1        0.1557
      7 N           4.0989   -0.0277   29.9817 N.am    1  UNL1       -0.2567
      8 C           4.4222    0.8338   31.1663 C.3     1  UNL1        0.1168
      9 C           5.1893   -0.4526   29.0434 C.2     1  UNL1        0.3046
     10 O           6.6031   -0.0160   29.2897 O.2     1  UNL1       -0.2526
     11 N           4.8660   -1.3141   27.8589 N.am    1  UNL1       -0.2821
     12 H           3.9381   -1.6007   27.6972 H       1  UNL1        0.1514
     13 C           2.6851   -0.4643   29.7354 C.3     1  UNL1        0.1413
     14 C           0.4853    1.4077   27.1427 C.ar    1  UNL1        0.0875
     15 N           1.4789    0.3387   27.4892 N.ar    1  UNL1       -0.2453
     16 C           1.7513    0.4190   28.9621 C.ar    1  UNL1        0.0858
     17 C           0.9261    1.5375   29.5258 C.ar    1  UNL1        0.0530
     18 S           0.1436    2.1485   28.4014 S.2     1  UNL1       -0.0705
     19 C          -1.2828    2.5551   25.6236 C.3     1  UNL1        0.0069
     20 C          -0.0693    1.6867   25.7772 C.3     1  UNL1        0.0465
     21 C           0.5895    1.0975   24.5653 C.3     1  UNL1        0.0069
     22 C           7.2652   -2.2300   27.4647 C.3     1  UNL1        0.0764
     23 C           7.3113   -3.4785   28.2948 C.ar    1  UNL1        0.0800
     24 C           8.0897   -3.6657   29.5633 C.ar    1  UNL1        0.0921
     25 N           7.8466   -5.0620   30.0546 N.ar    1  UNL1       -0.3061
     26 C           8.4298   -5.6749   31.2932 C.3     1  UNL1        0.1321
     27 C           6.9179   -5.7377   29.0897 C.ar    1  UNL1        0.1783
     28 N           6.5871   -4.7591   28.0021 N.ar    1  UNL1       -0.2282
     29 C           3.7680   -0.8920   22.7276 C.3     1  UNL1        0.0216
     30 C           2.5873   -0.9227   21.8030 C.3     1  UNL1        0.0217
     31 C           2.4770    0.0810   20.6937 C.3     1  UNL1        0.0792
     32 N           1.9459    1.4552   20.9757 N.am    1  UNL1       -0.2720
     33 C           0.4697    1.7152   20.9179 C.2     1  UNL1        0.4019
     34 O          -0.4753    0.6010   20.5780 O.2     1  UNL1       -0.2264
     35 H           2.5662    2.1865   21.1987 H       1  UNL1        0.1527
     36 O          -0.0614    3.0894   21.1999 O.3     1  UNL1       -0.4291
     37 C          -1.4604    3.2621   21.7128 C.3     1  UNL1        0.2447
     38 C          -2.5954    3.4440   20.7491 C.ar    1  UNL1        0.0714
     39 C          -4.0463    3.1978   21.0392 C.ar    1  UNL1        0.1053
     40 N          -4.8265    3.5057   19.7956 N.ar    1  UNL1       -0.2350
     41 C          -3.8577    3.9421   18.7368 C.ar    1  UNL1        0.1343
     42 S          -2.4788    3.9040   19.3262 S.2     1  UNL1       -0.0652
     43 C           2.8979   -0.2895   19.3025 C.3     1  UNL1        0.0460
     44 C           4.2426    0.1320   18.7883 C.ar    1  UNL1       -0.0205
     45 C           5.2678    0.6839   19.7339 C.ar    1  UNL1       -0.0042
     46 C           6.6124    1.1054   19.2198 C.ar    1  UNL1       -0.0003
     47 C           6.9317    0.9749   17.7600 C.ar    1  UNL1       -0.0000
     48 C           5.9065    0.4229   16.8144 C.ar    1  UNL1       -0.0003
     49 C           4.5619    0.0015   17.3285 C.ar    1  UNL1       -0.0042
     50 C           4.5348   -3.3643   22.5046 C.3     1  UNL1        0.0459
     51 C           5.1835   -3.2000   21.1622 C.ar    1  UNL1       -0.0205
     52 C           6.5634   -2.6209   21.0618 C.ar    1  UNL1       -0.0042
     53 C           7.2121   -2.4566   19.7194 C.ar    1  UNL1       -0.0003
     54 C           6.4808   -2.8715   18.4772 C.ar    1  UNL1       -0.0000
     55 C           5.1008   -3.4507   18.5775 C.ar    1  UNL1       -0.0003
     56 C           4.4521   -3.6150   19.9200 C.ar    1  UNL1       -0.0042
@<TRIPOS>BOND
     1    19    20    1
     2    20    21    1
     3    20    14    1
     4    14    15   ar
     5    15    16   ar
     6    16    13    1
     7    13     7    1
     8     7     8    1
     9     7     9   am
    10     9    10    2
    11     9    11   am
    12    11     6    1
    13     6    22    1
    14    22    23    1
    15    23    24   ar
    16    24    25   ar
    17    25    26    1
    18    25    27   ar
    19    27    28   ar
    20     6     2    1
    21     2     3    2
    22     2     4   am
    23     4     1    1
    24     1    29    1
    25    29    30    1
    26    31    30    1
    27    31    43    1
    28    43    44    1
    29    44    45   ar
    30    45    46   ar
    31    46    47   ar
    32    47    48   ar
    33    48    49   ar
    34    31    32    1
    35    32    33   am
    36    33    34    2
    37    33    36    1
    38    36    37    1
    39    37    38    1
    40    38    39   ar
    41    39    40   ar
    42    40    41   ar
    43    41    42   ar
    44     1    50    1
    45    50    51    1
    46    51    52   ar
    47    52    53   ar
    48    53    54   ar
    49    54    55   ar
    50    55    56   ar
    51    16    17   ar
    52    17    18   ar
    53    18    14   ar
    54    28    23   ar
    55    49    44   ar
    56    42    38   ar
    57    56    51   ar
    58    11    12    1
    59     4     5    1
    60    32    35    1
