@<TRIPOS>MOLECULE
*****
 33 36 0 0 0
SMALL
GASTEIGER

@<TRIPOS>ATOM
      1 C         -10.0867  -16.5915   23.1612 C.3     1  UNL1        0.0782
      2 C          -9.0307  -16.2013   22.1700 C.3     1  UNL1        0.0372
      3 C          -7.6166  -15.9915   22.6241 C.3     1  UNL1        0.0741
      4 N          -7.2584  -16.1720   24.0694 N.3     1  UNL1       -0.2689
      5 C          -8.3144  -16.5623   25.0607 C.3     1  UNL1        0.0741
      6 C          -9.7285  -16.7721   24.6066 C.3     1  UNL1        0.0372
      7 C         -12.3839  -15.6200   22.4342 C.3     1  UNL1        0.1148
      8 N         -11.5008  -16.8013   22.7070 N.am    1  UNL1       -0.2790
      9 C         -12.0318  -18.1925   22.5258 C.2     1  UNL1        0.2301
     10 O         -13.4459  -18.4023   22.0716 O.2     1  UNL1       -0.2745
     11 C         -11.1486  -19.3738   22.7986 C.3     1  UNL1        0.1116
     12 C          -9.7922  -19.4588   22.1637 C.ar    1  UNL1       -0.0130
     13 C          -9.6401  -19.2407   20.6875 C.ar    1  UNL1       -0.0022
     14 C          -8.2838  -19.3257   20.0526 C.ar    1  UNL1        0.0190
     15 C          -7.0795  -19.6287   20.8940 C.ar    1  UNL1        0.0862
     16 C          -7.2316  -19.8468   22.3702 C.ar    1  UNL1        0.0190
     17 C          -8.5880  -19.7619   23.0051 C.ar    1  UNL1       -0.0022
     18 N          -5.7231  -19.7137   20.2591 N.ar    1  UNL1       -0.1886
     19 C          -4.8676  -20.9425   20.1683 C.ar    1  UNL1        0.2258
     20 N          -3.5999  -20.5731   19.4566 N.ar    1  UNL1       -0.1045
     21 N          -3.6720  -19.1160   19.1076 N.ar    1  UNL1       -0.0222
     22 N          -4.9842  -18.5849   19.6035 N.ar    1  UNL1       -0.0385
     23 C          -5.8443  -15.9622   24.5236 C.3     1  UNL1        0.0991
     24 C          -4.7045  -16.4258   23.6657 C.ar    1  UNL1       -0.0062
     25 C          -3.8674  -15.4249   22.9258 C.ar    1  UNL1       -0.0030
     26 C          -2.7275  -15.8884   22.0679 C.ar    1  UNL1        0.0036
     27 C          -2.4248  -17.3528   21.9500 C.ar    1  UNL1        0.0714
     28 C          -3.2620  -18.3537   22.6900 C.ar    1  UNL1        0.0036
     29 C          -4.4018  -17.8902   23.5478 C.ar    1  UNL1       -0.0030
     30 C          -1.2850  -17.8164   21.0922 C.3     1  UNL1        0.4186
     31 F          -0.1452  -18.2799   20.2343 F       1  UNL1       -0.1659
     32 F          -1.0318  -16.4013   20.6639 F       1  UNL1       -0.1659
     33 F          -1.5382  -19.2315   21.5204 F       1  UNL1       -0.1659
@<TRIPOS>BOND
     1     7     8    1
     2     8     9   am
     3     9    10    2
     4     9    11    1
     5    11    12    1
     6    12    13   ar
     7    13    14   ar
     8    14    15   ar
     9    15    18    1
    10    18    19   ar
    11    19    20   ar
    12    20    21   ar
    13    21    22   ar
    14    15    16   ar
    15    16    17   ar
    16     8     1    1
    17     1     2    1
    18     2     3    1
    19     3     4    1
    20     4    23    1
    21    23    24    1
    22    24    25   ar
    23    25    26   ar
    24    26    27   ar
    25    27    30    1
    26    30    31    1
    27    30    32    1
    28    30    33    1
    29    27    28   ar
    30    28    29   ar
    31     4     5    1
    32     5     6    1
    33    17    12   ar
    34     6     1    1
    35    22    18   ar
    36    29    24   ar
@<TRIPOS>MOLECULE
*****
 33 36 0 0 0
SMALL
GASTEIGER

@<TRIPOS>ATOM
      1 C         -10.0770  -19.0948   21.1887 C.3     1  UNL1        0.0782
      2 C          -9.1482  -19.1526   20.0122 C.3     1  UNL1        0.0372
      3 C          -7.7392  -19.6348   20.1920 C.3     1  UNL1        0.0741
      4 N          -7.2590  -20.0591   21.5481 N.3     1  UNL1       -0.2689
      5 C          -8.1877  -20.0013   22.7247 C.3     1  UNL1        0.0741
      6 C          -9.5967  -19.5191   22.5450 C.3     1  UNL1        0.0372
      7 C         -12.6287  -19.5781   21.1185 C.3     1  UNL1        0.1148
      8 N         -11.4859  -18.6127   21.0090 N.am    1  UNL1       -0.2790
      9 C         -11.7521  -17.1651   20.7197 C.2     1  UNL1        0.2301
     10 O         -13.1611  -16.6829   20.5400 O.2     1  UNL1       -0.2745
     11 C         -10.6094  -16.1997   20.6102 C.3     1  UNL1        0.1116
     12 C          -9.7179  -15.9556   21.7916 C.ar    1  UNL1       -0.0130
     13 C         -10.2470  -16.1452   23.1823 C.ar    1  UNL1       -0.0022
     14 C          -9.3555  -15.9011   24.3637 C.ar    1  UNL1        0.0190
     15 C          -7.9348  -15.4675   24.1543 C.ar    1  UNL1        0.0862
     16 C          -7.4057  -15.2779   22.7636 C.ar    1  UNL1        0.0190
     17 C          -8.2973  -15.5220   21.5823 C.ar    1  UNL1       -0.0022
     18 N          -7.0433  -15.2234   25.3357 N.ar    1  UNL1       -0.1886
     19 C          -7.3996  -15.4616   26.7732 C.ar    1  UNL1        0.2258
     20 N          -6.2155  -15.0838   27.6130 N.ar    1  UNL1       -0.1045
     21 N          -5.1275  -14.6120   26.6945 N.ar    1  UNL1       -0.0222
     22 N          -5.6391  -14.6983   25.2871 N.ar    1  UNL1       -0.0385
     23 C          -5.8500  -20.5412   21.7279 C.3     1  UNL1        0.0991
     24 C          -4.7000  -19.6296   21.4172 C.ar    1  UNL1       -0.0062
     25 C          -4.1188  -19.5999   20.0347 C.ar    1  UNL1       -0.0030
     26 C          -2.9688  -18.6883   19.7240 C.ar    1  UNL1        0.0036
     27 C          -2.4000  -17.8065   20.7959 C.ar    1  UNL1        0.0714
     28 C          -2.9812  -17.8363   22.1784 C.ar    1  UNL1        0.0036
     29 C          -4.1312  -18.7478   22.4891 C.ar    1  UNL1       -0.0030
     30 C          -1.2500  -16.8949   20.4853 C.3     1  UNL1        0.4186
     31 F          -0.1000  -15.9833   20.1746 F       1  UNL1       -0.1659
     32 F          -0.7910  -17.8390   19.4138 F       1  UNL1       -0.1659
     33 F          -1.7089  -15.9508   21.5567 F       1  UNL1       -0.1659
@<TRIPOS>BOND
     1     7     8    1
     2     8     9   am
     3     9    10    2
     4     9    11    1
     5    11    12    1
     6    12    13   ar
     7    13    14   ar
     8    14    15   ar
     9    15    18    1
    10    18    19   ar
    11    19    20   ar
    12    20    21   ar
    13    21    22   ar
    14    15    16   ar
    15    16    17   ar
    16     8     1    1
    17     1     2    1
    18     2     3    1
    19     3     4    1
    20     4    23    1
    21    23    24    1
    22    24    25   ar
    23    25    26   ar
    24    26    27   ar
    25    27    30    1
    26    30    31    1
    27    30    32    1
    28    30    33    1
    29    27    28   ar
    30    28    29   ar
    31     4     5    1
    32     5     6    1
    33    17    12   ar
    34     6     1    1
    35    22    18   ar
    36    29    24   ar
@<TRIPOS>MOLECULE
*****
 33 36 0 0 0
SMALL
GASTEIGER

@<TRIPOS>ATOM
      1 C          -9.8120  -18.6799   20.2307 C.3     1  UNL1        0.0782
      2 C          -8.8010  -18.1747   21.2170 C.3     1  UNL1        0.0372
      3 C          -7.4603  -18.8388   21.3235 C.3     1  UNL1        0.0741
      4 N          -7.1305  -20.0081   20.4439 N.3     1  UNL1       -0.2689
      5 C          -8.1414  -20.5134   19.4576 C.3     1  UNL1        0.0741
      6 C          -9.4822  -19.8493   19.3510 C.3     1  UNL1        0.0372
      7 C         -11.5703  -17.3717   18.8355 C.3     1  UNL1        0.1148
      8 N         -11.1527  -18.0158   20.1242 N.am    1  UNL1       -0.2790
      9 C         -12.0758  -17.9958   21.3064 C.2     1  UNL1        0.2301
     10 O         -13.4166  -17.3317   21.1998 O.2     1  UNL1       -0.2745
     11 C         -11.6582  -18.6399   22.5950 C.3     1  UNL1        0.1116
     12 C         -10.7271  -17.9209   23.5257 C.ar    1  UNL1       -0.0130
     13 C         -10.3658  -16.4883   23.2663 C.ar    1  UNL1       -0.0022
     14 C          -9.4347  -15.7694   24.1969 C.ar    1  UNL1        0.0190
     15 C          -8.8649  -16.4830   25.3869 C.ar    1  UNL1        0.0862
     16 C          -9.2262  -17.9155   25.6463 C.ar    1  UNL1        0.0190
     17 C         -10.1573  -18.6344   24.7157 C.ar    1  UNL1       -0.0022
     18 N          -7.9338  -15.7639   26.3176 N.ar    1  UNL1       -0.1886
     19 C          -6.4576  -15.5829   26.1219 C.ar    1  UNL1        0.2258
     20 N          -5.9268  -14.8068   27.2906 N.ar    1  UNL1       -0.1045
     21 N          -7.0750  -14.5082   28.2086 N.ar    1  UNL1       -0.0222
     22 N          -8.3153  -15.0997   27.6072 N.ar    1  UNL1       -0.0385
     23 C          -5.7897  -20.6723   20.5504 C.3     1  UNL1        0.0991
     24 C          -4.5375  -19.8494   20.4811 C.ar    1  UNL1       -0.0062
     25 C          -4.3213  -18.9080   19.3335 C.ar    1  UNL1       -0.0030
     26 C          -3.0691  -18.0851   19.2641 C.ar    1  UNL1        0.0036
     27 C          -2.0331  -18.2036   20.3424 C.ar    1  UNL1        0.0714
     28 C          -2.2493  -19.1450   21.4901 C.ar    1  UNL1        0.0036
     29 C          -3.5015  -19.9679   21.5594 C.ar    1  UNL1       -0.0030
     30 C          -0.7809  -17.3807   20.2731 C.3     1  UNL1        0.4186
     31 F           0.4713  -16.5579   20.2038 F       1  UNL1       -0.1659
     32 F          -1.5099  -16.2200   20.8824 F       1  UNL1       -0.1659
     33 F          -0.0519  -18.5414   19.6638 F       1  UNL1       -0.1659
@<TRIPOS>BOND
     1     7     8    1
     2     8     9   am
     3     9    10    2
     4     9    11    1
     5    11    12    1
     6    12    13   ar
     7    13    14   ar
     8    14    15   ar
     9    15    18    1
    10    18    19   ar
    11    19    20   ar
    12    20    21   ar
    13    21    22   ar
    14    15    16   ar
    15    16    17   ar
    16     8     1    1
    17     1     2    1
    18     2     3    1
    19     3     4    1
    20     4    23    1
    21    23    24    1
    22    24    25   ar
    23    25    26   ar
    24    26    27   ar
    25    27    30    1
    26    30    31    1
    27    30    32    1
    28    30    33    1
    29    27    28   ar
    30    28    29   ar
    31     4     5    1
    32     5     6    1
    33    17    12   ar
    34     6     1    1
    35    22    18   ar
    36    29    24   ar
@<TRIPOS>MOLECULE
*****
 33 36 0 0 0
SMALL
GASTEIGER

@<TRIPOS>ATOM
      1 C          -3.1651  -18.8566   19.4521 C.3     1  UNL1        0.0782
      2 C          -4.3882  -17.9885   19.4623 C.3     1  UNL1        0.0372
      3 C          -5.7201  -18.5734   19.8283 C.3     1  UNL1        0.0741
      4 N          -5.8288  -20.0265   20.1841 N.3     1  UNL1       -0.2689
      5 C          -4.6056  -20.8947   20.1740 C.3     1  UNL1        0.0741
      6 C          -3.2738  -20.3098   19.8079 C.3     1  UNL1        0.0372
      7 C          -1.5276  -17.9392   17.6557 C.3     1  UNL1        0.1148
      8 N          -1.8332  -18.2717   19.0861 N.am    1  UNL1       -0.2790
      9 C          -0.8069  -18.0192   20.1505 C.2     1  UNL1        0.2301
     10 O           0.5250  -17.4343   19.7845 O.2     1  UNL1       -0.2745
     11 C          -1.1124  -18.3517   21.5809 C.3     1  UNL1        0.1116
     12 C          -2.3108  -17.7482   22.2517 C.ar    1  UNL1       -0.0130
     13 C          -3.2721  -18.6239   22.9994 C.ar    1  UNL1       -0.0022
     14 C          -4.4703  -18.0204   23.6701 C.ar    1  UNL1        0.0190
     15 C          -4.7073  -16.5413   23.5932 C.ar    1  UNL1        0.0862
     16 C          -3.7460  -15.6656   22.8455 C.ar    1  UNL1        0.0190
     17 C          -2.5477  -16.2691   22.1748 C.ar    1  UNL1       -0.0022
     18 N          -5.9056  -15.9378   24.2640 N.ar    1  UNL1       -0.1886
     19 C          -6.0351  -15.6285   25.7260 C.ar    1  UNL1        0.2258
     20 N          -7.3943  -15.0372   25.9562 N.ar    1  UNL1       -0.1045
     21 N          -8.1049  -14.9811   24.6363 N.ar    1  UNL1       -0.0222
     22 N          -7.1848  -15.5376   23.5905 N.ar    1  UNL1       -0.0385
     23 C          -7.1607  -20.6114   20.5502 C.3     1  UNL1        0.0991
     24 C          -8.2833  -19.7122   20.9759 C.ar    1  UNL1       -0.0062
     25 C          -8.3217  -19.1714   22.3745 C.ar    1  UNL1       -0.0030
     26 C          -9.4443  -18.2722   22.8003 C.ar    1  UNL1        0.0036
     27 C         -10.5284  -17.9139   21.8276 C.ar    1  UNL1        0.0714
     28 C         -10.4899  -18.4547   20.4289 C.ar    1  UNL1        0.0036
     29 C          -9.3674  -19.3539   20.0032 C.ar    1  UNL1       -0.0030
     30 C         -11.6509  -17.0147   22.2533 C.3     1  UNL1        0.4186
     31 F         -12.7735  -16.1155   22.6791 F       1  UNL1       -0.1659
     32 F         -10.7522  -16.3736   23.2688 F       1  UNL1       -0.1659
     33 F         -12.5496  -17.6558   21.2378 F       1  UNL1       -0.1659
@<TRIPOS>BOND
     1     7     8    1
     2     8     9   am
     3     9    10    2
     4     9    11    1
     5    11    12    1
     6    12    13   ar
     7    13    14   ar
     8    14    15   ar
     9    15    18    1
    10    18    19   ar
    11    19    20   ar
    12    20    21   ar
    13    21    22   ar
    14    15    16   ar
    15    16    17   ar
    16     8     1    1
    17     1     2    1
    18     2     3    1
    19     3     4    1
    20     4    23    1
    21    23    24    1
    22    24    25   ar
    23    25    26   ar
    24    26    27   ar
    25    27    30    1
    26    30    31    1
    27    30    32    1
    28    30    33    1
    29    27    28   ar
    30    28    29   ar
    31     4     5    1
    32     5     6    1
    33    17    12   ar
    34     6     1    1
    35    22    18   ar
    36    29    24   ar
@<TRIPOS>MOLECULE
*****
 33 36 0 0 0
SMALL
GASTEIGER

@<TRIPOS>ATOM
      1 C           6.1696   -1.3531   21.2057 C.3     1  UNL1        0.0782
      2 C           5.8976    0.0383   21.6953 C.3     1  UNL1        0.0372
      3 C           5.2499    0.2499   23.0317 C.3     1  UNL1        0.0741
      4 N           4.8743   -0.9299   23.8783 N.3     1  UNL1       -0.2689
      5 C           5.1463   -2.3214   23.3886 C.3     1  UNL1        0.0741
      6 C           5.7939   -2.5331   22.0523 C.3     1  UNL1        0.0372
      7 C           8.2507   -1.1754   19.6606 C.3     1  UNL1        0.1148
      8 N           6.8173   -1.5648   19.8693 N.am    1  UNL1       -0.2790
      9 C           6.0314   -2.1658   18.7418 C.2     1  UNL1        0.2301
     10 O           6.6791   -2.3774   17.4055 O.2     1  UNL1       -0.2745
     11 C           4.5980   -2.5551   18.9506 C.3     1  UNL1        0.1116
     12 C           3.5452   -1.4954   19.0870 C.ar    1  UNL1       -0.0130
     13 C           3.4315   -0.4137   18.0540 C.ar    1  UNL1       -0.0022
     14 C           2.3787    0.6460   18.1905 C.ar    1  UNL1        0.0190
     15 C           1.4396    0.6240   19.3599 C.ar    1  UNL1        0.0862
     16 C           1.5533   -0.4576   20.3929 C.ar    1  UNL1        0.0190
     17 C           2.6060   -1.5173   20.2564 C.ar    1  UNL1       -0.0022
     18 N           0.3868    1.6838   19.4963 N.ar    1  UNL1       -0.1886
     19 C           0.1350    2.8056   18.5329 C.ar    1  UNL1        0.2258
     20 N          -1.0064    3.6229   19.0612 N.ar    1  UNL1       -0.1045
     21 N          -1.4601    3.0061   20.3511 N.ar    1  UNL1       -0.0222
     22 N          -0.5991    1.8077   20.6200 N.ar    1  UNL1       -0.0385
     23 C           4.2266   -0.7182   25.2146 C.3     1  UNL1        0.0991
     24 C           2.9308    0.0313   25.3097 C.ar    1  UNL1       -0.0062
     25 C           2.0890    0.2323   24.0847 C.ar    1  UNL1       -0.0030
     26 C           0.7931    0.9819   24.1798 C.ar    1  UNL1        0.0036
     27 C           0.3392    1.5304   25.5000 C.ar    1  UNL1        0.0714
     28 C           1.1811    1.3294   26.7251 C.ar    1  UNL1        0.0036
     29 C           2.4769    0.5799   26.6300 C.ar    1  UNL1       -0.0030
     30 C          -0.9566    2.2800   25.5951 C.3     1  UNL1        0.4186
     31 F          -2.2523    3.0295   25.6903 F       1  UNL1       -0.1659
     32 F          -1.0771    1.8885   27.0381 F       1  UNL1       -0.1659
     33 F          -0.8361    2.6715   24.1522 F       1  UNL1       -0.1659
@<TRIPOS>BOND
     1     7     8    1
     2     8     9   am
     3     9    10    2
     4     9    11    1
     5    11    12    1
     6    12    13   ar
     7    13    14   ar
     8    14    15   ar
     9    15    18    1
    10    18    19   ar
    11    19    20   ar
    12    20    21   ar
    13    21    22   ar
    14    15    16   ar
    15    16    17   ar
    16     8     1    1
    17     1     2    1
    18     2     3    1
    19     3     4    1
    20     4    23    1
    21    23    24    1
    22    24    25   ar
    23    25    26   ar
    24    26    27   ar
    25    27    30    1
    26    30    31    1
    27    30    32    1
    28    30    33    1
    29    27    28   ar
    30    28    29   ar
    31     4     5    1
    32     5     6    1
    33    17    12   ar
    34     6     1    1
    35    22    18   ar
    36    29    24   ar
@<TRIPOS>MOLECULE
*****
 33 36 0 0 0
SMALL
GASTEIGER

@<TRIPOS>ATOM
      1 C          -0.8133    4.1569   20.0210 C.3     1  UNL1        0.0782
      2 C          -0.8514    3.7201   21.4555 C.3     1  UNL1        0.0372
      3 C          -2.1467    3.2812   22.0717 C.3     1  UNL1        0.0741
      4 N          -3.4038    3.2792   21.2534 N.3     1  UNL1       -0.2689
      5 C          -3.3657    3.7161   19.8189 C.3     1  UNL1        0.0741
      6 C          -2.0705    4.1549   19.2027 C.3     1  UNL1        0.0372
      7 C           1.0334    5.9573   19.7080 C.3     1  UNL1        0.1148
      8 N           0.4820    4.5958   19.4049 N.am    1  UNL1       -0.2790
      9 C           1.2258    3.6730   18.4855 C.2     1  UNL1        0.2301
     10 O           2.5211    4.1118   17.8693 O.2     1  UNL1       -0.2745
     11 C           0.6743    2.3114   18.1823 C.3     1  UNL1        0.1116
     12 C           1.3779    1.0873   18.6891 C.ar    1  UNL1       -0.0130
     13 C           2.6419    0.6216   18.0293 C.ar    1  UNL1       -0.0022
     14 C           3.3454   -0.6024   18.5361 C.ar    1  UNL1        0.0190
     15 C           2.7849   -1.3607   19.7026 C.ar    1  UNL1        0.0862
     16 C           1.5208   -0.8950   20.3624 C.ar    1  UNL1        0.0190
     17 C           0.8173    0.3290   19.8556 C.ar    1  UNL1       -0.0022
     18 N           3.4884   -2.5847   20.2094 N.ar    1  UNL1       -0.1886
     19 C           4.2818   -2.6837   21.4786 C.ar    1  UNL1        0.2258
     20 N           4.8058   -4.0848   21.5896 N.ar    1  UNL1       -0.1045
     21 N           4.3363   -4.8517   20.3890 N.ar    1  UNL1       -0.0222
     22 N           3.5222   -3.9246   19.5360 N.ar    1  UNL1       -0.0385
     23 C          -4.6991    2.8404   21.8696 C.3     1  UNL1        0.0991
     24 C          -5.3002    3.6301   22.9942 C.ar    1  UNL1       -0.0062
     25 C          -4.7389    3.5085   24.3799 C.ar    1  UNL1       -0.0030
     26 C          -5.3400    4.2983   25.5046 C.ar    1  UNL1        0.0036
     27 C          -6.5024    5.2097   25.2436 C.ar    1  UNL1        0.0714
     28 C          -7.0638    5.3313   23.8579 C.ar    1  UNL1        0.0036
     29 C          -6.4626    4.5415   22.7332 C.ar    1  UNL1       -0.0030
     30 C          -7.1036    5.9995   26.3683 C.3     1  UNL1        0.4186
     31 F          -7.7047    6.7893   27.4929 F       1  UNL1       -0.1659
     32 F          -8.1746    6.4993   25.4448 F       1  UNL1       -0.1659
     33 F          -6.0325    5.4996   27.2918 F       1  UNL1       -0.1659
@<TRIPOS>BOND
     1     7     8    1
     2     8     9   am
     3     9    10    2
     4     9    11    1
     5    11    12    1
     6    12    13   ar
     7    13    14   ar
     8    14    15   ar
     9    15    18    1
    10    18    19   ar
    11    19    20   ar
    12    20    21   ar
    13    21    22   ar
    14    15    16   ar
    15    16    17   ar
    16     8     1    1
    17     1     2    1
    18     2     3    1
    19     3     4    1
    20     4    23    1
    21    23    24    1
    22    24    25   ar
    23    25    26   ar
    24    26    27   ar
    25    27    30    1
    26    30    31    1
    27    30    32    1
    28    30    33    1
    29    27    28   ar
    30    28    29   ar
    31     4     5    1
    32     5     6    1
    33    17    12   ar
    34     6     1    1
    35    22    18   ar
    36    29    24   ar
@<TRIPOS>MOLECULE
*****
 33 36 0 0 0
SMALL
GASTEIGER

@<TRIPOS>ATOM
      1 C          -0.9519    3.3909   20.4201 C.3     1  UNL1        0.0782
      2 C          -0.5188    1.9689   20.6201 C.3     1  UNL1        0.0372
      3 C           0.8661    1.5447   20.2300 C.3     1  UNL1        0.0741
      4 N           1.8178    2.5426   19.6398 N.3     1  UNL1       -0.2689
      5 C           1.3847    3.9648   19.4397 C.3     1  UNL1        0.0741
      6 C          -0.0002    4.3889   19.8299 C.3     1  UNL1        0.0372
      7 C          -3.4857    3.5752   19.8763 C.3     1  UNL1        0.1148
      8 N          -2.3368    3.8151   20.8102 N.am    1  UNL1       -0.2790
      9 C          -2.5727    4.4792   22.1344 C.2     1  UNL1        0.2301
     10 O          -3.9576    4.9033   22.5246 O.2     1  UNL1       -0.2745
     11 C          -1.4237    4.7191   23.0684 C.3     1  UNL1        0.1116
     12 C          -1.2050    3.8061   24.2384 C.ar    1  UNL1       -0.0130
     13 C          -1.9789    4.0134   25.5064 C.ar    1  UNL1       -0.0022
     14 C          -1.7601    3.1005   26.6763 C.ar    1  UNL1        0.0190
     15 C          -0.7674    1.9803   26.5781 C.ar    1  UNL1        0.0862
     16 C           0.0065    1.7730   25.3101 C.ar    1  UNL1        0.0190
     17 C          -0.2123    2.6859   24.1402 C.ar    1  UNL1       -0.0022
     18 N          -0.5487    1.0673   27.7481 N.ar    1  UNL1       -0.1886
     19 C           0.7804    0.6295   28.2884 C.ar    1  UNL1        0.2258
     20 N           0.5300   -0.2764   29.4573 N.ar    1  UNL1       -0.1045
     21 N          -0.9540   -0.3985   29.6395 N.ar    1  UNL1       -0.0222
     22 N          -1.6206    0.4320   28.5832 N.ar    1  UNL1       -0.0385
     23 C           3.2027    2.1185   19.2496 C.3     1  UNL1        0.0991
     24 C           3.5192    0.6631   19.0718 C.ar    1  UNL1       -0.0062
     25 C           3.7834   -0.1989   20.2706 C.ar    1  UNL1       -0.0030
     26 C           4.0999   -1.6543   20.0928 C.ar    1  UNL1        0.0036
     27 C           4.1522   -2.2477   18.7162 C.ar    1  UNL1        0.0714
     28 C           3.8880   -1.3857   17.5173 C.ar    1  UNL1        0.0036
     29 C           3.5715    0.0697   17.6952 C.ar    1  UNL1       -0.0030
     30 C           4.4687   -3.7031   18.5383 C.3     1  UNL1        0.4186
     31 F           4.7852   -5.1585   18.3605 F       1  UNL1       -0.1659
     32 F           5.8151   -3.3426   17.9841 F       1  UNL1       -0.1659
     33 F           3.1223   -4.0636   19.0925 F       1  UNL1       -0.1659
@<TRIPOS>BOND
     1     7     8    1
     2     8     9   am
     3     9    10    2
     4     9    11    1
     5    11    12    1
     6    12    13   ar
     7    13    14   ar
     8    14    15   ar
     9    15    18    1
    10    18    19   ar
    11    19    20   ar
    12    20    21   ar
    13    21    22   ar
    14    15    16   ar
    15    16    17   ar
    16     8     1    1
    17     1     2    1
    18     2     3    1
    19     3     4    1
    20     4    23    1
    21    23    24    1
    22    24    25   ar
    23    25    26   ar
    24    26    27   ar
    25    27    30    1
    26    30    31    1
    27    30    32    1
    28    30    33    1
    29    27    28   ar
    30    28    29   ar
    31     4     5    1
    32     5     6    1
    33    17    12   ar
    34     6     1    1
    35    22    18   ar
    36    29    24   ar
@<TRIPOS>MOLECULE
*****
 33 36 0 0 0
SMALL
GASTEIGER

@<TRIPOS>ATOM
      1 C           7.1621   -4.4520   28.8369 C.3     1  UNL1        0.0782
      2 C           8.1053   -3.4785   28.1946 C.3     1  UNL1        0.0372
      3 C           8.3245   -3.5142   26.7111 C.3     1  UNL1        0.0741
      4 N           7.6005   -4.5232   25.8700 N.3     1  UNL1       -0.2689
      5 C           6.6572   -5.4967   26.5123 C.3     1  UNL1        0.0741
      6 C           6.4380   -5.4611   27.9958 C.3     1  UNL1        0.0372
      7 C           7.1199   -5.6634   31.1349 C.3     1  UNL1        0.1148
      8 N           6.9428   -4.4164   30.3204 N.am    1  UNL1       -0.2790
      9 C           6.5464   -3.1336   30.9894 C.2     1  UNL1        0.2301
     10 O           6.3272   -3.0980   32.4728 O.2     1  UNL1       -0.2745
     11 C           6.3693   -1.8865   30.1749 C.3     1  UNL1        0.1116
     12 C           4.9911   -1.4068   29.8278 C.ar    1  UNL1       -0.0130
     13 C           4.5610   -1.3359   28.3926 C.ar    1  UNL1       -0.0022
     14 C           3.1828   -0.8562   28.0455 C.ar    1  UNL1        0.0190
     15 C           2.2347   -0.4475   29.1337 C.ar    1  UNL1        0.0862
     16 C           2.6649   -0.5184   30.5689 C.ar    1  UNL1        0.0190
     17 C           4.0430   -0.9981   30.9159 C.ar    1  UNL1       -0.0022
     18 N           0.8565    0.0322   28.7866 N.ar    1  UNL1       -0.1886
     19 C           0.5023    0.9553   27.6585 C.ar    1  UNL1        0.2258
     20 N          -0.9826    1.1666   27.6812 N.ar    1  UNL1       -0.1045
     21 N          -1.5460    0.3742   28.8235 N.ar    1  UNL1       -0.0222
     22 N          -0.4094   -0.3269   29.5065 N.ar    1  UNL1       -0.0385
     23 C           7.8198   -4.5588   24.3865 C.3     1  UNL1        0.0991
     24 C           6.7970   -3.9667   23.4628 C.ar    1  UNL1       -0.0062
     25 C           5.5749   -3.3024   24.0240 C.ar    1  UNL1       -0.0030
     26 C           4.5520   -2.7102   23.1003 C.ar    1  UNL1        0.0036
     27 C           4.7514   -2.7824   21.6153 C.ar    1  UNL1        0.0714
     28 C           5.9736   -3.4468   21.0541 C.ar    1  UNL1        0.0036
     29 C           6.9964   -4.0389   21.9779 C.ar    1  UNL1       -0.0030
     30 C           3.7287   -2.1903   20.6916 C.3     1  UNL1        0.4186
     31 F           2.7059   -1.5982   19.7679 F       1  UNL1       -0.1659
     32 F           4.4390   -2.7954   19.5172 F       1  UNL1       -0.1659
     33 F           3.0183   -1.5852   21.8660 F       1  UNL1       -0.1659
@<TRIPOS>BOND
     1     7     8    1
     2     8     9   am
     3     9    10    2
     4     9    11    1
     5    11    12    1
     6    12    13   ar
     7    13    14   ar
     8    14    15   ar
     9    15    18    1
    10    18    19   ar
    11    19    20   ar
    12    20    21   ar
    13    21    22   ar
    14    15    16   ar
    15    16    17   ar
    16     8     1    1
    17     1     2    1
    18     2     3    1
    19     3     4    1
    20     4    23    1
    21    23    24    1
    22    24    25   ar
    23    25    26   ar
    24    26    27   ar
    25    27    30    1
    26    30    31    1
    27    30    32    1
    28    30    33    1
    29    27    28   ar
    30    28    29   ar
    31     4     5    1
    32     5     6    1
    33    17    12   ar
    34     6     1    1
    35    22    18   ar
    36    29    24   ar
@<TRIPOS>MOLECULE
*****
 33 36 0 0 0
SMALL
GASTEIGER

@<TRIPOS>ATOM
      1 C           0.1858    3.3502   22.7259 C.3     1  UNL1        0.0782
      2 C           1.6741    3.5168   22.6431 C.3     1  UNL1        0.0372
      3 C           2.4207    3.0053   21.4468 C.3     1  UNL1        0.0741
      4 N           1.6788    2.3272   20.3334 N.3     1  UNL1       -0.2689
      5 C           0.1904    2.1605   20.4162 C.3     1  UNL1        0.0741
      6 C          -0.5562    2.6720   21.6125 C.3     1  UNL1        0.0372
      7 C          -1.0831    5.2678   23.9354 C.3     1  UNL1        0.1148
      8 N          -0.5608    3.8617   23.9222 N.am    1  UNL1       -0.2790
      9 C          -0.7850    2.9671   25.1052 C.2     1  UNL1        0.2301
     10 O          -1.5316    3.4787   26.3015 O.2     1  UNL1       -0.2745
     11 C          -0.2627    1.5611   25.0919 C.3     1  UNL1        0.1116
     12 C           0.5353    1.0465   26.2532 C.ar    1  UNL1       -0.0130
     13 C           2.0248    0.9111   26.1385 C.ar    1  UNL1       -0.0022
     14 C           2.8227    0.3965   27.2996 C.ar    1  UNL1        0.0190
     15 C           2.1312    0.0172   28.5756 C.ar    1  UNL1        0.0862
     16 C           0.6418    0.1525   28.6903 C.ar    1  UNL1        0.0190
     17 C          -0.1562    0.6672   27.5291 C.ar    1  UNL1       -0.0022
     18 N           2.9292   -0.4974   29.7368 N.ar    1  UNL1       -0.1886
     19 C           4.4036   -0.7737   29.7401 C.ar    1  UNL1        0.2258
     20 N           4.7786   -1.2731   31.1038 N.ar    1  UNL1       -0.1045
     21 N           3.5360   -1.3056   31.9434 N.ar    1  UNL1       -0.0222
     22 N           2.3930   -0.8262   31.0985 N.ar    1  UNL1       -0.0385
     23 C           2.4254    1.8157   19.1372 C.3     1  UNL1        0.0991
     24 C           2.8770    0.3861   19.0899 C.ar    1  UNL1       -0.0062
     25 C           3.5632   -0.1435   17.8657 C.ar    1  UNL1       -0.0030
     26 C           4.0149   -1.5732   17.8184 C.ar    1  UNL1        0.0036
     27 C           3.7803   -2.4731   18.9952 C.ar    1  UNL1        0.0714
     28 C           3.0941   -1.9435   20.2194 C.ar    1  UNL1        0.0036
     29 C           2.6424   -0.5139   20.2667 C.ar    1  UNL1       -0.0030
     30 C           4.2319   -3.9027   18.9479 C.3     1  UNL1        0.4186
     31 F           4.6836   -5.3323   18.9006 F       1  UNL1       -0.1659
     32 F           5.6619   -3.4526   18.9970 F       1  UNL1       -0.1659
     33 F           2.8020   -4.3529   18.8988 F       1  UNL1       -0.1659
@<TRIPOS>BOND
     1     7     8    1
     2     8     9   am
     3     9    10    2
     4     9    11    1
     5    11    12    1
     6    12    13   ar
     7    13    14   ar
     8    14    15   ar
     9    15    18    1
    10    18    19   ar
    11    19    20   ar
    12    20    21   ar
    13    21    22   ar
    14    15    16   ar
    15    16    17   ar
    16     8     1    1
    17     1     2    1
    18     2     3    1
    19     3     4    1
    20     4    23    1
    21    23    24    1
    22    24    25   ar
    23    25    26   ar
    24    26    27   ar
    25    27    30    1
    26    30    31    1
    27    30    32    1
    28    30    33    1
    29    27    28   ar
    30    28    29   ar
    31     4     5    1
    32     5     6    1
    33    17    12   ar
    34     6     1    1
    35    22    18   ar
    36    29    24   ar
