@<TRIPOS>MOLECULE
*****
 33 37 0 0 0
SMALL
GASTEIGER

@<TRIPOS>ATOM
      1 N         -10.7782  -19.1827   21.6482 N.3     1  UNL1       -0.2672
      2 C          -9.7017  -18.9957   20.6204 C.3     1  UNL1        0.0898
      3 C          -8.2961  -19.4254   20.9198 C.3     1  UNL1        0.0899
      4 N          -7.9670  -20.0422   22.2470 N.3     1  UNL1       -0.2665
      5 C          -9.0434  -20.2292   23.2747 C.3     1  UNL1        0.0899
      6 C         -10.4490  -19.7995   22.9753 C.3     1  UNL1        0.0898
      7 C         -12.1838  -18.7530   21.3488 C.3     1  UNL1        0.1201
      8 C         -12.8744  -17.7690   22.2460 C.3     1  UNL1        0.2226
      9 O         -12.0780  -16.7166   22.9588 O.3     1  UNL1       -0.4739
     10 C          -5.6700  -15.5956   25.1794 C.3     1  UNL1        0.0521
     11 C          -6.9778  -15.7165   24.4549 C.ar    1  UNL1        0.0593
     12 C          -8.1545  -16.3539   25.1325 C.ar    1  UNL1        0.0148
     13 C          -9.4623  -16.4748   24.4079 C.ar    1  UNL1        0.0057
     14 C          -9.5935  -15.9583   23.0058 C.ar    1  UNL1        0.0516
     15 C         -10.9013  -16.0792   22.2813 C.ar    1  UNL1        0.1400
     16 C         -11.0325  -15.5626   20.8792 C.ar    1  UNL1        0.0370
     17 C          -9.8558  -14.9251   20.2016 C.ar    1  UNL1        0.0047
     18 C          -8.5480  -14.8042   20.9261 C.ar    1  UNL1        0.0193
     19 C          -8.4169  -15.3208   22.3283 C.ar    1  UNL1        0.0838
     20 N          -7.1090  -15.1999   23.0528 N.ar    1  UNL1       -0.2496
     21 C          -6.5614  -20.4719   22.5464 C.3     1  UNL1        0.0993
     22 C          -5.4483  -20.1000   21.6121 C.ar    1  UNL1       -0.0047
     23 C          -5.2455  -20.8721   20.3422 C.ar    1  UNL1        0.0003
     24 C          -4.1325  -20.5002   19.4080 C.ar    1  UNL1        0.0379
     25 C          -3.2222  -19.3562   19.7437 C.ar    1  UNL1        0.1528
     26 C          -3.4250  -18.5841   21.0136 C.ar    1  UNL1        0.0879
     27 C          -4.5381  -18.9560   21.9478 C.ar    1  UNL1        0.0151
     28 N          -2.5148  -17.4401   21.3493 N.am    1  UNL1       -0.2512
     29 C          -2.7176  -16.6680   22.6192 C.3     1  UNL1        0.1202
     30 C          -1.4017  -17.0681   20.4151 C.2     1  UNL1        0.2740
     31 O          -0.4915  -15.9241   20.7508 O.2     1  UNL1       -0.2705
     32 C          -1.1989  -17.8402   19.1451 C.3     1  UNL1        0.2900
     33 O          -2.1092  -18.9843   18.8094 O.3     1  UNL1       -0.4643
@<TRIPOS>BOND
     1    10    11    1
     2    11    12   ar
     3    12    13   ar
     4    13    14   ar
     5    14    15   ar
     6    15     9    1
     7     9     8    1
     8     8     7    1
     9     7     1    1
    10     1     2    1
    11     2     3    1
    12     3     4    1
    13     4    21    1
    14    21    22    1
    15    22    23   ar
    16    23    24   ar
    17    24    25   ar
    18    25    26   ar
    19    26    27   ar
    20    26    28    1
    21    28    29    1
    22    28    30   am
    23    30    31    2
    24    30    32    1
    25    32    33    1
    26     4     5    1
    27     5     6    1
    28    15    16   ar
    29    16    17   ar
    30    17    18   ar
    31    18    19   ar
    32    19    20   ar
    33    20    11   ar
    34    19    14   ar
    35     6     1    1
    36    27    22   ar
    37    33    25    1
@<TRIPOS>MOLECULE
*****
 33 37 0 0 0
SMALL
GASTEIGER

@<TRIPOS>ATOM
      1 N          -4.1571  -18.6408   21.7788 N.3     1  UNL1       -0.2672
      2 C          -5.2435  -19.2118   22.6413 C.3     1  UNL1        0.0898
      3 C          -6.5030  -19.7323   22.0145 C.3     1  UNL1        0.0899
      4 N          -6.6760  -19.6818   20.5253 N.3     1  UNL1       -0.2665
      5 C          -5.5897  -19.1108   19.6630 C.3     1  UNL1        0.0899
      6 C          -4.3302  -18.5903   20.2897 C.3     1  UNL1        0.0898
      7 C          -2.8976  -18.1202   22.4055 C.3     1  UNL1        0.1201
      8 C          -2.9244  -16.8454   23.1956 C.3     1  UNL1        0.2226
      9 O          -4.0936  -15.9133   23.0759 O.3     1  UNL1       -0.4739
     10 C         -10.9650  -15.7750   22.9579 C.3     1  UNL1        0.0521
     11 C          -9.4971  -15.7855   23.2660 C.ar    1  UNL1        0.0593
     12 C          -8.4976  -15.8819   22.1517 C.ar    1  UNL1        0.0148
     13 C          -7.0296  -15.8924   22.4597 C.ar    1  UNL1        0.0057
     14 C          -6.5611  -15.8064   23.8821 C.ar    1  UNL1        0.0516
     15 C          -5.0931  -15.8169   24.1901 C.ar    1  UNL1        0.1400
     16 C          -4.6246  -15.7310   25.6125 C.ar    1  UNL1        0.0370
     17 C          -5.6241  -15.6346   26.7269 C.ar    1  UNL1        0.0047
     18 C          -7.0921  -15.6242   26.4188 C.ar    1  UNL1        0.0193
     19 C          -7.5606  -15.7101   24.9964 C.ar    1  UNL1        0.0838
     20 N          -9.0286  -15.6996   24.6883 N.ar    1  UNL1       -0.2496
     21 C          -7.9355  -20.2024   19.8986 C.3     1  UNL1        0.0993
     22 C          -9.2619  -19.6163   20.2824 C.ar    1  UNL1       -0.0047
     23 C         -10.1295  -18.9769   19.2391 C.ar    1  UNL1        0.0003
     24 C         -11.4558  -18.3909   19.6230 C.ar    1  UNL1        0.0379
     25 C         -11.9146  -18.4444   21.0501 C.ar    1  UNL1        0.1528
     26 C         -11.0471  -19.0838   22.0934 C.ar    1  UNL1        0.0879
     27 C          -9.7207  -19.6698   21.7095 C.ar    1  UNL1        0.0151
     28 N         -11.5059  -19.1372   23.5205 N.am    1  UNL1       -0.2512
     29 C         -10.6383  -19.7766   24.5638 C.3     1  UNL1        0.1202
     30 C         -12.8322  -18.5512   23.9043 C.2     1  UNL1        0.2740
     31 O         -13.2910  -18.6046   25.3314 O.2     1  UNL1       -0.2705
     32 C         -13.6999  -17.9118   22.8610 C.3     1  UNL1        0.2900
     33 O         -13.2411  -17.8583   21.4339 O.3     1  UNL1       -0.4643
@<TRIPOS>BOND
     1    10    11    1
     2    11    12   ar
     3    12    13   ar
     4    13    14   ar
     5    14    15   ar
     6    15     9    1
     7     9     8    1
     8     8     7    1
     9     7     1    1
    10     1     2    1
    11     2     3    1
    12     3     4    1
    13     4    21    1
    14    21    22    1
    15    22    23   ar
    16    23    24   ar
    17    24    25   ar
    18    25    26   ar
    19    26    27   ar
    20    26    28    1
    21    28    29    1
    22    28    30   am
    23    30    31    2
    24    30    32    1
    25    32    33    1
    26     4     5    1
    27     5     6    1
    28    15    16   ar
    29    16    17   ar
    30    17    18   ar
    31    18    19   ar
    32    19    20   ar
    33    20    11   ar
    34    19    14   ar
    35     6     1    1
    36    27    22   ar
    37    33    25    1
@<TRIPOS>MOLECULE
*****
 33 37 0 0 0
SMALL
GASTEIGER

@<TRIPOS>ATOM
      1 N           6.6031   -2.2493   19.8270 N.3     1  UNL1       -0.2672
      2 C           6.4411   -0.7642   19.9633 C.3     1  UNL1        0.0898
      3 C           5.3032   -0.0678   19.2776 C.3     1  UNL1        0.0899
      4 N           4.3273   -0.8565   18.4555 N.3     1  UNL1       -0.2665
      5 C           4.4893   -2.3414   18.3192 C.3     1  UNL1        0.0899
      6 C           5.6272   -3.0378   19.0049 C.3     1  UNL1        0.0898
      7 C           7.7410   -2.9457   20.5127 C.3     1  UNL1        0.1201
      8 C           7.5265   -4.2889   21.1451 C.3     1  UNL1        0.2226
      9 O           6.3327   -4.5225   22.0229 O.3     1  UNL1       -0.4739
     10 C           2.1315    0.4926   24.1320 C.3     1  UNL1        0.0521
     11 C           3.1550   -0.5861   23.9353 C.ar    1  UNL1        0.0593
     12 C           3.2622   -1.2862   22.6130 C.ar    1  UNL1        0.0148
     13 C           4.2857   -2.3649   22.4163 C.ar    1  UNL1        0.0057
     14 C           5.2020   -2.7437   23.5418 C.ar    1  UNL1        0.0516
     15 C           6.2255   -3.8225   23.3451 C.ar    1  UNL1        0.1400
     16 C           7.1418   -4.2012   24.4707 C.ar    1  UNL1        0.0370
     17 C           7.0346   -3.5011   25.7930 C.ar    1  UNL1        0.0047
     18 C           6.0111   -2.4224   25.9897 C.ar    1  UNL1        0.0193
     19 C           5.0948   -2.0437   24.8641 C.ar    1  UNL1        0.0838
     20 N           4.0713   -0.9649   25.0608 N.ar    1  UNL1       -0.2496
     21 C           3.1894   -0.1601   17.7698 C.3     1  UNL1        0.0993
     22 C           2.0573    0.4014   18.5780 C.ar    1  UNL1       -0.0047
     23 C           1.5007   -0.3784   19.7321 C.ar    1  UNL1        0.0003
     24 C           0.3687    0.1832   20.5403 C.ar    1  UNL1        0.0379
     25 C          -0.2067    1.5245   20.1943 C.ar    1  UNL1        0.1528
     26 C           0.3498    2.3043   19.0402 C.ar    1  UNL1        0.0879
     27 C           1.4819    1.7428   18.2320 C.ar    1  UNL1        0.0151
     28 N          -0.2256    3.6456   18.6942 N.am    1  UNL1       -0.2512
     29 C           0.3310    4.4254   17.5400 C.3     1  UNL1        0.1202
     30 C          -1.3576    4.2071   19.5023 C.2     1  UNL1        0.2740
     31 O          -1.9331    5.5485   19.1564 O.2     1  UNL1       -0.2705
     32 C          -1.9143    3.4273   20.6566 C.3     1  UNL1        0.2900
     33 O          -1.3388    2.0860   21.0025 O.3     1  UNL1       -0.4643
@<TRIPOS>BOND
     1    10    11    1
     2    11    12   ar
     3    12    13   ar
     4    13    14   ar
     5    14    15   ar
     6    15     9    1
     7     9     8    1
     8     8     7    1
     9     7     1    1
    10     1     2    1
    11     2     3    1
    12     3     4    1
    13     4    21    1
    14    21    22    1
    15    22    23   ar
    16    23    24   ar
    17    24    25   ar
    18    25    26   ar
    19    26    27   ar
    20    26    28    1
    21    28    29    1
    22    28    30   am
    23    30    31    2
    24    30    32    1
    25    32    33    1
    26     4     5    1
    27     5     6    1
    28    15    16   ar
    29    16    17   ar
    30    17    18   ar
    31    18    19   ar
    32    19    20   ar
    33    20    11   ar
    34    19    14   ar
    35     6     1    1
    36    27    22   ar
    37    33    25    1
@<TRIPOS>MOLECULE
*****
 33 37 0 0 0
SMALL
GASTEIGER

@<TRIPOS>ATOM
      1 N           6.3683   -3.1370   20.1597 N.3     1  UNL1       -0.2672
      2 C           5.2607   -3.6933   19.3147 C.3     1  UNL1        0.0898
      3 C           4.3157   -2.7651   18.6109 C.3     1  UNL1        0.0899
      4 N           4.4782   -1.2806   18.7520 N.3     1  UNL1       -0.2665
      5 C           5.5857   -0.7244   19.5970 C.3     1  UNL1        0.0899
      6 C           6.5308   -1.6526   20.3008 C.3     1  UNL1        0.0898
      7 C           7.3133   -4.0652   20.8635 C.3     1  UNL1        0.1201
      8 C           7.4927   -3.9678   22.3496 C.3     1  UNL1        0.2226
      9 O           6.8604   -4.9875   23.2498 O.3     1  UNL1       -0.4739
     10 C           7.3615   -5.9418   30.0386 C.3     1  UNL1        0.0521
     11 C           7.4517   -5.9361   28.5413 C.ar    1  UNL1        0.0593
     12 C           6.5899   -5.0046   27.7416 C.ar    1  UNL1        0.0148
     13 C           6.6801   -4.9989   26.2443 C.ar    1  UNL1        0.0057
     14 C           7.6320   -5.9247   25.5468 C.ar    1  UNL1        0.0516
     15 C           7.7222   -5.9190   24.0495 C.ar    1  UNL1        0.1400
     16 C           8.6741   -6.8448   23.3519 C.ar    1  UNL1        0.0370
     17 C           9.5359   -7.7764   24.1517 C.ar    1  UNL1        0.0047
     18 C           9.4458   -7.7821   25.6489 C.ar    1  UNL1        0.0193
     19 C           8.4938   -6.8562   26.3465 C.ar    1  UNL1        0.0838
     20 N           8.4036   -6.8619   27.8438 N.ar    1  UNL1       -0.2496
     21 C           3.5332   -0.3524   18.0482 C.3     1  UNL1        0.0993
     22 C           2.3803    0.2514   18.7941 C.ar    1  UNL1       -0.0047
     23 C           1.6405   -0.5602   19.8159 C.ar    1  UNL1        0.0003
     24 C           0.4876    0.0436   20.5617 C.ar    1  UNL1        0.0379
     25 C           0.0745    1.4590   20.2858 C.ar    1  UNL1        0.1528
     26 C           0.8143    2.2705   19.2640 C.ar    1  UNL1        0.0879
     27 C           1.9672    1.6668   18.5182 C.ar    1  UNL1        0.0151
     28 N           0.4012    3.6859   18.9881 N.am    1  UNL1       -0.2512
     29 C           1.1410    4.4974   17.9663 C.3     1  UNL1        0.1202
     30 C          -0.7516    4.2897   19.7339 C.2     1  UNL1        0.2740
     31 O          -1.1647    5.7050   19.4580 O.2     1  UNL1       -0.2705
     32 C          -1.4915    3.4781   20.7557 C.3     1  UNL1        0.2900
     33 O          -1.0784    2.0627   21.0317 O.3     1  UNL1       -0.4643
@<TRIPOS>BOND
     1    10    11    1
     2    11    12   ar
     3    12    13   ar
     4    13    14   ar
     5    14    15   ar
     6    15     9    1
     7     9     8    1
     8     8     7    1
     9     7     1    1
    10     1     2    1
    11     2     3    1
    12     3     4    1
    13     4    21    1
    14    21    22    1
    15    22    23   ar
    16    23    24   ar
    17    24    25   ar
    18    25    26   ar
    19    26    27   ar
    20    26    28    1
    21    28    29    1
    22    28    30   am
    23    30    31    2
    24    30    32    1
    25    32    33    1
    26     4     5    1
    27     5     6    1
    28    15    16   ar
    29    16    17   ar
    30    17    18   ar
    31    18    19   ar
    32    19    20   ar
    33    20    11   ar
    34    19    14   ar
    35     6     1    1
    36    27    22   ar
    37    33    25    1
@<TRIPOS>MOLECULE
*****
 33 37 0 0 0
SMALL
GASTEIGER

@<TRIPOS>ATOM
      1 N         -10.5850  -19.0515   20.9514 N.3     1  UNL1       -0.2672
      2 C          -9.3757  -18.5346   20.2299 C.3     1  UNL1        0.0898
      3 C          -8.0047  -18.9641   20.6610 C.3     1  UNL1        0.0899
      4 N          -7.8430  -19.9105   21.8136 N.3     1  UNL1       -0.2665
      5 C          -9.0523  -20.4274   22.5349 C.3     1  UNL1        0.0899
      6 C         -10.4233  -19.9978   22.1038 C.3     1  UNL1        0.0898
      7 C         -11.9560  -18.6220   20.5203 C.3     1  UNL1        0.1201
      8 C         -12.3664  -17.1848   20.6478 C.3     1  UNL1        0.2226
      9 O         -12.3729  -16.5233   21.9940 O.3     1  UNL1       -0.4739
     10 C          -5.8630  -15.4016   23.8950 C.3     1  UNL1        0.0521
     11 C          -7.2884  -15.8265   23.7006 C.ar    1  UNL1        0.0593
     12 C          -8.0967  -15.2486   22.5771 C.ar    1  UNL1        0.0148
     13 C          -9.5221  -15.6735   22.3827 C.ar    1  UNL1        0.0057
     14 C         -10.1391  -16.6764   23.3119 C.ar    1  UNL1        0.0516
     15 C         -11.5645  -17.1013   23.1175 C.ar    1  UNL1        0.1400
     16 C         -12.1815  -18.1041   24.0467 C.ar    1  UNL1        0.0370
     17 C         -11.3731  -18.6822   25.1704 C.ar    1  UNL1        0.0047
     18 C          -9.9478  -18.2573   25.3647 C.ar    1  UNL1        0.0193
     19 C          -9.3308  -17.2543   24.4355 C.ar    1  UNL1        0.0838
     20 N          -7.9054  -16.8294   24.6298 N.ar    1  UNL1       -0.2496
     21 C          -6.4720  -20.3400   22.2447 C.3     1  UNL1        0.0993
     22 C          -5.2787  -19.9938   21.4042 C.ar    1  UNL1       -0.0047
     23 C          -4.9539  -20.8120   20.1897 C.ar    1  UNL1        0.0003
     24 C          -3.7607  -20.4658   19.3493 C.ar    1  UNL1        0.0379
     25 C          -2.8922  -19.3014   19.7234 C.ar    1  UNL1        0.1528
     26 C          -3.2170  -18.4832   20.9379 C.ar    1  UNL1        0.0879
     27 C          -4.4103  -18.8294   21.7783 C.ar    1  UNL1        0.0151
     28 N          -2.3486  -17.3188   21.3120 N.am    1  UNL1       -0.2512
     29 C          -2.6734  -16.5006   22.5265 C.3     1  UNL1        0.1202
     30 C          -1.1554  -16.9726   20.4716 C.2     1  UNL1        0.2740
     31 O          -0.2869  -15.8081   20.8457 O.2     1  UNL1       -0.2705
     32 C          -0.8305  -17.7908   19.2571 C.3     1  UNL1        0.2900
     33 O          -1.6989  -18.9552   18.8830 O.3     1  UNL1       -0.4643
@<TRIPOS>BOND
     1    10    11    1
     2    11    12   ar
     3    12    13   ar
     4    13    14   ar
     5    14    15   ar
     6    15     9    1
     7     9     8    1
     8     8     7    1
     9     7     1    1
    10     1     2    1
    11     2     3    1
    12     3     4    1
    13     4    21    1
    14    21    22    1
    15    22    23   ar
    16    23    24   ar
    17    24    25   ar
    18    25    26   ar
    19    26    27   ar
    20    26    28    1
    21    28    29    1
    22    28    30   am
    23    30    31    2
    24    30    32    1
    25    32    33    1
    26     4     5    1
    27     5     6    1
    28    15    16   ar
    29    16    17   ar
    30    17    18   ar
    31    18    19   ar
    32    19    20   ar
    33    20    11   ar
    34    19    14   ar
    35     6     1    1
    36    27    22   ar
    37    33    25    1
@<TRIPOS>MOLECULE
*****
 33 37 0 0 0
SMALL
GASTEIGER

@<TRIPOS>ATOM
      1 N           7.5906   -6.1290   26.0236 N.3     1  UNL1       -0.2672
      2 C           8.3640   -7.1089   26.8554 C.3     1  UNL1        0.0898
      3 C           8.2748   -7.0571   28.3518 C.3     1  UNL1        0.0899
      4 N           7.4122   -6.0254   29.0165 N.3     1  UNL1       -0.2665
      5 C           6.6389   -5.0456   28.1847 C.3     1  UNL1        0.0899
      6 C           6.7281   -5.0974   26.6883 C.3     1  UNL1        0.0898
      7 C           7.6798   -6.1808   24.5271 C.3     1  UNL1        0.1201
      8 C           7.8201   -4.9117   23.7398 C.3     1  UNL1        0.2226
      9 O           6.9901   -4.6971   22.5089 O.3     1  UNL1       -0.4739
     10 C           4.0988   -1.2808   17.2917 C.3     1  UNL1        0.0521
     11 C           4.5555   -1.8707   18.5931 C.ar    1  UNL1        0.0593
     12 C           5.6201   -2.9273   18.6050 C.ar    1  UNL1        0.0148
     13 C           6.0768   -3.5172   19.9063 C.ar    1  UNL1        0.0057
     14 C           5.4688   -3.0506   21.1957 C.ar    1  UNL1        0.0516
     15 C           5.9255   -3.6405   22.4970 C.ar    1  UNL1        0.1400
     16 C           5.3175   -3.1739   23.7864 C.ar    1  UNL1        0.0370
     17 C           4.2529   -2.1173   23.7745 C.ar    1  UNL1        0.0047
     18 C           3.7962   -1.5273   22.4732 C.ar    1  UNL1        0.0193
     19 C           4.4042   -1.9940   21.1838 C.ar    1  UNL1        0.0838
     20 N           3.9476   -1.4041   19.8825 N.ar    1  UNL1       -0.2496
     21 C           7.3230   -5.9736   30.5129 C.3     1  UNL1        0.0993
     22 C           7.6615   -4.7066   31.2410 C.ar    1  UNL1       -0.0047
     23 C           9.0917   -4.2715   31.3642 C.ar    1  UNL1        0.0003
     24 C           9.4301   -3.0045   32.0923 C.ar    1  UNL1        0.0379
     25 C           8.3383   -2.1726   32.6972 C.ar    1  UNL1        0.1528
     26 C           6.9081   -2.6077   32.5740 C.ar    1  UNL1        0.0879
     27 C           6.5697   -3.8747   31.8460 C.ar    1  UNL1        0.0151
     28 N           5.8163   -1.7757   33.1790 N.am    1  UNL1       -0.2512
     29 C           4.3862   -2.2108   33.0558 C.3     1  UNL1        0.1202
     30 C           6.1548   -0.5087   33.9070 C.2     1  UNL1        0.2740
     31 O           5.0630    0.3232   34.5120 O.2     1  UNL1       -0.2705
     32 C           7.5850   -0.0736   34.0302 C.3     1  UNL1        0.2900
     33 O           8.6768   -0.9055   33.4253 O.3     1  UNL1       -0.4643
@<TRIPOS>BOND
     1    10    11    1
     2    11    12   ar
     3    12    13   ar
     4    13    14   ar
     5    14    15   ar
     6    15     9    1
     7     9     8    1
     8     8     7    1
     9     7     1    1
    10     1     2    1
    11     2     3    1
    12     3     4    1
    13     4    21    1
    14    21    22    1
    15    22    23   ar
    16    23    24   ar
    17    24    25   ar
    18    25    26   ar
    19    26    27   ar
    20    26    28    1
    21    28    29    1
    22    28    30   am
    23    30    31    2
    24    30    32    1
    25    32    33    1
    26     4     5    1
    27     5     6    1
    28    15    16   ar
    29    16    17   ar
    30    17    18   ar
    31    18    19   ar
    32    19    20   ar
    33    20    11   ar
    34    19    14   ar
    35     6     1    1
    36    27    22   ar
    37    33    25    1
@<TRIPOS>MOLECULE
*****
 33 37 0 0 0
SMALL
GASTEIGER

@<TRIPOS>ATOM
      1 N           5.6101   -3.3991   20.6981 N.3     1  UNL1       -0.2672
      2 C           6.9337   -2.8242   21.1078 C.3     1  UNL1        0.0898
      3 C           7.1505   -2.3749   22.5224 C.3     1  UNL1        0.0899
      4 N           6.0438   -2.5003   23.5272 N.3     1  UNL1       -0.2665
      5 C           4.7203   -3.0751   23.1174 C.3     1  UNL1        0.0899
      6 C           4.5035   -3.5245   21.7028 C.3     1  UNL1        0.0898
      7 C           5.3933   -3.8485   19.2835 C.3     1  UNL1        0.1201
      8 C           5.7857   -2.9550   18.1442 C.3     1  UNL1        0.2226
      9 O           4.7572   -2.0845   17.4851 O.3     1  UNL1       -0.4739
     10 C           0.6070    1.1398   21.9155 C.3     1  UNL1        0.0521
     11 C           1.6184    0.6962   20.9006 C.ar    1  UNL1        0.0593
     12 C           1.7228   -0.7535   20.5299 C.ar    1  UNL1        0.0148
     13 C           2.7343   -1.1972   19.5150 C.ar    1  UNL1        0.0057
     14 C           3.6413   -0.1912   18.8707 C.ar    1  UNL1        0.0516
     15 C           4.6528   -0.6348   17.8558 C.ar    1  UNL1        0.1400
     16 C           5.5599    0.3712   17.2115 C.ar    1  UNL1        0.0370
     17 C           5.4555    1.8210   17.5822 C.ar    1  UNL1        0.0047
     18 C           4.4440    2.2646   18.5971 C.ar    1  UNL1        0.0193
     19 C           3.5369    1.2585   19.2414 C.ar    1  UNL1        0.0838
     20 N           2.5255    1.7022   20.2563 N.ar    1  UNL1       -0.2496
     21 C           6.2607   -2.0509   24.9418 C.3     1  UNL1        0.0993
     22 C           6.4856   -3.0644   26.0246 C.ar    1  UNL1       -0.0047
     23 C           6.8355   -4.4785   25.6672 C.ar    1  UNL1        0.0003
     24 C           7.0604   -5.4919   26.7500 C.ar    1  UNL1        0.0379
     25 C           6.9354   -5.0912   28.1901 C.ar    1  UNL1        0.1528
     26 C           6.5855   -3.6771   28.5474 C.ar    1  UNL1        0.0879
     27 C           6.3606   -2.6637   27.4646 C.ar    1  UNL1        0.0151
     28 N           6.4605   -3.2763   29.9874 N.am    1  UNL1       -0.2512
     29 C           6.1106   -1.8622   30.3447 C.3     1  UNL1        0.1202
     30 C           6.6854   -4.2897   31.0702 C.2     1  UNL1        0.2740
     31 O           6.5604   -3.8890   32.5102 O.2     1  UNL1       -0.2705
     32 C           7.0354   -5.7039   30.7129 C.3     1  UNL1        0.2900
     33 O           7.1604   -6.1047   29.2728 O.3     1  UNL1       -0.4643
@<TRIPOS>BOND
     1    10    11    1
     2    11    12   ar
     3    12    13   ar
     4    13    14   ar
     5    14    15   ar
     6    15     9    1
     7     9     8    1
     8     8     7    1
     9     7     1    1
    10     1     2    1
    11     2     3    1
    12     3     4    1
    13     4    21    1
    14    21    22    1
    15    22    23   ar
    16    23    24   ar
    17    24    25   ar
    18    25    26   ar
    19    26    27   ar
    20    26    28    1
    21    28    29    1
    22    28    30   am
    23    30    31    2
    24    30    32    1
    25    32    33    1
    26     4     5    1
    27     5     6    1
    28    15    16   ar
    29    16    17   ar
    30    17    18   ar
    31    18    19   ar
    32    19    20   ar
    33    20    11   ar
    34    19    14   ar
    35     6     1    1
    36    27    22   ar
    37    33    25    1
@<TRIPOS>MOLECULE
*****
 33 37 0 0 0
SMALL
GASTEIGER

@<TRIPOS>ATOM
      1 N           5.6225   -2.2220   18.6410 N.3     1  UNL1       -0.2672
      2 C           5.3731   -3.3936   19.5439 C.3     1  UNL1        0.0898
      3 C           6.4906   -3.9519   20.3742 C.3     1  UNL1        0.0899
      4 N           7.8576   -3.3386   20.3016 N.3     1  UNL1       -0.2665
      5 C           8.1070   -2.1670   19.3988 C.3     1  UNL1        0.0899
      6 C           6.9895   -1.6087   18.5684 C.3     1  UNL1        0.0898
      7 C           4.5050   -1.6637   17.8107 C.3     1  UNL1        0.1201
      8 C           3.5136   -0.7201   18.4246 C.3     1  UNL1        0.2226
      9 O           2.4337   -1.2468   19.3226 O.3     1  UNL1       -0.4739
     10 C           3.9232   -0.7799   26.0169 C.3     1  UNL1        0.0521
     11 C           3.4073   -0.6781   24.6121 C.ar    1  UNL1        0.0593
     12 C           3.9814   -1.5524   23.5370 C.ar    1  UNL1        0.0148
     13 C           3.4655   -1.4505   22.1322 C.ar    1  UNL1        0.0057
     14 C           2.3754   -0.4743   21.8025 C.ar    1  UNL1        0.0516
     15 C           1.8595   -0.3725   20.3977 C.ar    1  UNL1        0.1400
     16 C           0.7695    0.6037   20.0680 C.ar    1  UNL1        0.0370
     17 C           0.1952    1.4781   21.1431 C.ar    1  UNL1        0.0047
     18 C           0.7112    1.3762   22.5479 C.ar    1  UNL1        0.0193
     19 C           1.8013    0.4000   22.8776 C.ar    1  UNL1        0.0838
     20 N           2.3172    0.2981   24.2824 N.ar    1  UNL1       -0.2496
     21 C           8.9751   -3.8969   21.1320 C.3     1  UNL1        0.0993
     22 C           8.6771   -4.8712   22.2329 C.ar    1  UNL1       -0.0047
     23 C           9.0766   -6.3099   22.0897 C.ar    1  UNL1        0.0003
     24 C           8.7785   -7.2841   23.1906 C.ar    1  UNL1        0.0379
     25 C           8.0810   -6.8196   24.4347 C.ar    1  UNL1        0.1528
     26 C           7.6815   -5.3809   24.5779 C.ar    1  UNL1        0.0879
     27 C           7.9795   -4.4067   23.4770 C.ar    1  UNL1        0.0151
     28 N           6.9840   -4.9164   25.8219 N.am    1  UNL1       -0.2512
     29 C           6.5845   -3.4778   25.9651 C.3     1  UNL1        0.1202
     30 C           6.6859   -5.8907   26.9228 C.2     1  UNL1        0.2740
     31 O           5.9884   -5.4262   28.1669 O.2     1  UNL1       -0.2705
     32 C           7.0854   -7.3294   26.7797 C.3     1  UNL1        0.2900
     33 O           7.7829   -7.7939   25.5356 O.3     1  UNL1       -0.4643
@<TRIPOS>BOND
     1    10    11    1
     2    11    12   ar
     3    12    13   ar
     4    13    14   ar
     5    14    15   ar
     6    15     9    1
     7     9     8    1
     8     8     7    1
     9     7     1    1
    10     1     2    1
    11     2     3    1
    12     3     4    1
    13     4    21    1
    14    21    22    1
    15    22    23   ar
    16    23    24   ar
    17    24    25   ar
    18    25    26   ar
    19    26    27   ar
    20    26    28    1
    21    28    29    1
    22    28    30   am
    23    30    31    2
    24    30    32    1
    25    32    33    1
    26     4     5    1
    27     5     6    1
    28    15    16   ar
    29    16    17   ar
    30    17    18   ar
    31    18    19   ar
    32    19    20   ar
    33    20    11   ar
    34    19    14   ar
    35     6     1    1
    36    27    22   ar
    37    33    25    1
@<TRIPOS>MOLECULE
*****
 33 37 0 0 0
SMALL
GASTEIGER

@<TRIPOS>ATOM
      1 N           2.8243    0.6787   18.0259 N.3     1  UNL1       -0.2672
      2 C           3.6371    1.8514   18.4889 C.3     1  UNL1        0.0898
      3 C           2.9593    3.0313   19.1201 C.3     1  UNL1        0.0899
      4 N           1.4688    3.0385   19.2885 N.3     1  UNL1       -0.2665
      5 C           0.6561    1.8659   18.8255 C.3     1  UNL1        0.0899
      6 C           1.3338    0.6860   18.1943 C.3     1  UNL1        0.0898
      7 C           3.5021   -0.5012   17.3947 C.3     1  UNL1        0.1201
      8 C           4.1938   -1.5173   18.2545 C.3     1  UNL1        0.2226
      9 O           3.4006   -2.3486   19.2186 O.3     1  UNL1       -0.4739
     10 C           1.9556    1.1998   24.9257 C.3     1  UNL1        0.0521
     11 C           2.4364    0.2695   23.8517 C.ar    1  UNL1        0.0593
     12 C           1.9583    0.4422   22.4406 C.ar    1  UNL1        0.0148
     13 C           2.4390   -0.4881   21.3666 C.ar    1  UNL1        0.0057
     14 C           3.3979   -1.5911   21.7038 C.ar    1  UNL1        0.0516
     15 C           3.8787   -2.5214   20.6298 C.ar    1  UNL1        0.1400
     16 C           4.8376   -3.6244   20.9670 C.ar    1  UNL1        0.0370
     17 C           5.3158   -3.7972   22.3783 C.ar    1  UNL1        0.0047
     18 C           4.8350   -2.8669   23.4523 C.ar    1  UNL1        0.0193
     19 C           3.8761   -1.7639   23.1150 C.ar    1  UNL1        0.0838
     20 N           3.3953   -0.8336   24.1890 N.ar    1  UNL1       -0.2496
     21 C           0.7910    4.2184   19.9197 C.3     1  UNL1        0.0993
     22 C          -0.1558    4.0151   21.0653 C.ar    1  UNL1       -0.0047
     23 C           0.3783    3.7661   22.4446 C.ar    1  UNL1        0.0003
     24 C          -0.5686    3.5628   23.5901 C.ar    1  UNL1        0.0379
     25 C          -2.0495    3.6085   23.3562 C.ar    1  UNL1        0.1528
     26 C          -2.5836    3.8576   21.9768 C.ar    1  UNL1        0.0879
     27 C          -1.6368    4.0609   20.8314 C.ar    1  UNL1        0.0151
     28 N          -4.0646    3.9034   21.7429 N.am    1  UNL1       -0.2512
     29 C          -4.5987    4.1524   20.3636 C.3     1  UNL1        0.1202
     30 C          -5.0114    3.7001   22.8884 C.2     1  UNL1        0.2740
     31 O          -6.4923    3.7458   22.6545 O.2     1  UNL1       -0.2705
     32 C          -4.4773    3.4510   24.2678 C.3     1  UNL1        0.2900
     33 O          -2.9964    3.4052   24.5017 O.3     1  UNL1       -0.4643
@<TRIPOS>BOND
     1    10    11    1
     2    11    12   ar
     3    12    13   ar
     4    13    14   ar
     5    14    15   ar
     6    15     9    1
     7     9     8    1
     8     8     7    1
     9     7     1    1
    10     1     2    1
    11     2     3    1
    12     3     4    1
    13     4    21    1
    14    21    22    1
    15    22    23   ar
    16    23    24   ar
    17    24    25   ar
    18    25    26   ar
    19    26    27   ar
    20    26    28    1
    21    28    29    1
    22    28    30   am
    23    30    31    2
    24    30    32    1
    25    32    33    1
    26     4     5    1
    27     5     6    1
    28    15    16   ar
    29    16    17   ar
    30    17    18   ar
    31    18    19   ar
    32    19    20   ar
    33    20    11   ar
    34    19    14   ar
    35     6     1    1
    36    27    22   ar
    37    33    25    1
