@<TRIPOS>MOLECULE
*****
 32 36 0 0 0
SMALL
GASTEIGER

@<TRIPOS>ATOM
      1 N         -10.0871  -17.5113   21.6809 N.3     1  UNL1       -0.2692
      2 C          -9.6578  -18.5444   20.6817 C.3     1  UNL1        0.0978
      3 C         -10.6008  -18.9777   19.5986 C.3     1  UNL1        0.0224
      4 C         -10.1716  -20.0108   18.5994 C.3     1  UNL1        0.0065
      5 C          -8.7993  -20.6106   18.6832 C.3     1  UNL1        0.0277
      6 C          -7.8563  -20.1773   19.7662 C.ar    1  UNL1       -0.0073
      7 C          -6.4840  -20.7772   19.8501 C.ar    1  UNL1       -0.0015
      8 C          -5.5410  -20.3439   20.9331 C.ar    1  UNL1        0.0203
      9 C          -5.9702  -19.3108   21.9324 C.ar    1  UNL1        0.0985
     10 N          -7.3425  -18.7110   21.8485 N.ar    1  UNL1       -0.2471
     11 C          -8.2856  -19.1442   20.7655 C.ar    1  UNL1        0.0695
     12 N         -14.6209  -18.6710   25.4358 N.3     1  UNL1       -0.3222
     13 C         -13.4875  -18.3811   24.4970 C.3     1  UNL1        0.0509
     14 C         -13.7108  -17.5065   23.2990 C.3     1  UNL1        0.0169
     15 C         -12.5774  -17.2166   22.3603 C.3     1  UNL1        0.0173
     16 C         -11.2205  -17.8013   22.6196 C.3     1  UNL1        0.0579
     17 C         -10.9972  -18.6758   23.8176 C.3     1  UNL1        0.0173
     18 C         -12.1307  -18.9658   24.7563 C.3     1  UNL1        0.0169
     19 H         -15.4627  -18.1966   25.1091 H       1  UNL1        0.1188
     20 H         -14.3829  -18.3368   26.3696 H       1  UNL1        0.1188
     21 C          -9.3829  -16.1883   21.7414 C.3     1  UNL1        0.0885
     22 C          -8.4552  -15.8838   22.8802 C.3     1  UNL1        0.0748
     23 C          -8.9878  -15.8016   24.2800 C.3     1  UNL1        0.0432
     24 C          -8.0601  -15.4971   25.4188 C.ar    1  UNL1       -0.0234
     25 C          -8.5926  -15.4148   26.8186 C.ar    1  UNL1       -0.0045
     26 C          -7.6649  -15.1104   27.9573 C.ar    1  UNL1       -0.0003
     27 C          -6.2047  -14.8881   27.6961 C.ar    1  UNL1       -0.0003
     28 C          -5.6721  -14.9704   26.2963 C.ar    1  UNL1       -0.0032
     29 C          -6.5998  -15.2749   25.1576 C.ar    1  UNL1       -0.0103
     30 C          -6.0672  -15.3571   23.7577 C.3     1  UNL1        0.0953
     31 N          -6.9949  -15.6616   22.6190 N.3     1  UNL1       -0.2934
     32 H          -6.6437  -16.5082   22.1714 H       1  UNL1        0.1236
@<TRIPOS>BOND
     1    13    12    1
     2    13    14    1
     3    14    15    1
     4    15    16    1
     5    16     1    1
     6     1    21    1
     7    22    21    1
     8    22    23    1
     9    23    24    1
    10    24    25   ar
    11    25    26   ar
    12    26    27   ar
    13    27    28   ar
    14    28    29   ar
    15    29    30    1
    16    30    31    1
    17     2     1    1
    18     2     3    1
    19     3     4    1
    20     4     5    1
    21     5     6    1
    22     6     7   ar
    23     7     8   ar
    24     8     9   ar
    25     9    10   ar
    26    10    11   ar
    27    16    17    1
    28    17    18    1
    29    18    13    1
    30    31    22    1
    31    11     2    1
    32    29    24   ar
    33    11     6   ar
    34    12    19    1
    35    12    20    1
    36    31    32    1
@<TRIPOS>MOLECULE
*****
 32 36 0 0 0
SMALL
GASTEIGER

@<TRIPOS>ATOM
      1 N          -9.4513  -18.3073   23.7551 N.3     1  UNL1       -0.2692
      2 C         -10.8661  -18.0297   23.3414 C.3     1  UNL1        0.0978
      3 C         -12.0039  -18.4932   24.2019 C.3     1  UNL1        0.0224
      4 C         -13.4187  -18.2156   23.7882 C.3     1  UNL1        0.0065
      5 C         -13.6958  -17.4744   22.5140 C.3     1  UNL1        0.0277
      6 C         -12.5580  -17.0109   21.6534 C.ar    1  UNL1       -0.0073
      7 C         -12.8351  -16.2696   20.3790 C.ar    1  UNL1       -0.0015
      8 C         -11.6974  -15.8061   19.5185 C.ar    1  UNL1        0.0203
      9 C         -10.2825  -16.0838   19.9322 C.ar    1  UNL1        0.0985
     10 N         -10.0054  -16.8249   21.2064 N.ar    1  UNL1       -0.2471
     11 C         -11.1432  -17.2885   22.0671 C.ar    1  UNL1        0.0695
     12 N          -6.6021  -14.5177   27.4321 N.3     1  UNL1       -0.3222
     13 C          -7.3144  -15.4651   26.5129 C.3     1  UNL1        0.0509
     14 C          -8.2476  -16.4962   27.0749 C.3     1  UNL1        0.0169
     15 C          -8.9599  -17.4436   26.1556 C.3     1  UNL1        0.0173
     16 C          -8.7390  -17.3599   24.6743 C.3     1  UNL1        0.0579
     17 C          -7.8058  -16.3288   24.1123 C.3     1  UNL1        0.0173
     18 C          -7.0935  -15.3813   25.0316 C.3     1  UNL1        0.0169
     19 H          -6.8679  -14.7156   28.3968 H       1  UNL1        0.1188
     20 H          -6.8598  -13.5588   27.1983 H       1  UNL1        0.1188
     21 C          -8.7487  -19.5324   23.2496 C.3     1  UNL1        0.0885
     22 C          -7.6169  -19.3992   22.2742 C.3     1  UNL1        0.0748
     23 C          -6.1986  -19.4479   22.7599 C.3     1  UNL1        0.0432
     24 C          -5.0667  -19.3147   21.7845 C.ar    1  UNL1       -0.0234
     25 C          -3.6484  -19.3635   22.2702 C.ar    1  UNL1       -0.0045
     26 C          -2.5167  -19.2302   21.2949 C.ar    1  UNL1       -0.0003
     27 C          -2.8033  -19.0482   19.8338 C.ar    1  UNL1       -0.0003
     28 C          -4.2216  -18.9994   19.3481 C.ar    1  UNL1       -0.0032
     29 C          -5.3533  -19.1327   20.3234 C.ar    1  UNL1       -0.0103
     30 C          -6.7717  -19.0839   19.8377 C.3     1  UNL1        0.0953
     31 N          -7.9035  -19.2171   20.8131 N.3     1  UNL1       -0.2934
     32 H          -8.4530  -20.0242   20.5181 H       1  UNL1        0.1236
@<TRIPOS>BOND
     1    13    12    1
     2    13    14    1
     3    14    15    1
     4    15    16    1
     5    16     1    1
     6     1    21    1
     7    22    21    1
     8    22    23    1
     9    23    24    1
    10    24    25   ar
    11    25    26   ar
    12    26    27   ar
    13    27    28   ar
    14    28    29   ar
    15    29    30    1
    16    30    31    1
    17     2     1    1
    18     2     3    1
    19     3     4    1
    20     4     5    1
    21     5     6    1
    22     6     7   ar
    23     7     8   ar
    24     8     9   ar
    25     9    10   ar
    26    10    11   ar
    27    16    17    1
    28    17    18    1
    29    18    13    1
    30    31    22    1
    31    11     2    1
    32    29    24   ar
    33    11     6   ar
    34    12    19    1
    35    12    20    1
    36    31    32    1
@<TRIPOS>MOLECULE
*****
 32 36 0 0 0
SMALL
GASTEIGER

@<TRIPOS>ATOM
      1 N          -8.7337  -18.2157   22.8046 N.3     1  UNL1       -0.2692
      2 C          -8.6063  -17.6742   24.1976 C.3     1  UNL1        0.0978
      3 C          -9.5774  -18.0988   25.2591 C.3     1  UNL1        0.0224
      4 C          -9.4501  -17.5572   26.6521 C.3     1  UNL1        0.0065
      5 C          -8.3516  -16.5911   26.9837 C.3     1  UNL1        0.0277
      6 C          -7.3806  -16.1665   25.9222 C.ar    1  UNL1       -0.0073
      7 C          -6.2820  -15.2003   26.2538 C.ar    1  UNL1       -0.0015
      8 C          -5.3110  -14.7757   25.1923 C.ar    1  UNL1        0.0203
      9 C          -5.4383  -15.3173   23.7993 C.ar    1  UNL1        0.0985
     10 N          -6.5367  -16.2834   23.4677 N.ar    1  UNL1       -0.2471
     11 C          -7.5079  -16.7080   24.5292 C.ar    1  UNL1        0.0695
     12 N         -12.3924  -15.5448   18.8702 N.3     1  UNL1       -0.3222
     13 C         -11.4777  -16.2125   19.8538 C.3     1  UNL1        0.0509
     14 C         -11.3861  -17.7091   19.8964 C.3     1  UNL1        0.0169
     15 C         -10.4715  -18.3769   20.8800 C.3     1  UNL1        0.0173
     16 C          -9.6483  -17.5480   21.8210 C.3     1  UNL1        0.0579
     17 C          -9.7399  -16.0514   21.7784 C.3     1  UNL1        0.0173
     18 C         -10.6547  -15.3837   20.7948 C.3     1  UNL1        0.0169
     19 H         -12.8705  -16.2542   18.3147 H       1  UNL1        0.1188
     20 H         -11.8473  -14.9412   18.2546 H       1  UNL1        0.1188
     21 C          -7.9464  -19.4250   22.3952 C.3     1  UNL1        0.0885
     22 C          -6.6707  -19.2633   21.6227 C.3     1  UNL1        0.0748
     23 C          -5.3722  -19.0762   22.3499 C.3     1  UNL1        0.0432
     24 C          -4.0965  -18.9145   21.5775 C.ar    1  UNL1       -0.0234
     25 C          -2.7980  -18.7274   22.3047 C.ar    1  UNL1       -0.0045
     26 C          -1.5224  -18.5656   21.5322 C.ar    1  UNL1       -0.0003
     27 C          -1.5454  -18.5910   20.0326 C.ar    1  UNL1       -0.0003
     28 C          -2.8439  -18.7781   19.3055 C.ar    1  UNL1       -0.0032
     29 C          -4.1194  -18.9398   20.0779 C.ar    1  UNL1       -0.0103
     30 C          -5.4180  -19.1269   19.3507 C.3     1  UNL1        0.0953
     31 N          -6.6936  -19.2887   20.1231 N.3     1  UNL1       -0.2934
     32 H          -7.0914  -20.1873   19.8499 H       1  UNL1        0.1236
@<TRIPOS>BOND
     1    13    12    1
     2    13    14    1
     3    14    15    1
     4    15    16    1
     5    16     1    1
     6     1    21    1
     7    22    21    1
     8    22    23    1
     9    23    24    1
    10    24    25   ar
    11    25    26   ar
    12    26    27   ar
    13    27    28   ar
    14    28    29   ar
    15    29    30    1
    16    30    31    1
    17     2     1    1
    18     2     3    1
    19     3     4    1
    20     4     5    1
    21     5     6    1
    22     6     7   ar
    23     7     8   ar
    24     8     9   ar
    25     9    10   ar
    26    10    11   ar
    27    16    17    1
    28    17    18    1
    29    18    13    1
    30    31    22    1
    31    11     2    1
    32    29    24   ar
    33    11     6   ar
    34    12    19    1
    35    12    20    1
    36    31    32    1
@<TRIPOS>MOLECULE
*****
 32 36 0 0 0
SMALL
GASTEIGER

@<TRIPOS>ATOM
      1 N          -8.7894  -17.8351   23.1689 N.3     1  UNL1       -0.2692
      2 C         -10.0395  -17.4089   22.4579 C.3     1  UNL1        0.0978
      3 C          -9.9473  -16.6850   21.1474 C.3     1  UNL1        0.0224
      4 C         -11.1974  -16.2587   20.4365 C.3     1  UNL1        0.0065
      5 C         -12.5398  -16.5564   21.0360 C.3     1  UNL1        0.0277
      6 C         -12.6320  -17.2803   22.3464 C.ar    1  UNL1       -0.0073
      7 C         -13.9744  -17.5781   22.9460 C.ar    1  UNL1       -0.0015
      8 C         -14.0666  -18.3020   24.2565 C.ar    1  UNL1        0.0203
      9 C         -12.8164  -18.7282   24.9674 C.ar    1  UNL1        0.0985
     10 N         -11.4741  -18.4305   24.3679 N.ar    1  UNL1       -0.2471
     11 C         -11.3818  -17.7066   23.0574 C.ar    1  UNL1        0.0695
     12 N          -6.5389  -14.4418   27.5757 N.3     1  UNL1       -0.3222
     13 C          -7.1015  -15.2901   26.4740 C.3     1  UNL1        0.0509
     14 C          -6.5426  -15.1844   25.0860 C.3     1  UNL1        0.0169
     15 C          -7.1052  -16.0327   23.9843 C.3     1  UNL1        0.0173
     16 C          -8.2268  -16.9868   24.2706 C.3     1  UNL1        0.0579
     17 C          -8.7856  -17.0926   25.6585 C.3     1  UNL1        0.0173
     18 C          -8.2230  -16.2442   26.7603 C.3     1  UNL1        0.0169
     19 H          -5.7894  -13.8572   27.2057 H       1  UNL1        0.1188
     20 H          -6.1693  -15.0426   28.3125 H       1  UNL1        0.1188
     21 C          -8.1018  -19.1097   22.7781 C.3     1  UNL1        0.0885
     22 C          -6.8700  -19.0658   21.9231 C.3     1  UNL1        0.0748
     23 C          -5.5275  -18.8404   22.5530 C.3     1  UNL1        0.0432
     24 C          -4.2958  -18.7965   21.6980 C.ar    1  UNL1       -0.0234
     25 C          -2.9533  -18.5711   22.3279 C.ar    1  UNL1       -0.0045
     26 C          -1.7216  -18.5272   21.4729 C.ar    1  UNL1       -0.0003
     27 C          -1.8324  -18.7088   19.9881 C.ar    1  UNL1       -0.0003
     28 C          -3.1750  -18.9342   19.3582 C.ar    1  UNL1       -0.0032
     29 C          -4.4066  -18.9781   20.2132 C.ar    1  UNL1       -0.0103
     30 C          -5.7492  -19.2035   19.5833 C.3     1  UNL1        0.0953
     31 N          -6.9809  -19.2474   20.4383 N.3     1  UNL1       -0.2934
     32 H          -7.4138  -20.1581   20.2845 H       1  UNL1        0.1236
@<TRIPOS>BOND
     1    13    12    1
     2    13    14    1
     3    14    15    1
     4    15    16    1
     5    16     1    1
     6     1    21    1
     7    22    21    1
     8    22    23    1
     9    23    24    1
    10    24    25   ar
    11    25    26   ar
    12    26    27   ar
    13    27    28   ar
    14    28    29   ar
    15    29    30    1
    16    30    31    1
    17     2     1    1
    18     2     3    1
    19     3     4    1
    20     4     5    1
    21     5     6    1
    22     6     7   ar
    23     7     8   ar
    24     8     9   ar
    25     9    10   ar
    26    10    11   ar
    27    16    17    1
    28    17    18    1
    29    18    13    1
    30    31    22    1
    31    11     2    1
    32    29    24   ar
    33    11     6   ar
    34    12    19    1
    35    12    20    1
    36    31    32    1
@<TRIPOS>MOLECULE
*****
 32 36 0 0 0
SMALL
GASTEIGER

@<TRIPOS>ATOM
      1 N          -7.9644  -18.6720   22.5082 N.3     1  UNL1       -0.2692
      2 C          -9.0161  -18.6675   21.4387 C.3     1  UNL1        0.0978
      3 C          -8.8509  -19.5272   20.2207 C.3     1  UNL1        0.0224
      4 C          -9.9026  -19.5227   19.1512 C.3     1  UNL1        0.0065
      5 C         -11.1196  -18.6585   19.2997 C.3     1  UNL1        0.0277
      6 C         -11.2848  -17.7988   20.5177 C.ar    1  UNL1       -0.0073
      7 C         -12.5019  -16.9346   20.6662 C.ar    1  UNL1       -0.0015
      8 C         -12.6671  -16.0749   21.8842 C.ar    1  UNL1        0.0203
      9 C         -11.6154  -16.0794   22.9537 C.ar    1  UNL1        0.0985
     10 N         -10.3984  -16.9436   22.8052 N.ar    1  UNL1       -0.2471
     11 C         -10.2331  -17.8033   21.5872 C.ar    1  UNL1        0.0695
     12 N          -8.3861  -14.8893   27.1464 N.3     1  UNL1       -0.3222
     13 C          -8.2807  -15.8350   25.9869 C.3     1  UNL1        0.0509
     14 C          -7.4954  -15.4448   24.7699 C.3     1  UNL1        0.0169
     15 C          -7.3900  -16.3904   23.6103 C.3     1  UNL1        0.0173
     16 C          -8.0698  -17.7263   23.6677 C.3     1  UNL1        0.0579
     17 C          -8.8551  -18.1165   24.8847 C.3     1  UNL1        0.0173
     18 C          -8.9605  -17.1708   26.0443 C.3     1  UNL1        0.0169
     19 H          -7.8677  -14.0361   26.9375 H       1  UNL1        0.1188
     20 H          -7.9959  -15.3288   27.9801 H       1  UNL1        0.1188
     21 C          -6.8072  -19.6221   22.4181 C.3     1  UNL1        0.0885
     22 C          -5.4355  -19.1054   22.0993 C.3     1  UNL1        0.0748
     23 C          -4.9311  -19.1383   20.6871 C.3     1  UNL1        0.0432
     24 C          -3.5594  -18.6216   20.3683 C.ar    1  UNL1       -0.0234
     25 C          -3.0550  -18.6545   18.9561 C.ar    1  UNL1       -0.0045
     26 C          -1.6834  -18.1378   18.6374 C.ar    1  UNL1       -0.0003
     27 C          -0.8162  -17.5882   19.7309 C.ar    1  UNL1       -0.0003
     28 C          -1.3206  -17.5552   21.1432 C.ar    1  UNL1       -0.0032
     29 C          -2.6922  -18.0719   21.4619 C.ar    1  UNL1       -0.0103
     30 C          -3.1967  -18.0390   22.8742 C.3     1  UNL1        0.0953
     31 N          -4.5683  -18.5557   23.1929 N.3     1  UNL1       -0.2934
     32 H          -5.0827  -17.7836   23.6166 H       1  UNL1        0.1236
@<TRIPOS>BOND
     1    13    12    1
     2    13    14    1
     3    14    15    1
     4    15    16    1
     5    16     1    1
     6     1    21    1
     7    22    21    1
     8    22    23    1
     9    23    24    1
    10    24    25   ar
    11    25    26   ar
    12    26    27   ar
    13    27    28   ar
    14    28    29   ar
    15    29    30    1
    16    30    31    1
    17     2     1    1
    18     2     3    1
    19     3     4    1
    20     4     5    1
    21     5     6    1
    22     6     7   ar
    23     7     8   ar
    24     8     9   ar
    25     9    10   ar
    26    10    11   ar
    27    16    17    1
    28    17    18    1
    29    18    13    1
    30    31    22    1
    31    11     2    1
    32    29    24   ar
    33    11     6   ar
    34    12    19    1
    35    12    20    1
    36    31    32    1
@<TRIPOS>MOLECULE
*****
 32 36 0 0 0
SMALL
GASTEIGER

@<TRIPOS>ATOM
      1 N          -7.9539  -17.1707   23.5942 N.3     1  UNL1       -0.2692
      2 C          -9.2544  -17.9174   23.5592 C.3     1  UNL1        0.0978
      3 C          -9.4478  -19.1277   24.4239 C.3     1  UNL1        0.0224
      4 C         -10.7482  -19.8745   24.3889 C.3     1  UNL1        0.0065
      5 C         -11.8552  -19.4109   23.4891 C.3     1  UNL1        0.0277
      6 C         -11.6618  -18.2007   22.6244 C.ar    1  UNL1       -0.0073
      7 C         -12.7688  -17.7371   21.7245 C.ar    1  UNL1       -0.0015
      8 C         -12.5754  -16.5268   20.8598 C.ar    1  UNL1        0.0203
      9 C         -11.2750  -15.7801   20.8949 C.ar    1  UNL1        0.0985
     10 N         -10.1680  -16.2436   21.7946 N.ar    1  UNL1       -0.2471
     11 C         -10.3614  -17.4539   22.6594 C.ar    1  UNL1        0.0695
     12 N          -6.5479  -13.8170   28.3665 N.3     1  UNL1       -0.3222
     13 C          -6.8994  -14.6554   27.1735 C.3     1  UNL1        0.0509
     14 C          -5.8551  -14.9692   26.1434 C.3     1  UNL1        0.0169
     15 C          -6.2066  -15.8077   24.9504 C.3     1  UNL1        0.0173
     16 C          -7.6024  -16.3323   24.7873 C.3     1  UNL1        0.0579
     17 C          -8.6467  -16.0184   25.8174 C.3     1  UNL1        0.0173
     18 C          -8.2951  -15.1800   27.0105 C.3     1  UNL1        0.0169
     19 H          -5.5650  -13.5489   28.3160 H       1  UNL1        0.1188
     20 H          -6.7107  -14.3532   29.2188 H       1  UNL1        0.1188
     21 C          -7.0050  -17.2624   22.4362 C.3     1  UNL1        0.0885
     22 C          -7.0170  -18.4731   21.5507 C.3     1  UNL1        0.0748
     23 C          -8.1066  -18.6485   20.5348 C.3     1  UNL1        0.0432
     24 C          -8.1187  -19.8592   19.6493 C.ar    1  UNL1       -0.0234
     25 C          -9.2082  -20.0345   18.6334 C.ar    1  UNL1       -0.0045
     26 C          -9.2202  -21.2452   17.7479 C.ar    1  UNL1       -0.0003
     27 C          -8.1427  -22.2805   17.8783 C.ar    1  UNL1       -0.0003
     28 C          -7.0531  -22.1052   18.8942 C.ar    1  UNL1       -0.0032
     29 C          -7.0411  -20.8945   19.7797 C.ar    1  UNL1       -0.0103
     30 C          -5.9515  -20.7191   20.7956 C.3     1  UNL1        0.0953
     31 N          -5.9395  -19.5084   21.6811 N.3     1  UNL1       -0.2934
     32 H          -5.0524  -19.0324   21.5170 H       1  UNL1        0.1236
@<TRIPOS>BOND
     1    13    12    1
     2    13    14    1
     3    14    15    1
     4    15    16    1
     5    16     1    1
     6     1    21    1
     7    22    21    1
     8    22    23    1
     9    23    24    1
    10    24    25   ar
    11    25    26   ar
    12    26    27   ar
    13    27    28   ar
    14    28    29   ar
    15    29    30    1
    16    30    31    1
    17     2     1    1
    18     2     3    1
    19     3     4    1
    20     4     5    1
    21     5     6    1
    22     6     7   ar
    23     7     8   ar
    24     8     9   ar
    25     9    10   ar
    26    10    11   ar
    27    16    17    1
    28    17    18    1
    29    18    13    1
    30    31    22    1
    31    11     2    1
    32    29    24   ar
    33    11     6   ar
    34    12    19    1
    35    12    20    1
    36    31    32    1
@<TRIPOS>MOLECULE
*****
 32 36 0 0 0
SMALL
GASTEIGER

@<TRIPOS>ATOM
      1 N          -6.5326  -16.6979   22.9107 N.3     1  UNL1       -0.2692
      2 C          -5.4274  -17.6633   22.6001 C.3     1  UNL1        0.0978
      3 C          -4.0742  -17.4792   23.2205 C.3     1  UNL1        0.0224
      4 C          -2.9691  -18.4447   22.9099 C.3     1  UNL1        0.0065
      5 C          -3.2171  -19.5943   21.9789 C.3     1  UNL1        0.0277
      6 C          -4.5702  -19.7784   21.3584 C.ar    1  UNL1       -0.0073
      7 C          -4.8183  -20.9280   20.4273 C.ar    1  UNL1       -0.0015
      8 C          -6.1714  -21.1121   19.8068 C.ar    1  UNL1        0.0203
      9 C          -7.2766  -20.1466   20.1174 C.ar    1  UNL1        0.0985
     10 N          -7.0286  -18.9971   21.0485 N.ar    1  UNL1       -0.2471
     11 C          -5.6754  -18.8129   21.6690 C.ar    1  UNL1        0.0695
     12 N          -6.9037  -14.2148   28.3601 N.3     1  UNL1       -0.3222
     13 C          -6.8109  -14.8356   26.9978 C.3     1  UNL1        0.0509
     14 C          -5.5055  -14.8312   26.2589 C.3     1  UNL1        0.0169
     15 C          -5.4127  -15.4519   24.8966 C.3     1  UNL1        0.0173
     16 C          -6.6254  -16.0771   24.2730 C.3     1  UNL1        0.0579
     17 C          -7.9307  -16.0815   25.0119 C.3     1  UNL1        0.0173
     18 C          -8.0235  -15.4607   26.3743 C.3     1  UNL1        0.0169
     19 H          -5.9927  -13.8411   28.6262 H       1  UNL1        0.1188
     20 H          -7.1921  -14.9215   29.0368 H       1  UNL1        0.1188
     21 C          -7.5449  -16.3531   21.8589 C.3     1  UNL1        0.0885
     22 C          -9.0071  -16.5437   22.1343 C.3     1  UNL1        0.0748
     23 C          -9.4520  -17.5225   23.1801 C.3     1  UNL1        0.0432
     24 C         -10.9142  -17.7131   23.4555 C.ar    1  UNL1       -0.0234
     25 C         -11.3591  -18.6919   24.5014 C.ar    1  UNL1       -0.0045
     26 C         -12.8213  -18.8825   24.7766 C.ar    1  UNL1       -0.0003
     27 C         -13.8385  -18.0942   24.0060 C.ar    1  UNL1       -0.0003
     28 C         -13.3936  -17.1154   22.9601 C.ar    1  UNL1       -0.0032
     29 C         -11.9315  -16.9248   22.6848 C.ar    1  UNL1       -0.0103
     30 C         -11.4865  -15.9460   21.6389 C.3     1  UNL1        0.0953
     31 N         -10.0244  -15.7554   21.3636 N.3     1  UNL1       -0.2934
     32 H          -9.8197  -14.7699   21.5285 H       1  UNL1        0.1236
@<TRIPOS>BOND
     1    13    12    1
     2    13    14    1
     3    14    15    1
     4    15    16    1
     5    16     1    1
     6     1    21    1
     7    22    21    1
     8    22    23    1
     9    23    24    1
    10    24    25   ar
    11    25    26   ar
    12    26    27   ar
    13    27    28   ar
    14    28    29   ar
    15    29    30    1
    16    30    31    1
    17     2     1    1
    18     2     3    1
    19     3     4    1
    20     4     5    1
    21     5     6    1
    22     6     7   ar
    23     7     8   ar
    24     8     9   ar
    25     9    10   ar
    26    10    11   ar
    27    16    17    1
    28    17    18    1
    29    18    13    1
    30    31    22    1
    31    11     2    1
    32    29    24   ar
    33    11     6   ar
    34    12    19    1
    35    12    20    1
    36    31    32    1
@<TRIPOS>MOLECULE
*****
 32 36 0 0 0
SMALL
GASTEIGER

@<TRIPOS>ATOM
      1 N          -5.7618  -18.8911   22.2213 N.3     1  UNL1       -0.2692
      2 C          -4.6783  -19.1146   21.2082 C.3     1  UNL1        0.0978
      3 C          -4.7616  -20.2781   20.2653 C.3     1  UNL1        0.0224
      4 C          -3.6782  -20.5015   19.2522 C.3     1  UNL1        0.0065
      5 C          -2.5115  -19.5614   19.1821 C.3     1  UNL1        0.0277
      6 C          -2.4282  -18.3979   20.1251 C.ar    1  UNL1       -0.0073
      7 C          -1.2614  -17.4578   20.0550 C.ar    1  UNL1       -0.0015
      8 C          -1.1781  -16.2943   20.9980 C.ar    1  UNL1        0.0203
      9 C          -2.2615  -16.0708   22.0111 C.ar    1  UNL1        0.0985
     10 N          -3.4283  -17.0109   22.0812 N.ar    1  UNL1       -0.2471
     11 C          -3.5116  -18.1745   21.1381 C.ar    1  UNL1        0.0695
     12 N          -5.3770  -14.2974   26.0617 N.3     1  UNL1       -0.3222
     13 C          -5.4732  -15.4458   25.1016 C.3     1  UNL1        0.0509
     14 C          -6.5318  -15.4483   24.0389 C.3     1  UNL1        0.0169
     15 C          -6.6280  -16.5967   23.0788 C.3     1  UNL1        0.0173
     16 C          -5.6656  -17.7427   23.1814 C.3     1  UNL1        0.0579
     17 C          -4.6069  -17.7402   24.2441 C.3     1  UNL1        0.0173
     18 C          -4.5108  -16.5917   25.2042 C.3     1  UNL1        0.0169
     19 H          -6.1033  -13.6138   25.8480 H       1  UNL1        0.1188
     20 H          -4.4605  -13.8580   25.9754 H       1  UNL1        0.1188
     21 C          -6.9414  -19.8161   22.2742 C.3     1  UNL1        0.0885
     22 C          -8.3330  -19.2623   22.1926 C.3     1  UNL1        0.0748
     23 C          -9.2518  -19.3655   23.3737 C.3     1  UNL1        0.0432
     24 C         -10.6435  -18.8117   23.2921 C.ar    1  UNL1       -0.0234
     25 C         -11.5623  -18.9149   24.4732 C.ar    1  UNL1       -0.0045
     26 C         -12.9539  -18.3611   24.3915 C.ar    1  UNL1       -0.0003
     27 C         -13.4267  -17.7040   23.1287 C.ar    1  UNL1       -0.0003
     28 C         -12.5079  -17.6008   21.9475 C.ar    1  UNL1       -0.0032
     29 C         -11.1163  -18.1546   22.0292 C.ar    1  UNL1       -0.0103
     30 C         -10.1974  -18.0514   20.8480 C.3     1  UNL1        0.0953
     31 N          -8.8059  -18.6053   20.9297 N.3     1  UNL1       -0.2934
     32 H          -8.1691  -17.8301   20.7449 H       1  UNL1        0.1236
@<TRIPOS>BOND
     1    13    12    1
     2    13    14    1
     3    14    15    1
     4    15    16    1
     5    16     1    1
     6     1    21    1
     7    22    21    1
     8    22    23    1
     9    23    24    1
    10    24    25   ar
    11    25    26   ar
    12    26    27   ar
    13    27    28   ar
    14    28    29   ar
    15    29    30    1
    16    30    31    1
    17     2     1    1
    18     2     3    1
    19     3     4    1
    20     4     5    1
    21     5     6    1
    22     6     7   ar
    23     7     8   ar
    24     8     9   ar
    25     9    10   ar
    26    10    11   ar
    27    16    17    1
    28    17    18    1
    29    18    13    1
    30    31    22    1
    31    11     2    1
    32    29    24   ar
    33    11     6   ar
    34    12    19    1
    35    12    20    1
    36    31    32    1
@<TRIPOS>MOLECULE
*****
 32 36 0 0 0
SMALL
GASTEIGER

@<TRIPOS>ATOM
      1 N          -7.2293  -17.8812   21.2993 N.3     1  UNL1       -0.2692
      2 C          -8.4816  -18.6732   21.0656 C.3     1  UNL1        0.0978
      3 C          -8.8844  -19.0448   19.6694 C.3     1  UNL1        0.0224
      4 C         -10.1367  -19.8368   19.4357 C.3     1  UNL1        0.0065
      5 C         -10.9861  -20.2572   20.5983 C.3     1  UNL1        0.0277
      6 C         -10.5833  -19.8855   21.9946 C.ar    1  UNL1       -0.0073
      7 C         -11.4327  -20.3059   23.1573 C.ar    1  UNL1       -0.0015
      8 C         -11.0299  -19.9343   24.5535 C.ar    1  UNL1        0.0203
      9 C          -9.7777  -19.1423   24.7872 C.ar    1  UNL1        0.0985
     10 N          -8.9282  -18.7219   23.6246 N.ar    1  UNL1       -0.2471
     11 C          -9.3310  -19.0935   22.2282 C.ar    1  UNL1        0.0695
     12 N          -1.8694  -20.5374   20.8358 N.3     1  UNL1       -0.3222
     13 C          -3.2094  -19.8733   20.9517 C.3     1  UNL1        0.0509
     14 C          -4.0200  -19.6001   19.7195 C.3     1  UNL1        0.0169
     15 C          -5.3600  -18.9361   19.8354 C.3     1  UNL1        0.0173
     16 C          -5.8894  -18.5452   21.1834 C.3     1  UNL1        0.0579
     17 C          -5.0787  -18.8184   22.4155 C.3     1  UNL1        0.0173
     18 C          -3.7386  -19.4825   22.2996 C.3     1  UNL1        0.0169
     19 H          -1.6698  -20.7314   19.8545 H       1  UNL1        0.1188
     20 H          -1.8768  -21.4119   21.3607 H       1  UNL1        0.1188
     21 C          -7.3171  -16.4251   21.6488 C.3     1  UNL1        0.0885
     22 C          -6.9966  -15.9673   23.0408 C.3     1  UNL1        0.0748
     23 C          -8.0818  -15.8901   24.0734 C.3     1  UNL1        0.0432
     24 C          -7.7613  -15.4323   25.4655 C.ar    1  UNL1       -0.0234
     25 C          -8.8465  -15.3551   26.4981 C.ar    1  UNL1       -0.0045
     26 C          -8.5260  -14.8972   27.8901 C.ar    1  UNL1       -0.0003
     27 C          -7.1203  -14.5166   28.2494 C.ar    1  UNL1       -0.0003
     28 C          -6.0351  -14.5938   27.2168 C.ar    1  UNL1       -0.0032
     29 C          -6.3556  -15.0516   25.8249 C.ar    1  UNL1       -0.0103
     30 C          -5.2704  -15.1289   24.7922 C.3     1  UNL1        0.0953
     31 N          -5.5909  -15.5867   23.4002 N.3     1  UNL1       -0.2934
     32 H          -5.0087  -16.4041   23.2177 H       1  UNL1        0.1236
@<TRIPOS>BOND
     1    13    12    1
     2    13    14    1
     3    14    15    1
     4    15    16    1
     5    16     1    1
     6     1    21    1
     7    22    21    1
     8    22    23    1
     9    23    24    1
    10    24    25   ar
    11    25    26   ar
    12    26    27   ar
    13    27    28   ar
    14    28    29   ar
    15    29    30    1
    16    30    31    1
    17     2     1    1
    18     2     3    1
    19     3     4    1
    20     4     5    1
    21     5     6    1
    22     6     7   ar
    23     7     8   ar
    24     8     9   ar
    25     9    10   ar
    26    10    11   ar
    27    16    17    1
    28    17    18    1
    29    18    13    1
    30    31    22    1
    31    11     2    1
    32    29    24   ar
    33    11     6   ar
    34    12    19    1
    35    12    20    1
    36    31    32    1
