@<TRIPOS>MOLECULE
*****
 21 22 0 0 0
SMALL
GASTEIGER

@<TRIPOS>ATOM
      1 C          -9.9247  -16.8211   21.8855 C.2     1  UNL1        0.2254
      2 O          -9.5319  -15.6210   21.0760 O.2     1  UNL1       -0.2749
      3 N          -8.9765  -17.3822   22.9035 N.am    1  UNL1       -0.2756
      4 C          -9.3694  -18.5824   23.7130 C.3     1  UNL1        0.0927
      5 C          -9.1890  -20.0157   23.3091 C.3     1  UNL1        0.0383
      6 C          -9.7197  -20.8791   24.4150 C.3     1  UNL1        0.0704
      7 N         -10.2281  -19.9794   25.5023 N.3     1  UNL1       -0.2960
      8 C         -10.0116  -18.5599   25.0684 C.3     1  UNL1        0.0887
      9 H          -9.7176  -20.1587   26.3670 H       1  UNL1        0.1233
     10 C         -12.4413  -17.0218   22.4991 C.3     1  UNL1        0.0096
     11 C         -11.2657  -17.4602   21.6771 C.3     1  UNL1        0.0767
     12 C         -11.4310  -18.5377   20.6468 C.3     1  UNL1        0.0096
     13 C          -7.6356  -16.7431   23.1119 C.3     1  UNL1        0.1209
     14 C          -6.3841  -17.5005   22.7798 C.ar    1  UNL1        0.0083
     15 C          -6.4253  -18.6134   21.7750 C.ar    1  UNL1       -0.0009
     16 C          -5.1738  -19.3708   21.4430 C.ar    1  UNL1        0.0112
     17 C          -3.8812  -19.0151   22.1157 C.ar    1  UNL1        0.0585
     18 CL         -2.6297  -19.7724   21.7836 Cl      1  UNL1       -0.0822
     19 C          -3.8400  -17.9021   23.1205 C.ar    1  UNL1        0.0225
     20 C          -5.0914  -17.1448   23.4525 C.ar    1  UNL1        0.0561
     21 CL         -5.0502  -16.0319   24.4573 Cl      1  UNL1       -0.0825
@<TRIPOS>BOND
     1    10    11    1
     2    11    12    1
     3    11     1    1
     4     1     2    2
     5     1     3   am
     6     3    13    1
     7    13    14    1
     8    14    15   ar
     9    15    16   ar
    10    16    17   ar
    11    17    18    1
    12    17    19   ar
    13    19    20   ar
    14    20    21    1
    15     4     3    1
    16     4     5    1
    17     5     6    1
    18     6     7    1
    19     7     8    1
    20    20    14   ar
    21     8     4    1
    22     7     9    1
@<TRIPOS>MOLECULE
*****
 21 22 0 0 0
SMALL
GASTEIGER

@<TRIPOS>ATOM
      1 C         -10.6309  -18.6694   21.8607 C.2     1  UNL1        0.2254
      2 O         -11.0205  -19.9891   21.2636 O.2     1  UNL1       -0.2749
      3 N          -9.2515  -18.4761   22.4175 N.am    1  UNL1       -0.2756
      4 C          -8.8619  -17.1563   23.0146 C.3     1  UNL1        0.0927
      5 C          -9.0238  -16.7566   24.4513 C.3     1  UNL1        0.0383
      6 C          -8.5039  -15.3578   24.6045 C.3     1  UNL1        0.0704
      7 N          -8.0208  -14.8932   23.2625 N.3     1  UNL1       -0.2960
      8 C          -8.2421  -16.0048   22.2800 C.3     1  UNL1        0.0887
      9 H          -7.0274  -14.6672   23.3115 H       1  UNL1        0.1233
     10 C         -12.5751  -17.4241   23.0520 C.3     1  UNL1        0.0096
     11 C         -11.6206  -17.5429   21.9010 C.3     1  UNL1        0.0767
     12 C         -11.6558  -16.5353   20.7904 C.3     1  UNL1        0.0096
     13 C          -8.2618  -19.6025   22.3771 C.3     1  UNL1        0.1209
     14 C          -6.9448  -19.4192   21.6828 C.ar    1  UNL1        0.0083
     15 C          -5.6918  -19.2377   22.4871 C.ar    1  UNL1       -0.0009
     16 C          -4.3748  -19.0545   21.7928 C.ar    1  UNL1        0.0112
     17 C          -4.3110  -19.0528   20.2942 C.ar    1  UNL1        0.0585
     18 CL         -2.9940  -18.8695   19.5998 Cl      1  UNL1       -0.0822
     19 C          -5.5640  -19.2343   19.4899 C.ar    1  UNL1        0.0225
     20 C          -6.8809  -19.4176   20.1842 C.ar    1  UNL1        0.0561
     21 CL         -8.1340  -19.5991   19.3798 Cl      1  UNL1       -0.0825
@<TRIPOS>BOND
     1    10    11    1
     2    11    12    1
     3    11     1    1
     4     1     2    2
     5     1     3   am
     6     3    13    1
     7    13    14    1
     8    14    15   ar
     9    15    16   ar
    10    16    17   ar
    11    17    18    1
    12    17    19   ar
    13    19    20   ar
    14    20    21    1
    15     4     3    1
    16     4     5    1
    17     5     6    1
    18     6     7    1
    19     7     8    1
    20    20    14   ar
    21     8     4    1
    22     7     9    1
@<TRIPOS>MOLECULE
*****
 21 22 0 0 0
SMALL
GASTEIGER

@<TRIPOS>ATOM
      1 C          -9.3615  -19.4738   23.5011 C.2     1  UNL1        0.2254
      2 O          -8.8825  -20.8262   23.9385 O.2     1  UNL1       -0.2749
      3 N          -8.9819  -18.9445   22.1499 N.am    1  UNL1       -0.2756
      4 C          -9.4609  -17.5919   21.7125 C.3     1  UNL1        0.0927
      5 C         -10.7171  -17.3078   20.9437 C.3     1  UNL1        0.0383
      6 C         -10.8004  -15.8263   20.7232 C.3     1  UNL1        0.0704
      7 N          -9.5956  -15.1951   21.3558 N.3     1  UNL1       -0.2960
      8 C          -8.7678  -16.2863   21.9672 C.3     1  UNL1        0.0887
      9 H          -9.8886  -14.5369   22.0778 H       1  UNL1        0.1233
     10 C          -9.5845  -17.7585   25.4398 C.3     1  UNL1        0.0096
     11 C         -10.2202  -18.6505   24.4149 C.3     1  UNL1        0.0767
     12 C         -11.7144  -18.7192   24.3039 C.3     1  UNL1        0.0096
     13 C          -8.1232  -19.7677   21.2361 C.3     1  UNL1        0.1209
     14 C          -6.6287  -19.6817   21.3318 C.ar    1  UNL1        0.0083
     15 C          -5.9927  -18.7136   22.2848 C.ar    1  UNL1       -0.0009
     16 C          -4.4982  -18.6276   22.3805 C.ar    1  UNL1        0.0112
     17 C          -3.6398  -19.5097   21.5232 C.ar    1  UNL1        0.0585
     18 CL         -2.1453  -19.4237   21.6188 Cl      1  UNL1       -0.0822
     19 C          -4.2759  -20.4778   20.5702 C.ar    1  UNL1        0.0225
     20 C          -5.7703  -20.5638   20.4745 C.ar    1  UNL1        0.0561
     21 CL         -6.4064  -21.5319   19.5215 Cl      1  UNL1       -0.0825
@<TRIPOS>BOND
     1    10    11    1
     2    11    12    1
     3    11     1    1
     4     1     2    2
     5     1     3   am
     6     3    13    1
     7    13    14    1
     8    14    15   ar
     9    15    16   ar
    10    16    17   ar
    11    17    18    1
    12    17    19   ar
    13    19    20   ar
    14    20    21    1
    15     4     3    1
    16     4     5    1
    17     5     6    1
    18     6     7    1
    19     7     8    1
    20    20    14   ar
    21     8     4    1
    22     7     9    1
@<TRIPOS>MOLECULE
*****
 21 22 0 0 0
SMALL
GASTEIGER

@<TRIPOS>ATOM
      1 C          -8.4082  -18.1406   21.6241 C.2     1  UNL1        0.2254
      2 O          -6.9510  -18.3831   21.8842 O.2     1  UNL1       -0.2749
      3 N          -8.9989  -16.7844   21.8729 N.am    1  UNL1       -0.2756
      4 C         -10.4562  -16.5419   21.6128 C.3     1  UNL1        0.0927
      5 C         -11.5420  -16.5045   22.6470 C.3     1  UNL1        0.0383
      6 C         -12.8404  -16.2338   21.9462 C.3     1  UNL1        0.0704
      7 N         -12.5569  -16.1039   20.4789 N.3     1  UNL1       -0.2960
      8 C         -11.0834  -16.2943   20.2729 C.3     1  UNL1        0.0887
      9 H         -12.8351  -15.1782   20.1533 H       1  UNL1        0.1233
     10 C         -10.1645  -20.0045   22.0615 C.3     1  UNL1        0.0096
     11 C          -9.2747  -19.2543   21.1152 C.3     1  UNL1        0.0767
     12 C          -9.2515  -19.6176   19.6601 C.3     1  UNL1        0.0096
     13 C          -8.1324  -15.6708   22.3818 C.3     1  UNL1        0.1209
     14 C          -7.7811  -15.5995   23.8383 C.ar    1  UNL1        0.0083
     15 C          -8.8527  -15.7526   24.8767 C.ar    1  UNL1       -0.0009
     16 C          -8.5014  -15.6813   26.3332 C.ar    1  UNL1        0.0112
     17 C          -7.0785  -15.4569   26.7514 C.ar    1  UNL1        0.0585
     18 CL         -6.7272  -15.3856   28.2080 Cl      1  UNL1       -0.0822
     19 C          -6.0069  -15.3039   25.7130 C.ar    1  UNL1        0.0225
     20 C          -6.3581  -15.3752   24.2565 C.ar    1  UNL1        0.0561
     21 CL         -5.2865  -15.2221   23.2182 Cl      1  UNL1       -0.0825
@<TRIPOS>BOND
     1    10    11    1
     2    11    12    1
     3    11     1    1
     4     1     2    2
     5     1     3   am
     6     3    13    1
     7    13    14    1
     8    14    15   ar
     9    15    16   ar
    10    16    17   ar
    11    17    18    1
    12    17    19   ar
    13    19    20   ar
    14    20    21    1
    15     4     3    1
    16     4     5    1
    17     5     6    1
    18     6     7    1
    19     7     8    1
    20    20    14   ar
    21     8     4    1
    22     7     9    1
@<TRIPOS>MOLECULE
*****
 21 22 0 0 0
SMALL
GASTEIGER

@<TRIPOS>ATOM
      1 C          -9.3685  -18.0962   21.7720 C.2     1  UNL1        0.2254
      2 O          -9.5028  -19.3333   20.9345 O.2     1  UNL1       -0.2749
      3 N          -8.1682  -17.9133   22.6527 N.am    1  UNL1       -0.2756
      4 C          -8.0340  -16.6762   23.4903 C.3     1  UNL1        0.0927
      5 C          -8.5431  -16.4998   24.8902 C.3     1  UNL1        0.0383
      6 C          -8.1909  -15.1128   25.3402 C.3     1  UNL1        0.0704
      7 N          -7.4642  -14.4321   24.2183 N.3     1  UNL1       -0.2960
      8 C          -7.3672  -15.3983   23.0750 C.3     1  UNL1        0.0887
      9 H          -6.5291  -14.1631   24.5244 H       1  UNL1        0.1233
     10 C         -10.3234  -15.9019   20.7603 C.3     1  UNL1        0.0096
     11 C         -10.4347  -17.0419   21.7289 C.3     1  UNL1        0.0767
     12 C         -11.6121  -17.1276   22.6542 C.3     1  UNL1        0.0096
     13 C          -7.1020  -18.9675   22.6959 C.3     1  UNL1        0.1209
     14 C          -5.9047  -18.8606   21.7985 C.ar    1  UNL1        0.0083
     15 C          -6.0082  -19.2673   20.3584 C.ar    1  UNL1       -0.0009
     16 C          -4.8110  -19.1604   19.4611 C.ar    1  UNL1        0.0112
     17 C          -3.5104  -18.6469   20.0039 C.ar    1  UNL1        0.0585
     18 CL         -2.3131  -18.5399   19.1065 Cl      1  UNL1       -0.0822
     19 C          -3.4070  -18.2402   21.4440 C.ar    1  UNL1        0.0225
     20 C          -4.6041  -18.3471   22.3413 C.ar    1  UNL1        0.0561
     21 CL         -4.5007  -17.9405   23.7814 Cl      1  UNL1       -0.0825
@<TRIPOS>BOND
     1    10    11    1
     2    11    12    1
     3    11     1    1
     4     1     2    2
     5     1     3   am
     6     3    13    1
     7    13    14    1
     8    14    15   ar
     9    15    16   ar
    10    16    17   ar
    11    17    18    1
    12    17    19   ar
    13    19    20   ar
    14    20    21    1
    15     4     3    1
    16     4     5    1
    17     5     6    1
    18     6     7    1
    19     7     8    1
    20    20    14   ar
    21     8     4    1
    22     7     9    1
@<TRIPOS>MOLECULE
*****
 21 22 0 0 0
SMALL
GASTEIGER

@<TRIPOS>ATOM
      1 C          -7.1435  -17.4777   22.8377 C.2     1  UNL1        0.2254
      2 O          -5.7363  -17.0502   23.1329 O.2     1  UNL1       -0.2749
      3 N          -7.4273  -18.8926   22.4286 N.am    1  UNL1       -0.2756
      4 C          -8.8345  -19.3201   22.1334 C.3     1  UNL1        0.0927
      5 C          -9.5351  -19.1955   20.8129 C.3     1  UNL1        0.0383
      6 C         -10.9218  -19.7455   20.9702 C.3     1  UNL1        0.0704
      7 N         -11.0781  -20.2100   22.3879 N.3     1  UNL1       -0.2960
      8 C          -9.7881  -19.9471   23.1068 C.3     1  UNL1        0.0887
      9 H         -11.2861  -21.2085   22.4041 H       1  UNL1        0.1233
     10 C          -8.6393  -15.6388   21.7741 C.3     1  UNL1        0.0096
     11 C          -8.2669  -16.4902   22.9516 C.3     1  UNL1        0.0767
     12 C          -9.0178  -16.3541   24.2430 C.3     1  UNL1        0.0096
     13 C          -6.3040  -19.8801   22.3147 C.3     1  UNL1        0.1209
     14 C          -5.0375  -19.4972   21.6081 C.ar    1  UNL1        0.0083
     15 C          -3.7384  -19.4729   22.3576 C.ar    1  UNL1       -0.0009
     16 C          -2.4719  -19.0900   21.6510 C.ar    1  UNL1        0.0112
     17 C          -2.5045  -18.7313   20.1949 C.ar    1  UNL1        0.0585
     18 CL         -1.2379  -18.3484   19.4882 Cl      1  UNL1       -0.0822
     19 C          -3.8036  -18.7556   19.4454 C.ar    1  UNL1        0.0225
     20 C          -5.0701  -19.1385   20.1520 C.ar    1  UNL1        0.0561
     21 CL         -6.3692  -19.1628   19.4025 Cl      1  UNL1       -0.0825
@<TRIPOS>BOND
     1    10    11    1
     2    11    12    1
     3    11     1    1
     4     1     2    2
     5     1     3   am
     6     3    13    1
     7    13    14    1
     8    14    15   ar
     9    15    16   ar
    10    16    17   ar
    11    17    18    1
    12    17    19   ar
    13    19    20   ar
    14    20    21    1
    15     4     3    1
    16     4     5    1
    17     5     6    1
    18     6     7    1
    19     7     8    1
    20    20    14   ar
    21     8     4    1
    22     7     9    1
@<TRIPOS>MOLECULE
*****
 21 22 0 0 0
SMALL
GASTEIGER

@<TRIPOS>ATOM
      1 C         -11.3191   -6.2762   17.1060 C.2     1  UNL1        0.2254
      2 O         -11.3237   -7.5158   16.2614 O.2     1  UNL1       -0.2749
      3 N         -12.5994   -5.5373   17.3606 N.am    1  UNL1       -0.2756
      4 C         -12.5947   -4.2977   18.2053 C.3     1  UNL1        0.0927
      5 C         -12.4400   -2.8916   17.7064 C.3     1  UNL1        0.0383
      6 C         -12.4936   -1.9714   18.8899 C.3     1  UNL1        0.0704
      7 N         -12.6815   -2.8089   20.1201 N.3     1  UNL1       -0.2960
      8 C         -12.7440   -4.2466   19.6969 C.3     1  UNL1        0.0887
      9 H         -13.5496   -2.5476   20.5875 H       1  UNL1        0.1233
     10 C          -9.5514   -6.3156   19.0097 C.3     1  UNL1        0.0096
     11 C         -10.0341   -5.7755   17.6962 C.3     1  UNL1        0.0767
     12 C          -9.2319   -4.7348   16.9727 C.3     1  UNL1        0.0096
     13 C         -13.8844   -6.0380   16.7705 C.3     1  UNL1        0.1209
     14 C         -14.6957   -7.0656   17.5026 C.ar    1  UNL1        0.0083
     15 C         -14.4163   -8.5254   17.2997 C.ar    1  UNL1       -0.0009
     16 C         -15.2275   -9.5530   18.0317 C.ar    1  UNL1        0.0112
     17 C         -16.3181   -9.1209   18.9665 C.ar    1  UNL1        0.0585
     18 CL        -17.1294  -10.1486   19.6985 Cl      1  UNL1       -0.0822
     19 C         -16.5974   -7.6612   19.1693 C.ar    1  UNL1        0.0225
     20 C         -15.7862   -6.6336   18.4374 C.ar    1  UNL1        0.0561
     21 CL        -16.0656   -5.1738   18.6402 Cl      1  UNL1       -0.0825
@<TRIPOS>BOND
     1    10    11    1
     2    11    12    1
     3    11     1    1
     4     1     2    2
     5     1     3   am
     6     3    13    1
     7    13    14    1
     8    14    15   ar
     9    15    16   ar
    10    16    17   ar
    11    17    18    1
    12    17    19   ar
    13    19    20   ar
    14    20    21    1
    15     4     3    1
    16     4     5    1
    17     5     6    1
    18     6     7    1
    19     7     8    1
    20    20    14   ar
    21     8     4    1
    22     7     9    1
@<TRIPOS>MOLECULE
*****
 21 22 0 0 0
SMALL
GASTEIGER

@<TRIPOS>ATOM
      1 C          -8.6656  -18.0923   21.5759 C.2     1  UNL1        0.2254
      2 O          -7.3250  -18.3632   22.1917 O.2     1  UNL1       -0.2749
      3 N          -9.1814  -16.6864   21.4905 N.am    1  UNL1       -0.2756
      4 C         -10.5221  -16.4155   20.8747 C.3     1  UNL1        0.0927
      5 C         -10.7672  -15.7404   19.5578 C.3     1  UNL1        0.0383
      6 C         -12.2497  -15.6798   19.3368 C.3     1  UNL1        0.0704
      7 N         -12.9207  -16.3175   20.5171 N.3     1  UNL1       -0.2960
      8 C         -11.8530  -16.7722   21.4675 C.3     1  UNL1        0.0887
      9 H         -13.4743  -17.1173   20.2102 H       1  UNL1        0.1233
     10 C          -9.3838  -19.6216   19.6021 C.3     1  UNL1        0.0096
     11 C          -9.4905  -19.2274   21.0455 C.3     1  UNL1        0.0767
     12 C         -10.4220  -19.9682   21.9584 C.3     1  UNL1        0.0096
     13 C          -8.3566  -15.5514   22.0209 C.3     1  UNL1        0.1209
     14 C          -7.8790  -15.5717   23.4427 C.ar    1  UNL1        0.0083
     15 C          -6.4444  -15.2658   23.7564 C.ar    1  UNL1       -0.0009
     16 C          -5.9667  -15.2861   25.1781 C.ar    1  UNL1        0.0112
     17 C          -6.9236  -15.6124   26.2862 C.ar    1  UNL1        0.0585
     18 CL         -6.4459  -15.6327   27.7080 Cl      1  UNL1       -0.0822
     19 C          -8.3582  -15.9183   25.9725 C.ar    1  UNL1        0.0225
     20 C          -8.8358  -15.8980   24.5508 C.ar    1  UNL1        0.0561
     21 CL        -10.2704  -16.2040   24.2371 Cl      1  UNL1       -0.0825
@<TRIPOS>BOND
     1    10    11    1
     2    11    12    1
     3    11     1    1
     4     1     2    2
     5     1     3   am
     6     3    13    1
     7    13    14    1
     8    14    15   ar
     9    15    16   ar
    10    16    17   ar
    11    17    18    1
    12    17    19   ar
    13    19    20   ar
    14    20    21    1
    15     4     3    1
    16     4     5    1
    17     5     6    1
    18     6     7    1
    19     7     8    1
    20    20    14   ar
    21     8     4    1
    22     7     9    1
@<TRIPOS>MOLECULE
*****
 21 22 0 0 0
SMALL
GASTEIGER

@<TRIPOS>ATOM
      1 C          -6.8948  -18.7934   20.6369 C.2     1  UNL1        0.2254
      2 O          -5.7833  -17.9536   20.0808 O.2     1  UNL1       -0.2749
      3 N          -7.9089  -18.1814   21.5572 N.am    1  UNL1       -0.2756
      4 C          -9.0205  -19.0212   22.1132 C.3     1  UNL1        0.0927
      5 C          -8.9708  -19.8227   23.3802 C.3     1  UNL1        0.0383
      6 C         -10.2965  -20.5039   23.5500 C.3     1  UNL1        0.0704
      7 N         -11.1653  -20.1234   22.3879 N.3     1  UNL1       -0.2960
      8 C         -10.3767  -19.2071   21.5000 C.3     1  UNL1        0.0887
      9 H         -12.0018  -19.6454   22.7230 H       1  UNL1        0.1233
     10 C          -7.9644  -20.6910   19.2208 C.3     1  UNL1        0.0096
     11 C          -6.9922  -20.2453   20.2726 C.3     1  UNL1        0.0767
     12 C          -6.1175  -21.2513   20.9601 C.3     1  UNL1        0.0096
     13 C          -7.8115  -16.7296   21.9215 C.3     1  UNL1        0.1209
     14 C          -7.5237  -16.3295   23.3383 C.ar    1  UNL1        0.0083
     15 C          -6.1069  -16.1269   23.7873 C.ar    1  UNL1       -0.0009
     16 C          -5.8191  -15.7268   25.2040 C.ar    1  UNL1        0.0112
     17 C          -6.9481  -15.5293   26.1716 C.ar    1  UNL1        0.0585
     18 CL         -6.6603  -15.1292   27.5884 Cl      1  UNL1       -0.0822
     19 C          -8.3649  -15.7318   25.7226 C.ar    1  UNL1        0.0225
     20 C          -8.6527  -16.1319   24.3059 C.ar    1  UNL1        0.0561
     21 CL        -10.0695  -16.3345   23.8568 Cl      1  UNL1       -0.0825
@<TRIPOS>BOND
     1    10    11    1
     2    11    12    1
     3    11     1    1
     4     1     2    2
     5     1     3   am
     6     3    13    1
     7    13    14    1
     8    14    15   ar
     9    15    16   ar
    10    16    17   ar
    11    17    18    1
    12    17    19   ar
    13    19    20   ar
    14    20    21    1
    15     4     3    1
    16     4     5    1
    17     5     6    1
    18     6     7    1
    19     7     8    1
    20    20    14   ar
    21     8     4    1
    22     7     9    1
