@<TRIPOS>MOLECULE
*****
 58 63 0 0 0
SMALL
GASTEIGER

@<TRIPOS>ATOM
      1 N           4.4055   -0.6395   24.1488 N.3     1  UNL1       -0.2650
      2 C           4.7443    0.3922   23.1141 C.3     1  UNL1        0.0900
      3 C           3.9217    1.6416   23.0032 C.3     1  UNL1        0.0901
      4 N           2.7602    1.8592   23.9270 N.3     1  UNL1       -0.2621
      5 C           2.4213    0.8275   24.9618 C.3     1  UNL1        0.1510
      6 C           3.2439   -0.4219   25.0727 C.3     1  UNL1        0.0980
      7 C           1.2598    1.0452   25.8856 C.2     1  UNL1        0.2386
      8 O          -0.1338    1.1138   25.3350 O.2     1  UNL1       -0.2736
      9 N           1.4918    1.1943   27.3601 N.am    1  UNL1       -0.2961
     10 H           2.4065    1.1492   27.7215 H       1  UNL1        0.1497
     11 C           0.3303    1.4119   28.2839 C.3     1  UNL1        0.1939
     12 C          -0.5681    0.2654   28.6422 C.3     1  UNL1        0.4154
     13 F          -1.4665   -0.8811   29.0005 F       1  UNL1       -0.1682
     14 F          -1.7616    1.0673   28.2151 F       1  UNL1       -0.1682
     15 F           0.6255   -0.5364   29.0693 F       1  UNL1       -0.1682
     16 C           5.1913   -1.7803   25.7554 C.3     1  UNL1        0.0255
     17 C           5.2281   -1.8889   24.2598 C.3     1  UNL1        0.1147
     18 C           5.2650   -1.9974   22.7642 C.3     1  UNL1        0.0255
     19 C           6.0508   -3.1382   24.3707 C.ar    1  UNL1        0.2186
     20 N           6.6989   -3.8710   23.2336 N.ar    1  UNL1       -0.2093
     21 C           7.4185   -5.0599   23.7984 C.ar    1  UNL1        0.1407
     22 C           7.2150   -5.0619   25.2845 C.ar    1  UNL1        0.1834
     23 O           6.3698   -3.8742   25.6383 O.2     1  UNL1       -0.4355
     24 C           7.7610   -6.0738   26.2478 C.ar    1  UNL1        0.1173
     25 C           8.2830   -5.6328   27.5831 C.ar    1  UNL1        0.0223
     26 C           8.8289   -6.6447   28.5464 C.ar    1  UNL1        0.0032
     27 C           8.8529   -8.0976   28.1744 C.ar    1  UNL1        0.0207
     28 C           8.3309   -8.5386   26.8391 C.ar    1  UNL1        0.0989
     29 N           7.7850   -7.5267   25.8758 N.ar    1  UNL1       -0.2407
     30 C           1.9375    3.1086   23.8161 C.3     1  UNL1        0.1021
     31 C           1.1008    3.3497   22.5947 C.3     1  UNL1        0.1269
     32 O           1.1930    4.6592   21.8690 O.3     1  UNL1       -0.3830
     33 H           1.8344    5.2327   22.3170 H       1  UNL1        0.2104
     34 C           0.1720    2.2813   22.0990 C.3     1  UNL1        0.0401
     35 C          -0.5847    2.4800   20.8191 C.3     1  UNL1        0.0833
     36 C          -1.8492    3.2867   20.8130 C.2     1  UNL1        0.2226
     37 O          -1.7847    4.7829   20.8991 O.2     1  UNL1       -0.2751
     38 N          -3.1782    2.5974   20.7206 N.am    1  UNL1       -0.2999
     39 H          -3.2205    1.6154   20.6641 H       1  UNL1        0.1498
     40 C          -4.4427    3.4041   20.7145 C.3     1  UNL1        0.1278
     41 C          -5.1170    3.7516   22.0085 C.ar    1  UNL1        0.0320
     42 C          -4.5268    3.2923   23.3088 C.ar    1  UNL1        0.0004
     43 C          -5.2011    3.6397   24.6028 C.ar    1  UNL1       -0.0001
     44 C          -6.4657    4.4465   24.5966 C.ar    1  UNL1        0.0031
     45 C          -7.0559    4.9058   23.2964 C.ar    1  UNL1        0.0366
     46 C          -6.3816    4.5584   22.0023 C.ar    1  UNL1        0.1362
     47 O          -6.9718    5.0177   20.7021 O.3     1  UNL1       -0.4730
     48 C          -6.2975    4.6702   19.4081 C.3     1  UNL1        0.2364
     49 C          -5.0330    3.8635   19.4143 C.3     1  UNL1        0.1762
     50 O          -4.3587    3.5160   18.1201 O.3     1  UNL1       -0.3788
     51 H          -4.8662    3.8868   17.3813 H       1  UNL1        0.2106
     52 C          -0.0768    1.8718   19.5454 C.3     1  UNL1        0.0355
     53 C           1.1428    0.9988   19.5653 C.ar    1  UNL1       -0.0217
     54 C           2.4608    1.5406   19.0970 C.ar    1  UNL1       -0.0043
     55 C           3.6803    0.6674   19.1169 C.ar    1  UNL1       -0.0003
     56 C           3.5819   -0.7475   19.6050 C.ar    1  UNL1       -0.0000
     57 C           2.2639   -1.2893   20.0733 C.ar    1  UNL1       -0.0003
     58 C           1.0443   -0.4162   20.0534 C.ar    1  UNL1       -0.0043
@<TRIPOS>BOND
     1    16    17    1
     2    17    18    1
     3    17    19    1
     4    19    20   ar
     5    20    21   ar
     6    21    22   ar
     7    22    24    1
     8    24    25   ar
     9    25    26   ar
    10    26    27   ar
    11    27    28   ar
    12    28    29   ar
    13    22    23   ar
    14    17     1    1
    15     1     2    1
    16     2     3    1
    17     3     4    1
    18     4    30    1
    19    30    31    1
    20    31    32    1
    21    31    34    1
    22    35    34    1
    23    35    52    1
    24    52    53    1
    25    53    54   ar
    26    54    55   ar
    27    55    56   ar
    28    56    57   ar
    29    57    58   ar
    30    35    36    1
    31    36    37    2
    32    36    38   am
    33    40    38    1
    34    40    41    1
    35    41    42   ar
    36    42    43   ar
    37    43    44   ar
    38    44    45   ar
    39    45    46   ar
    40    46    47    1
    41    47    48    1
    42    48    49    1
    43    49    50    1
    44     4     5    1
    45     5     7    1
    46     7     8    2
    47     7     9   am
    48     9    11    1
    49    11    12    1
    50    12    13    1
    51    12    14    1
    52    12    15    1
    53     5     6    1
    54    23    19   ar
    55     6     1    1
    56    29    24   ar
    57    58    53   ar
    58    49    40    1
    59    46    41   ar
    60    32    33    1
    61    38    39    1
    62    50    51    1
    63     9    10    1
@<TRIPOS>MOLECULE
*****
 58 63 0 0 0
SMALL
GASTEIGER

@<TRIPOS>ATOM
      1 N           2.3392    0.3067   24.0896 N.3     1  UNL1       -0.2650
      2 C           1.0372    1.0104   23.8455 C.3     1  UNL1        0.0900
      3 C           0.4872    1.1085   22.4534 C.3     1  UNL1        0.0901
      4 N           1.2391    0.5029   21.3055 N.3     1  UNL1       -0.2621
      5 C           2.5411   -0.2009   21.5496 C.3     1  UNL1        0.1510
      6 C           3.0912   -0.2990   22.9417 C.3     1  UNL1        0.0980
      7 C           3.2930   -0.8066   20.4017 C.2     1  UNL1        0.2386
      8 O           4.1770    0.0528   19.5473 O.2     1  UNL1       -0.2736
      9 N           3.1610   -2.2717   20.1081 N.am    1  UNL1       -0.2961
     10 H           2.5808   -2.8357   20.6689 H       1  UNL1        0.1497
     11 C           3.9129   -2.8773   18.9602 C.3     1  UNL1        0.1939
     12 C           4.2480   -4.3393   18.9711 C.3     1  UNL1        0.4154
     13 F           4.5831   -5.8014   18.9820 F       1  UNL1       -0.1682
     14 F           2.7863   -4.6746   18.9403 F       1  UNL1       -0.1682
     15 F           5.7097   -4.0040   19.0019 F       1  UNL1       -0.1682
     16 C           3.9377   -0.7497   24.9999 C.3     1  UNL1        0.0255
     17 C           2.8892    0.2086   25.4817 C.3     1  UNL1        0.1147
     18 C           1.8406    1.1669   25.9635 C.3     1  UNL1        0.0255
     19 C           3.4392    0.1105   26.8738 C.ar    1  UNL1        0.2186
     20 N           3.4017    1.1898   27.9147 N.ar    1  UNL1       -0.2093
     21 C           4.0626    0.6622   29.1536 C.ar    1  UNL1        0.1407
     22 C           4.5087   -0.7432   28.8783 C.ar    1  UNL1        0.1834
     23 O           4.1234   -1.0843   27.4693 O.2     1  UNL1       -0.4355
     24 C           5.2158   -1.6487   29.8427 C.ar    1  UNL1        0.1173
     25 C           4.9777   -1.5071   31.3169 C.ar    1  UNL1        0.0223
     26 C           5.6849   -2.4126   32.2813 C.ar    1  UNL1        0.0032
     27 C           6.6302   -3.4596   31.7714 C.ar    1  UNL1        0.0207
     28 C           6.8683   -3.6012   30.2972 C.ar    1  UNL1        0.0989
     29 N           6.1612   -2.6958   29.3328 N.ar    1  UNL1       -0.2407
     30 C           0.6891    0.6010   19.9134 C.3     1  UNL1        0.1021
     31 C           0.9744    1.8136   19.0780 C.3     1  UNL1        0.1269
     32 O           2.2827    1.9349   18.3545 O.3     1  UNL1       -0.3830
     33 H           2.8244    1.1501   18.5320 H       1  UNL1        0.2104
     34 C          -0.0486    2.9049   18.9661 C.3     1  UNL1        0.0401
     35 C          -0.1196    3.9766   20.0131 C.3     1  UNL1        0.0833
     36 C          -1.4158    4.2549   20.7148 C.2     1  UNL1        0.2226
     37 O          -1.9263    5.6617   20.8171 O.2     1  UNL1       -0.2751
     38 N          -2.2014    3.1265   21.3143 N.am    1  UNL1       -0.2999
     39 H          -1.8663    2.2032   21.2472 H       1  UNL1        0.1498
     40 C          -3.4976    3.4048   22.0161 C.3     1  UNL1        0.1278
     41 C          -3.5200    3.5899   23.5044 C.ar    1  UNL1        0.0320
     42 C          -2.2462    3.4966   24.2911 C.ar    1  UNL1        0.0004
     43 C          -2.2686    3.6817   25.7794 C.ar    1  UNL1       -0.0001
     44 C          -3.5648    3.9600   26.4812 C.ar    1  UNL1        0.0031
     45 C          -4.8386    4.0532   25.6946 C.ar    1  UNL1        0.0366
     46 C          -4.8162    3.8681   24.2062 C.ar    1  UNL1        0.1362
     47 O          -6.0900    3.9614   23.4196 O.3     1  UNL1       -0.4730
     48 C          -6.0675    3.7763   21.9312 C.3     1  UNL1        0.2364
     49 C          -4.7713    3.4981   21.2295 C.3     1  UNL1        0.1762
     50 O          -4.7490    3.3130   19.7410 O.3     1  UNL1       -0.3788
     51 H          -5.6488    3.4039   19.3904 H       1  UNL1        0.2106
     52 C           1.1057    4.7702   20.3584 C.3     1  UNL1        0.0355
     53 C           1.8915    4.4377   21.5920 C.ar    1  UNL1       -0.0217
     54 C           3.1533    3.6338   21.4836 C.ar    1  UNL1       -0.0043
     55 C           3.9392    3.3014   22.7173 C.ar    1  UNL1       -0.0003
     56 C           3.4632    3.7727   24.0594 C.ar    1  UNL1       -0.0000
     57 C           2.2014    4.5765   24.1678 C.ar    1  UNL1       -0.0003
     58 C           1.4156    4.9090   22.9342 C.ar    1  UNL1       -0.0043
@<TRIPOS>BOND
     1    16    17    1
     2    17    18    1
     3    17    19    1
     4    19    20   ar
     5    20    21   ar
     6    21    22   ar
     7    22    24    1
     8    24    25   ar
     9    25    26   ar
    10    26    27   ar
    11    27    28   ar
    12    28    29   ar
    13    22    23   ar
    14    17     1    1
    15     1     2    1
    16     2     3    1
    17     3     4    1
    18     4    30    1
    19    30    31    1
    20    31    32    1
    21    31    34    1
    22    35    34    1
    23    35    52    1
    24    52    53    1
    25    53    54   ar
    26    54    55   ar
    27    55    56   ar
    28    56    57   ar
    29    57    58   ar
    30    35    36    1
    31    36    37    2
    32    36    38   am
    33    40    38    1
    34    40    41    1
    35    41    42   ar
    36    42    43   ar
    37    43    44   ar
    38    44    45   ar
    39    45    46   ar
    40    46    47    1
    41    47    48    1
    42    48    49    1
    43    49    50    1
    44     4     5    1
    45     5     7    1
    46     7     8    2
    47     7     9   am
    48     9    11    1
    49    11    12    1
    50    12    13    1
    51    12    14    1
    52    12    15    1
    53     5     6    1
    54    23    19   ar
    55     6     1    1
    56    29    24   ar
    57    58    53   ar
    58    49    40    1
    59    46    41   ar
    60    32    33    1
    61    38    39    1
    62    50    51    1
    63     9    10    1
@<TRIPOS>MOLECULE
*****
 58 63 0 0 0
SMALL
GASTEIGER

@<TRIPOS>ATOM
      1 N           4.1593   -0.7394   23.9205 N.3     1  UNL1       -0.2650
      2 C           4.1294    0.0768   25.1785 C.3     1  UNL1        0.0900
      3 C           5.0517   -0.2593   26.3128 C.3     1  UNL1        0.0901
      4 N           6.0038   -1.4118   26.1889 N.3     1  UNL1       -0.2621
      5 C           6.0337   -2.2281   24.9308 C.3     1  UNL1        0.1510
      6 C           5.1114   -1.8919   23.7966 C.3     1  UNL1        0.0980
      7 C           6.9858   -3.3805   24.8069 C.2     1  UNL1        0.2386
      8 O           8.3005   -3.1955   24.1089 O.2     1  UNL1       -0.2736
      9 N           6.6232   -4.7180   25.3811 N.am    1  UNL1       -0.2961
     10 H           5.7603   -4.8395   25.8393 H       1  UNL1        0.1497
     11 C           7.5753   -5.8704   25.2573 C.3     1  UNL1        0.1939
     12 C           7.2556   -7.1811   25.9128 C.3     1  UNL1        0.4154
     13 F           6.9359   -8.4919   26.5684 F       1  UNL1       -0.1682
     14 F           6.3377   -6.4790   26.8690 F       1  UNL1       -0.1682
     15 F           8.1735   -7.8833   24.9566 F       1  UNL1       -0.1682
     16 C           3.9869   -1.3495   21.8961 C.3     1  UNL1        0.0255
     17 C           3.2370   -0.4033   22.7863 C.3     1  UNL1        0.1147
     18 C           2.4872    0.5429   23.6764 C.3     1  UNL1        0.0255
     19 C           2.3148   -0.0671   21.6520 C.ar    1  UNL1        0.2186
     20 N           1.9145   -0.9887   20.5383 N.ar    1  UNL1       -0.2093
     21 C           0.9832   -0.2415   19.6303 C.ar    1  UNL1        0.1407
     22 C           0.8079    1.1419   20.1829 C.ar    1  UNL1        0.1834
     23 O           1.6309    1.2498   21.4324 O.2     1  UNL1       -0.4355
     24 C          -0.0412    2.2271   19.5901 C.ar    1  UNL1        0.1173
     25 C          -1.0909    2.8986   20.4252 C.ar    1  UNL1        0.0223
     26 C          -1.9400    3.9837   19.8324 C.ar    1  UNL1        0.0032
     27 C          -1.7395    4.3974   18.4046 C.ar    1  UNL1        0.0207
     28 C          -0.6898    3.7258   17.5695 C.ar    1  UNL1        0.0989
     29 N           0.1593    2.6407   18.1623 N.ar    1  UNL1       -0.2407
     30 C           6.9260   -1.7479   27.3231 C.3     1  UNL1        0.1021
     31 C           6.4462   -2.6169   28.4477 C.3     1  UNL1        0.1269
     32 O           5.5887   -3.8129   28.1578 O.3     1  UNL1       -0.3830
     33 H           5.4398   -3.8800   27.2017 H       1  UNL1        0.2104
     34 C           6.8238   -2.2897   29.8620 C.3     1  UNL1        0.0401
     35 C           5.7736   -1.8396   30.8337 C.3     1  UNL1        0.0833
     36 C           4.7790   -0.7914   30.4310 C.2     1  UNL1        0.2226
     37 O           5.2323    0.4201   29.6715 O.2     1  UNL1       -0.2751
     38 N           3.3313   -0.9547   30.7878 N.am    1  UNL1       -0.2999
     39 H           3.0338   -1.7499   31.2862 H       1  UNL1        0.1498
     40 C           2.3367    0.0934   30.3850 C.3     1  UNL1        0.1278
     41 C           1.9900    1.2023   31.3338 C.ar    1  UNL1        0.0320
     42 C           2.6379    1.2630   32.6854 C.ar    1  UNL1        0.0004
     43 C           2.2912    2.3719   33.6341 C.ar    1  UNL1       -0.0001
     44 C           1.2967    3.4201   33.2314 C.ar    1  UNL1        0.0031
     45 C           0.6488    3.3594   31.8799 C.ar    1  UNL1        0.0366
     46 C           0.9955    2.2505   30.9311 C.ar    1  UNL1        0.1362
     47 O           0.3476    2.1898   29.5796 O.3     1  UNL1       -0.4730
     48 C           0.6943    1.0810   28.6308 C.3     1  UNL1        0.2364
     49 C           1.6889    0.0328   29.0335 C.3     1  UNL1        0.1762
     50 O           2.0356   -1.0761   28.0847 O.3     1  UNL1       -0.3788
     51 H           1.5322   -0.9675   27.2627 H       1  UNL1        0.2106
     52 C           5.7178   -2.4377   32.2083 C.3     1  UNL1        0.0355
     53 C           5.7784   -1.5496   33.4156 C.ar    1  UNL1       -0.0217
     54 C           4.5802   -1.4138   34.3077 C.ar    1  UNL1       -0.0043
     55 C           4.6409   -0.5257   35.5150 C.ar    1  UNL1       -0.0003
     56 C           5.8998    0.2265   35.8303 C.ar    1  UNL1       -0.0000
     57 C           7.0980    0.0907   34.9382 C.ar    1  UNL1       -0.0003
     58 C           7.0374   -0.7974   33.7309 C.ar    1  UNL1       -0.0043
@<TRIPOS>BOND
     1    16    17    1
     2    17    18    1
     3    17    19    1
     4    19    20   ar
     5    20    21   ar
     6    21    22   ar
     7    22    24    1
     8    24    25   ar
     9    25    26   ar
    10    26    27   ar
    11    27    28   ar
    12    28    29   ar
    13    22    23   ar
    14    17     1    1
    15     1     2    1
    16     2     3    1
    17     3     4    1
    18     4    30    1
    19    30    31    1
    20    31    32    1
    21    31    34    1
    22    35    34    1
    23    35    52    1
    24    52    53    1
    25    53    54   ar
    26    54    55   ar
    27    55    56   ar
    28    56    57   ar
    29    57    58   ar
    30    35    36    1
    31    36    37    2
    32    36    38   am
    33    40    38    1
    34    40    41    1
    35    41    42   ar
    36    42    43   ar
    37    43    44   ar
    38    44    45   ar
    39    45    46   ar
    40    46    47    1
    41    47    48    1
    42    48    49    1
    43    49    50    1
    44     4     5    1
    45     5     7    1
    46     7     8    2
    47     7     9   am
    48     9    11    1
    49    11    12    1
    50    12    13    1
    51    12    14    1
    52    12    15    1
    53     5     6    1
    54    23    19   ar
    55     6     1    1
    56    29    24   ar
    57    58    53   ar
    58    49    40    1
    59    46    41   ar
    60    32    33    1
    61    38    39    1
    62    50    51    1
    63     9    10    1
@<TRIPOS>MOLECULE
*****
 58 63 0 0 0
SMALL
GASTEIGER

@<TRIPOS>ATOM
      1 N           5.5272   -1.4987   31.0387 N.3     1  UNL1       -0.2650
      2 C           4.8494   -0.8739   29.8554 C.3     1  UNL1        0.0900
      3 C           5.1093   -1.4032   28.4762 C.3     1  UNL1        0.0901
      4 N           6.0470   -2.5575   28.2803 N.3     1  UNL1       -0.2621
      5 C           6.7249   -3.1824   29.4636 C.3     1  UNL1        0.1510
      6 C           6.4649   -2.6530   30.8428 C.3     1  UNL1        0.0980
      7 C           7.6626   -4.3366   29.2676 C.2     1  UNL1        0.2386
      8 O           9.1451   -4.1088   29.2794 O.2     1  UNL1       -0.2736
      9 N           7.1177   -5.7187   29.0598 N.am    1  UNL1       -0.2961
     10 H           6.1447   -5.8682   29.0520 H       1  UNL1        0.1497
     11 C           8.0554   -6.8729   28.8639 C.3     1  UNL1        0.1939
     12 C           8.0152   -7.6639   27.5900 C.3     1  UNL1        0.4154
     13 F           7.9751   -8.4549   26.3162 F       1  UNL1       -0.1682
     14 F           8.7167   -8.8000   28.2734 F       1  UNL1       -0.1682
     15 F           7.3138   -6.5277   26.9066 F       1  UNL1       -0.1682
     16 C           6.0314    0.2773   32.0834 C.3     1  UNL1        0.0255
     17 C           5.2673   -0.9693   32.4179 C.3     1  UNL1        0.1147
     18 C           4.5031   -2.2160   32.7524 C.3     1  UNL1        0.0255
     19 C           5.0073   -0.4399   33.7971 C.ar    1  UNL1        0.2186
     20 N           5.7263   -0.8489   35.0484 N.ar    1  UNL1       -0.2093
     21 C           5.1461   -0.0703   36.1918 C.ar    1  UNL1        0.1407
     22 C           4.0686    0.8197   35.6471 C.ar    1  UNL1        0.1834
     23 O           3.9828    0.5914   34.1671 O.2     1  UNL1       -0.4355
     24 C           3.2250    1.7712   36.4427 C.ar    1  UNL1        0.1173
     25 C           2.9177    1.4782   37.8814 C.ar    1  UNL1        0.0223
     26 C           2.0740    2.4296   38.6770 C.ar    1  UNL1        0.0032
     27 C           1.5377    3.6741   38.0339 C.ar    1  UNL1        0.0207
     28 C           1.8450    3.9672   36.5953 C.ar    1  UNL1        0.0989
     29 N           2.6887    3.0157   35.7997 N.ar    1  UNL1       -0.2407
     30 C           6.3069   -3.0868   26.9011 C.3     1  UNL1        0.1021
     31 C           5.7483   -2.3728   25.7061 C.3     1  UNL1        0.1269
     32 O           4.2679   -2.1672   25.5796 O.3     1  UNL1       -0.3830
     33 H           3.8210   -2.5532   26.3491 H       1  UNL1        0.2104
     34 C           6.6702   -1.8644   24.6375 C.3     1  UNL1        0.0401
     35 C           6.1772   -1.7196   23.2283 C.3     1  UNL1        0.0833
     36 C           5.0760   -0.7506   22.9148 C.2     1  UNL1        0.2226
     37 O           5.4062    0.6613   22.5306 O.2     1  UNL1       -0.2751
     38 N           3.6446   -1.1934   22.9853 N.am    1  UNL1       -0.2999
     39 H           3.4279   -2.1201   23.2375 H       1  UNL1        0.1498
     40 C           2.5434   -0.2243   22.6718 C.3     1  UNL1        0.1278
     41 C           2.1900    0.0733   21.2448 C.ar    1  UNL1        0.0320
     42 C           2.9379   -0.5981   20.1312 C.ar    1  UNL1        0.0004
     43 C           2.5845   -0.3004   18.7041 C.ar    1  UNL1       -0.0001
     44 C           1.4833    0.6686   18.3906 C.ar    1  UNL1        0.0031
     45 C           0.7355    1.3400   19.5041 C.ar    1  UNL1        0.0366
     46 C           1.0888    1.0424   20.9312 C.ar    1  UNL1        0.1362
     47 O           0.3410    1.7138   22.0448 O.3     1  UNL1       -0.4730
     48 C           0.6944    1.4161   23.4718 C.3     1  UNL1        0.2364
     49 C           1.7956    0.4471   23.7853 C.3     1  UNL1        0.1762
     50 O           2.1490    0.1494   25.2125 O.3     1  UNL1       -0.3788
     51 H           1.5743    0.6627   25.8016 H       1  UNL1        0.2106
     52 C           6.7854   -2.5439   22.1325 C.3     1  UNL1        0.0355
     53 C           5.9490   -2.9714   20.9631 C.ar    1  UNL1       -0.0217
     54 C           6.2339   -2.4225   19.5966 C.ar    1  UNL1       -0.0043
     55 C           5.3974   -2.8500   18.4271 C.ar    1  UNL1       -0.0003
     56 C           4.2760   -3.8265   18.6243 C.ar    1  UNL1       -0.0000
     57 C           3.9911   -4.3755   19.9908 C.ar    1  UNL1       -0.0003
     58 C           4.8275   -3.9480   21.1602 C.ar    1  UNL1       -0.0043
@<TRIPOS>BOND
     1    16    17    1
     2    17    18    1
     3    17    19    1
     4    19    20   ar
     5    20    21   ar
     6    21    22   ar
     7    22    24    1
     8    24    25   ar
     9    25    26   ar
    10    26    27   ar
    11    27    28   ar
    12    28    29   ar
    13    22    23   ar
    14    17     1    1
    15     1     2    1
    16     2     3    1
    17     3     4    1
    18     4    30    1
    19    30    31    1
    20    31    32    1
    21    31    34    1
    22    35    34    1
    23    35    52    1
    24    52    53    1
    25    53    54   ar
    26    54    55   ar
    27    55    56   ar
    28    56    57   ar
    29    57    58   ar
    30    35    36    1
    31    36    37    2
    32    36    38   am
    33    40    38    1
    34    40    41    1
    35    41    42   ar
    36    42    43   ar
    37    43    44   ar
    38    44    45   ar
    39    45    46   ar
    40    46    47    1
    41    47    48    1
    42    48    49    1
    43    49    50    1
    44     4     5    1
    45     5     7    1
    46     7     8    2
    47     7     9   am
    48     9    11    1
    49    11    12    1
    50    12    13    1
    51    12    14    1
    52    12    15    1
    53     5     6    1
    54    23    19   ar
    55     6     1    1
    56    29    24   ar
    57    58    53   ar
    58    49    40    1
    59    46    41   ar
    60    32    33    1
    61    38    39    1
    62    50    51    1
    63     9    10    1
@<TRIPOS>MOLECULE
*****
 58 63 0 0 0
SMALL
GASTEIGER

@<TRIPOS>ATOM
      1 N           1.2883    1.9031   27.9693 N.3     1  UNL1       -0.2650
      2 C          -0.0025    2.5611   27.5809 C.3     1  UNL1        0.0900
      3 C          -0.3889    2.6593   26.1348 C.3     1  UNL1        0.0901
      4 N           0.5155    2.0995   25.0772 N.3     1  UNL1       -0.2621
      5 C           1.8064    1.4414   25.4656 C.3     1  UNL1        0.1510
      6 C           2.1927    1.3432   26.9117 C.3     1  UNL1        0.0980
      7 C           2.7108    0.8816   24.4080 C.2     1  UNL1        0.2386
      8 O           3.5185    1.8058   23.5457 O.2     1  UNL1       -0.2736
      9 N           2.8075   -0.6026   24.2126 N.am    1  UNL1       -0.2961
     10 H           2.2774   -1.2092   24.7785 H       1  UNL1        0.1497
     11 C           3.7119   -1.1624   23.1549 C.3     1  UNL1        0.1939
     12 C           4.4330   -2.4560   23.3927 C.3     1  UNL1        0.4154
     13 F           5.1542   -3.7496   23.6306 F       1  UNL1       -0.1682
     14 F           4.9315   -1.9362   24.7085 F       1  UNL1       -0.1682
     15 F           3.9345   -2.9757   22.0769 F       1  UNL1       -0.1682
     16 C           3.0518    2.2964   29.0808 C.3     1  UNL1        0.0255
     17 C           1.6746    1.8049   29.4154 C.3     1  UNL1        0.1147
     18 C           0.2975    1.3135   29.7499 C.3     1  UNL1        0.0255
     19 C           2.0610    1.7068   30.8614 C.ar    1  UNL1        0.2186
     20 N           2.8594    0.6021   31.4877 N.ar    1  UNL1       -0.2093
     21 C           3.0086    0.9086   32.9484 C.ar    1  UNL1        0.1407
     22 C           2.3024    2.2027   33.2250 C.ar    1  UNL1        0.1834
     23 O           1.7167    2.6961   31.9352 O.2     1  UNL1       -0.4355
     24 C           2.1998    2.8840   34.5574 C.ar    1  UNL1        0.1173
     25 C           2.8238    2.2585   35.7696 C.ar    1  UNL1        0.0223
     26 C           2.7212    2.9398   37.1020 C.ar    1  UNL1        0.0032
     27 C           1.9947    4.2465   37.2223 C.ar    1  UNL1        0.0207
     28 C           1.3707    4.8720   36.0100 C.ar    1  UNL1        0.0989
     29 N           1.4733    4.1908   34.6776 N.ar    1  UNL1       -0.2407
     30 C           0.1292    2.1976   23.6311 C.3     1  UNL1        0.1021
     31 C           0.4265    3.4485   22.8586 C.3     1  UNL1        0.1269
     32 O           0.4030    4.7799   23.5492 O.3     1  UNL1       -0.3830
     33 H           0.1804    4.6548   24.4850 H       1  UNL1        0.2104
     34 C           0.7473    3.3681   21.3956 C.3     1  UNL1        0.0401
     35 C          -0.3467    3.1172   20.4005 C.3     1  UNL1        0.0833
     36 C          -1.7090    3.7056   20.6194 C.2     1  UNL1        0.2226
     37 O          -1.8761    5.1929   20.7209 O.2     1  UNL1       -0.2751
     38 N          -2.9042    2.8069   20.7367 N.am    1  UNL1       -0.2999
     39 H          -2.7945    1.8308   20.6700 H       1  UNL1        0.1498
     40 C          -4.2665    3.3954   20.9555 C.3     1  UNL1        0.1278
     41 C          -4.7551    3.6577   22.3492 C.ar    1  UNL1        0.0320
     42 C          -3.8814    3.3316   23.5241 C.ar    1  UNL1        0.0004
     43 C          -4.3700    3.5939   24.9178 C.ar    1  UNL1       -0.0001
     44 C          -5.7323    4.1824   25.1366 C.ar    1  UNL1        0.0031
     45 C          -6.6060    4.5085   23.9618 C.ar    1  UNL1        0.0366
     46 C          -6.1174    4.2461   22.5680 C.ar    1  UNL1        0.1362
     47 O          -6.9910    4.5722   21.3931 O.3     1  UNL1       -0.4730
     48 C          -6.5024    4.3099   19.9995 C.3     1  UNL1        0.2364
     49 C          -5.1401    3.7215   19.7806 C.3     1  UNL1        0.1762
     50 O          -4.6515    3.4591   18.3869 O.3     1  UNL1       -0.3788
     51 H          -5.3333    3.7245   17.7499 H       1  UNL1        0.2106
     52 C          -0.0784    2.2778   19.1866 C.3     1  UNL1        0.0355
     53 C           0.9576    1.1943   19.2379 C.ar    1  UNL1       -0.0217
     54 C           2.2244    1.3298   18.4462 C.ar    1  UNL1       -0.0043
     55 C           3.2604    0.2462   18.4976 C.ar    1  UNL1       -0.0003
     56 C           3.0296   -0.9727   19.3407 C.ar    1  UNL1       -0.0000
     57 C           1.7628   -1.1082   20.1324 C.ar    1  UNL1       -0.0003
     58 C           0.7268   -0.0247   20.0811 C.ar    1  UNL1       -0.0043
@<TRIPOS>BOND
     1    16    17    1
     2    17    18    1
     3    17    19    1
     4    19    20   ar
     5    20    21   ar
     6    21    22   ar
     7    22    24    1
     8    24    25   ar
     9    25    26   ar
    10    26    27   ar
    11    27    28   ar
    12    28    29   ar
    13    22    23   ar
    14    17     1    1
    15     1     2    1
    16     2     3    1
    17     3     4    1
    18     4    30    1
    19    30    31    1
    20    31    32    1
    21    31    34    1
    22    35    34    1
    23    35    52    1
    24    52    53    1
    25    53    54   ar
    26    54    55   ar
    27    55    56   ar
    28    56    57   ar
    29    57    58   ar
    30    35    36    1
    31    36    37    2
    32    36    38   am
    33    40    38    1
    34    40    41    1
    35    41    42   ar
    36    42    43   ar
    37    43    44   ar
    38    44    45   ar
    39    45    46   ar
    40    46    47    1
    41    47    48    1
    42    48    49    1
    43    49    50    1
    44     4     5    1
    45     5     7    1
    46     7     8    2
    47     7     9   am
    48     9    11    1
    49    11    12    1
    50    12    13    1
    51    12    14    1
    52    12    15    1
    53     5     6    1
    54    23    19   ar
    55     6     1    1
    56    29    24   ar
    57    58    53   ar
    58    49    40    1
    59    46    41   ar
    60    32    33    1
    61    38    39    1
    62    50    51    1
    63     9    10    1
@<TRIPOS>MOLECULE
*****
 58 63 0 0 0
SMALL
GASTEIGER

@<TRIPOS>ATOM
      1 N           4.0454   -0.1101   31.8448 N.3     1  UNL1       -0.2650
      2 C           5.0655   -0.8036   30.9914 C.3     1  UNL1        0.0900
      3 C           4.7807   -1.0598   29.5411 C.3     1  UNL1        0.0901
      4 N           3.4760   -0.6225   28.9443 N.3     1  UNL1       -0.2621
      5 C           2.4558    0.0711   29.7977 C.3     1  UNL1        0.1510
      6 C           2.7405    0.3273   31.2480 C.3     1  UNL1        0.0980
      7 C           1.1510    0.5084   29.2009 C.2     1  UNL1        0.2386
      8 O          -0.0425   -0.3982   29.2609 O.2     1  UNL1       -0.2736
      9 N           1.0397    1.8524   28.5441 N.am    1  UNL1       -0.2961
     10 H           1.8230    2.4475   28.5048 H       1  UNL1        0.1497
     11 C          -0.2651    2.2897   27.9473 C.3     1  UNL1        0.1939
     12 C          -0.2988    2.8802   26.5689 C.3     1  UNL1        0.4154
     13 F          -0.3325    3.4708   25.1903 F       1  UNL1       -0.1682
     14 F          -1.6520    2.2742   26.3423 F       1  UNL1       -0.1682
     15 F           1.0545    3.4863   26.7954 F       1  UNL1       -0.1682
     16 C           5.5252   -0.7573   33.2201 C.3     1  UNL1        0.0255
     17 C           4.3301    0.1461   33.2951 C.3     1  UNL1        0.1147
     18 C           3.1351    1.0496   33.3701 C.3     1  UNL1        0.0255
     19 C           4.6149    0.4023   34.7453 C.ar    1  UNL1        0.2186
     20 N           5.1965   -0.5814   35.7169 N.ar    1  UNL1       -0.2093
     21 C           5.3091    0.0955   37.0507 C.ar    1  UNL1        0.1407
     22 C           4.7970    1.4977   36.9035 C.ar    1  UNL1        0.1834
     23 O           4.3679    1.6874   35.4787 O.2     1  UNL1       -0.4355
     24 C           4.7263    2.5292   37.9903 C.ar    1  UNL1        0.1173
     25 C           3.7517    3.6645   37.8846 C.ar    1  UNL1        0.0223
     26 C           3.6810    4.6960   38.9713 C.ar    1  UNL1        0.0032
     27 C           4.5850    4.5922   40.1638 C.ar    1  UNL1        0.0207
     28 C           5.5597    3.4568   40.2695 C.ar    1  UNL1        0.0989
     29 N           5.6303    2.4254   39.1827 N.ar    1  UNL1       -0.2407
     30 C           3.1912   -0.8787   27.4940 C.3     1  UNL1        0.1021
     31 C           3.6450    0.1039   26.4556 C.3     1  UNL1        0.1269
     32 O           5.1056    0.4061   26.2966 O.3     1  UNL1       -0.3830
     33 H           5.6151   -0.1142   26.9374 H       1  UNL1        0.2104
     34 C           2.6383    0.7844   25.5762 C.3     1  UNL1        0.0401
     35 C           2.5779    0.4580   24.1134 C.3     1  UNL1        0.0833
     36 C           3.6707   -0.3509   23.4797 C.2     1  UNL1        0.2226
     37 O           4.9575    0.3089   23.0812 O.2     1  UNL1       -0.2751
     38 N           3.4766   -1.8196   23.2446 N.am    1  UNL1       -0.2999
     39 H           2.6321   -2.2526   23.5062 H       1  UNL1        0.1498
     40 C           4.5694   -2.6285   22.6110 C.3     1  UNL1        0.1278
     41 C           4.6698   -2.7132   21.1168 C.ar    1  UNL1        0.0320
     42 C           3.6774   -1.9888   20.2561 C.ar    1  UNL1        0.0004
     43 C           3.7778   -2.0734   18.7619 C.ar    1  UNL1       -0.0001
     44 C           4.8706   -2.8824   18.1283 C.ar    1  UNL1        0.0031
     45 C           5.8629   -3.6067   18.9888 C.ar    1  UNL1        0.0366
     46 C           5.7625   -3.5221   20.4831 C.ar    1  UNL1        0.1362
     47 O           6.7549   -4.2464   21.3437 O.3     1  UNL1       -0.4730
     48 C           6.6545   -4.1618   22.8379 C.3     1  UNL1        0.2364
     49 C           5.5617   -3.3528   23.4715 C.3     1  UNL1        0.1762
     50 O           5.4613   -3.2682   24.9658 O.3     1  UNL1       -0.3788
     51 H           6.1737   -3.7897   25.3678 H       1  UNL1        0.2106
     52 C           1.4248    0.9405   23.2842 C.3     1  UNL1        0.0355
     53 C           1.5557    1.0211   21.7921 C.ar    1  UNL1       -0.0217
     54 C           2.5194    1.9910   21.1751 C.ar    1  UNL1       -0.0043
     55 C           2.6503    2.0715   19.6830 C.ar    1  UNL1       -0.0003
     56 C           1.8177    1.1822   18.8079 C.ar    1  UNL1       -0.0000
     57 C           0.8541    0.2122   19.4250 C.ar    1  UNL1       -0.0003
     58 C           0.7231    0.1317   20.9170 C.ar    1  UNL1       -0.0043
@<TRIPOS>BOND
     1    16    17    1
     2    17    18    1
     3    17    19    1
     4    19    20   ar
     5    20    21   ar
     6    21    22   ar
     7    22    24    1
     8    24    25   ar
     9    25    26   ar
    10    26    27   ar
    11    27    28   ar
    12    28    29   ar
    13    22    23   ar
    14    17     1    1
    15     1     2    1
    16     2     3    1
    17     3     4    1
    18     4    30    1
    19    30    31    1
    20    31    32    1
    21    31    34    1
    22    35    34    1
    23    35    52    1
    24    52    53    1
    25    53    54   ar
    26    54    55   ar
    27    55    56   ar
    28    56    57   ar
    29    57    58   ar
    30    35    36    1
    31    36    37    2
    32    36    38   am
    33    40    38    1
    34    40    41    1
    35    41    42   ar
    36    42    43   ar
    37    43    44   ar
    38    44    45   ar
    39    45    46   ar
    40    46    47    1
    41    47    48    1
    42    48    49    1
    43    49    50    1
    44     4     5    1
    45     5     7    1
    46     7     8    2
    47     7     9   am
    48     9    11    1
    49    11    12    1
    50    12    13    1
    51    12    14    1
    52    12    15    1
    53     5     6    1
    54    23    19   ar
    55     6     1    1
    56    29    24   ar
    57    58    53   ar
    58    49    40    1
    59    46    41   ar
    60    32    33    1
    61    38    39    1
    62    50    51    1
    63     9    10    1
@<TRIPOS>MOLECULE
*****
 58 63 0 0 0
SMALL
GASTEIGER

@<TRIPOS>ATOM
      1 N           4.2293   -0.6040   30.5114 N.3     1  UNL1       -0.2650
      2 C           3.1057    0.0435   29.7577 C.3     1  UNL1        0.0900
      3 C           2.9730   -0.1706   28.2790 C.3     1  UNL1        0.0901
      4 N           3.9639   -1.0323   27.5540 N.3     1  UNL1       -0.2621
      5 C           5.0875   -1.6799   28.3078 C.3     1  UNL1        0.1510
      6 C           5.2202   -1.4658   29.7865 C.3     1  UNL1        0.0980
      7 C           6.0784   -2.5416   27.5828 C.2     1  UNL1        0.2386
      8 O           7.2489   -1.9143   26.8852 O.2     1  UNL1       -0.2736
      9 N           5.8989   -4.0306   27.5554 N.am    1  UNL1       -0.2961
     10 H           5.1308   -4.4423   28.0133 H       1  UNL1        0.1497
     11 C           6.8898   -4.8922   26.8305 C.3     1  UNL1        0.1939
     12 C           7.3804   -6.1627   27.4592 C.3     1  UNL1        0.4154
     13 F           7.8709   -7.4332   28.0880 F       1  UNL1       -0.1682
     14 F           6.5235   -6.9584   26.5198 F       1  UNL1       -0.1682
     15 F           8.2372   -5.3669   28.3987 F       1  UNL1       -0.1682
     16 C           4.2737    1.0932   31.7833 C.3     1  UNL1        0.0255
     17 C           4.3620   -0.3899   31.9901 C.3     1  UNL1        0.1147
     18 C           4.4502   -1.8729   32.1970 C.3     1  UNL1        0.0255
     19 C           4.4947   -0.1758   33.4688 C.ar    1  UNL1        0.2186
     20 N           5.3069   -1.0132   34.4116 N.ar    1  UNL1       -0.2093
     21 C           5.1527   -0.4416   35.7898 C.ar    1  UNL1        0.1407
     22 C           4.2451    0.7492   35.6988 C.ar    1  UNL1        0.1834
     23 O           3.8384    0.9135   34.2644 O.2     1  UNL1       -0.4355
     24 C           3.8189    1.6223   36.8416 C.ar    1  UNL1        0.1173
     25 C           4.7742    1.9115   37.9614 C.ar    1  UNL1        0.0223
     26 C           4.3481    2.7847   39.1041 C.ar    1  UNL1        0.0032
     27 C           2.9667    3.3687   39.1272 C.ar    1  UNL1        0.0207
     28 C           2.0114    3.0796   38.0074 C.ar    1  UNL1        0.0989
     29 N           2.4375    2.2064   36.8646 N.ar    1  UNL1       -0.2407
     30 C           3.8312   -1.2464   26.0753 C.3     1  UNL1        0.1021
     31 C           4.6103   -0.3911   25.1207 C.3     1  UNL1        0.1269
     32 O           5.7186   -0.9924   24.3082 O.3     1  UNL1       -0.3830
     33 H           5.7990   -1.9358   24.5191 H       1  UNL1        0.2104
     34 C           4.2813    1.0654   24.9787 C.3     1  UNL1        0.0401
     35 C           3.1392    1.4947   24.1062 C.3     1  UNL1        0.0833
     36 C           2.9523    0.8713   22.7547 C.2     1  UNL1        0.2226
     37 O           1.5705    0.5914   22.2425 O.2     1  UNL1       -0.2751
     38 N           4.1472    0.5279   21.9155 N.am    1  UNL1       -0.2999
     39 H           5.0541    0.7117   22.2516 H       1  UNL1        0.1498
     40 C           3.9602   -0.0955   20.5640 C.3     1  UNL1        0.1278
     41 C           4.0049   -1.5872   20.4135 C.ar    1  UNL1        0.0320
     42 C           4.2364   -2.4556   21.6144 C.ar    1  UNL1        0.0004
     43 C           4.2811   -3.9474   21.4639 C.ar    1  UNL1       -0.0001
     44 C           4.0942   -4.5707   20.1125 C.ar    1  UNL1        0.0031
     45 C           3.8626   -3.7024   18.9115 C.ar    1  UNL1        0.0366
     46 C           3.8180   -2.2106   19.0620 C.ar    1  UNL1        0.1362
     47 O           3.5864   -1.3422   17.8611 O.3     1  UNL1       -0.4730
     48 C           3.5418    0.1495   18.0116 C.3     1  UNL1        0.2364
     49 C           3.7287    0.7729   19.3630 C.3     1  UNL1        0.1762
     50 O           3.6841    2.2647   19.5135 O.3     1  UNL1       -0.3788
     51 H           3.5271    2.6725   18.6475 H       1  UNL1        0.2106
     52 C           2.1840    2.5474   24.5851 C.3     1  UNL1        0.0355
     53 C           1.4016    2.3322   25.8467 C.ar    1  UNL1       -0.0217
     54 C           0.3040    1.3105   25.8834 C.ar    1  UNL1       -0.0043
     55 C          -0.4785    1.0953   27.1450 C.ar    1  UNL1       -0.0003
     56 C          -0.1633    1.9018   28.3698 C.ar    1  UNL1       -0.0000
     57 C           0.9343    2.9235   28.3331 C.ar    1  UNL1       -0.0003
     58 C           1.7167    3.1387   27.0715 C.ar    1  UNL1       -0.0043
@<TRIPOS>BOND
     1    16    17    1
     2    17    18    1
     3    17    19    1
     4    19    20   ar
     5    20    21   ar
     6    21    22   ar
     7    22    24    1
     8    24    25   ar
     9    25    26   ar
    10    26    27   ar
    11    27    28   ar
    12    28    29   ar
    13    22    23   ar
    14    17     1    1
    15     1     2    1
    16     2     3    1
    17     3     4    1
    18     4    30    1
    19    30    31    1
    20    31    32    1
    21    31    34    1
    22    35    34    1
    23    35    52    1
    24    52    53    1
    25    53    54   ar
    26    54    55   ar
    27    55    56   ar
    28    56    57   ar
    29    57    58   ar
    30    35    36    1
    31    36    37    2
    32    36    38   am
    33    40    38    1
    34    40    41    1
    35    41    42   ar
    36    42    43   ar
    37    43    44   ar
    38    44    45   ar
    39    45    46   ar
    40    46    47    1
    41    47    48    1
    42    48    49    1
    43    49    50    1
    44     4     5    1
    45     5     7    1
    46     7     8    2
    47     7     9   am
    48     9    11    1
    49    11    12    1
    50    12    13    1
    51    12    14    1
    52    12    15    1
    53     5     6    1
    54    23    19   ar
    55     6     1    1
    56    29    24   ar
    57    58    53   ar
    58    49    40    1
    59    46    41   ar
    60    32    33    1
    61    38    39    1
    62    50    51    1
    63     9    10    1
@<TRIPOS>MOLECULE
*****
 58 63 0 0 0
SMALL
GASTEIGER

@<TRIPOS>ATOM
      1 N           8.3277   -6.2168   26.7054 N.3     1  UNL1       -0.2650
      2 C           9.1620   -5.9022   25.4992 C.3     1  UNL1        0.0900
      3 C           9.4897   -4.4771   25.1649 C.3     1  UNL1        0.0901
      4 N           8.9831   -3.3667   26.0368 N.3     1  UNL1       -0.2621
      5 C           8.1488   -3.6812   27.2430 C.3     1  UNL1        0.1510
      6 C           7.8210   -5.1063   27.5774 C.3     1  UNL1        0.0980
      7 C           7.6422   -2.5707   28.1149 C.2     1  UNL1        0.2386
      8 O           8.5925   -1.8172   28.9976 O.2     1  UNL1       -0.2736
      9 N           6.1853   -2.2137   28.1040 N.am    1  UNL1       -0.2961
     10 H           5.5616   -2.7082   27.5246 H       1  UNL1        0.1497
     11 C           5.6788   -1.1032   28.9758 C.3     1  UNL1        0.1939
     12 C           4.2289   -0.7209   28.9367 C.3     1  UNL1        0.4154
     13 F           2.7789   -0.3386   28.8976 F       1  UNL1       -0.1682
     14 F           4.0855   -1.4006   27.6073 F       1  UNL1       -0.1682
     15 F           4.3722   -0.0412   30.2662 F       1  UNL1       -0.1682
     16 C           7.7126   -7.9152   25.5931 C.3     1  UNL1        0.0255
     17 C           7.9999   -7.6419   27.0398 C.3     1  UNL1        0.1147
     18 C           8.2872   -7.3685   28.4864 C.3     1  UNL1        0.0255
     19 C           7.6722   -9.0669   27.3741 C.ar    1  UNL1        0.2186
     20 N           8.6347  -10.0955   27.8894 N.ar    1  UNL1       -0.2093
     21 C           7.8818  -11.3779   28.0856 C.ar    1  UNL1        0.1407
     22 C           6.4538  -11.1419   27.6915 C.ar    1  UNL1        0.1834
     23 O           6.3242   -9.7137   27.2517 O.2     1  UNL1       -0.4355
     24 C           5.3494  -12.1561   27.7303 C.ar    1  UNL1        0.1173
     25 C           4.3510  -12.1353   28.8496 C.ar    1  UNL1        0.0223
     26 C           3.2465  -13.1495   28.8884 C.ar    1  UNL1        0.0032
     27 C           3.1404  -14.1845   27.8079 C.ar    1  UNL1        0.0207
     28 C           4.1388  -14.2053   26.6886 C.ar    1  UNL1        0.0989
     29 N           5.2433  -13.1911   26.6498 N.ar    1  UNL1       -0.2407
     30 C           9.3109   -1.9416   25.7024 C.3     1  UNL1        0.1021
     31 C           8.4301   -1.1694   24.7655 C.3     1  UNL1        0.1269
     32 O           8.9675    0.0366   24.0537 O.3     1  UNL1       -0.3830
     33 H           9.8925    0.1774   24.3092 H       1  UNL1        0.2104
     34 C           7.0119   -1.6032   24.5405 C.3     1  UNL1        0.0401
     35 C           6.4079   -1.5112   23.1706 C.3     1  UNL1        0.0833
     36 C           5.2254   -0.6200   22.9306 C.2     1  UNL1        0.2226
     37 O           5.4323    0.7941   22.4747 O.2     1  UNL1       -0.2751
     38 N           3.8362   -1.1427   23.1465 N.am    1  UNL1       -0.2999
     39 H           3.7004   -2.0708   23.4457 H       1  UNL1        0.1498
     40 C           2.6538   -0.2515   22.9065 C.3     1  UNL1        0.1278
     41 C           2.1829    0.0091   21.5064 C.ar    1  UNL1        0.0320
     42 C           2.8946   -0.6215   20.3462 C.ar    1  UNL1        0.0004
     43 C           2.4237   -0.3609   18.9461 C.ar    1  UNL1       -0.0001
     44 C           1.2413    0.5303   18.7061 C.ar    1  UNL1        0.0031
     45 C           0.5297    1.1609   19.8662 C.ar    1  UNL1        0.0366
     46 C           1.0005    0.9003   21.2664 C.ar    1  UNL1        0.1362
     47 O           0.2889    1.5309   22.4266 O.3     1  UNL1       -0.4730
     48 C           0.7597    1.2703   23.8267 C.3     1  UNL1        0.2364
     49 C           1.9421    0.3791   24.0667 C.3     1  UNL1        0.1762
     50 O           2.4130    0.1184   25.4669 O.3     1  UNL1       -0.3788
     51 H           1.8477    0.5979   26.0925 H       1  UNL1        0.2106
     52 C           6.9863   -2.3104   22.0406 C.3     1  UNL1        0.0355
     53 C           6.0984   -2.7943   20.9328 C.ar    1  UNL1       -0.0217
     54 C           5.0435   -3.8234   21.2122 C.ar    1  UNL1       -0.0043
     55 C           4.1556   -4.3073   20.1043 C.ar    1  UNL1       -0.0003
     56 C           4.3225   -3.7620   18.7169 C.ar    1  UNL1       -0.0000
     57 C           5.3773   -2.7328   18.4375 C.ar    1  UNL1       -0.0003
     58 C           6.2652   -2.2490   19.5453 C.ar    1  UNL1       -0.0043
@<TRIPOS>BOND
     1    16    17    1
     2    17    18    1
     3    17    19    1
     4    19    20   ar
     5    20    21   ar
     6    21    22   ar
     7    22    24    1
     8    24    25   ar
     9    25    26   ar
    10    26    27   ar
    11    27    28   ar
    12    28    29   ar
    13    22    23   ar
    14    17     1    1
    15     1     2    1
    16     2     3    1
    17     3     4    1
    18     4    30    1
    19    30    31    1
    20    31    32    1
    21    31    34    1
    22    35    34    1
    23    35    52    1
    24    52    53    1
    25    53    54   ar
    26    54    55   ar
    27    55    56   ar
    28    56    57   ar
    29    57    58   ar
    30    35    36    1
    31    36    37    2
    32    36    38   am
    33    40    38    1
    34    40    41    1
    35    41    42   ar
    36    42    43   ar
    37    43    44   ar
    38    44    45   ar
    39    45    46   ar
    40    46    47    1
    41    47    48    1
    42    48    49    1
    43    49    50    1
    44     4     5    1
    45     5     7    1
    46     7     8    2
    47     7     9   am
    48     9    11    1
    49    11    12    1
    50    12    13    1
    51    12    14    1
    52    12    15    1
    53     5     6    1
    54    23    19   ar
    55     6     1    1
    56    29    24   ar
    57    58    53   ar
    58    49    40    1
    59    46    41   ar
    60    32    33    1
    61    38    39    1
    62    50    51    1
    63     9    10    1
@<TRIPOS>MOLECULE
*****
 58 63 0 0 0
SMALL
GASTEIGER

@<TRIPOS>ATOM
      1 N           8.4440   -6.5571   27.2815 N.3     1  UNL1       -0.2650
      2 C           9.0374   -6.0797   25.9892 C.3     1  UNL1        0.0900
      3 C           9.4012   -4.6344   25.8196 C.3     1  UNL1        0.0901
      4 N           9.1717   -3.6665   26.9423 N.3     1  UNL1       -0.2621
      5 C           8.5783   -4.1439   28.2347 C.3     1  UNL1        0.1510
      6 C           8.2144   -5.5892   28.4042 C.3     1  UNL1        0.0980
      7 C           8.3487   -3.1760   29.3573 C.2     1  UNL1        0.2386
      8 O           9.4931   -2.7564   30.2316 O.2     1  UNL1       -0.2736
      9 N           6.9748   -2.6277   29.6058 N.am    1  UNL1       -0.2961
     10 H           6.2237   -2.9031   29.0320 H       1  UNL1        0.1497
     11 C           6.7452   -1.6598   30.7285 C.3     1  UNL1        0.1939
     12 C           5.6136   -0.6782   30.6528 C.3     1  UNL1        0.4154
     13 F           4.4820    0.3036   30.5771 F       1  UNL1       -0.1682
     14 F           6.4288    0.1913   29.7421 F       1  UNL1       -0.1682
     15 F           4.7985   -1.5477   31.5635 F       1  UNL1       -0.1682
     16 C           9.0679   -8.1193   28.5738 C.3     1  UNL1        0.0255
     17 C           8.0802   -8.0024   27.4510 C.3     1  UNL1        0.1147
     18 C           7.0924   -7.8855   26.3282 C.3     1  UNL1        0.0255
     19 C           7.7163   -9.4477   27.6206 C.ar    1  UNL1        0.2186
     20 N           8.6594  -10.5584   27.9768 N.ar    1  UNL1       -0.2093
     21 C           7.8715  -11.8332   28.0401 C.ar    1  UNL1        0.1407
     22 C           6.4414  -11.5104   27.7230 C.ar    1  UNL1        0.1834
     23 O           6.3454  -10.0361   27.4637 O.2     1  UNL1       -0.4355
     24 C           5.3064  -12.4899   27.6738 C.ar    1  UNL1        0.1173
     25 C           4.2848  -12.5099   28.7719 C.ar    1  UNL1        0.0223
     26 C           3.1498  -13.4894   28.7227 C.ar    1  UNL1        0.0032
     27 C           3.0365  -14.4489   27.5753 C.ar    1  UNL1        0.0207
     28 C           4.0581  -14.4289   26.4772 C.ar    1  UNL1        0.0989
     29 N           5.1931  -13.4494   26.5264 N.ar    1  UNL1       -0.2407
     30 C           9.5355   -2.2212   26.7728 C.3     1  UNL1        0.1021
     31 C           8.7859   -1.3692   25.7919 C.3     1  UNL1        0.1269
     32 O           9.3011   -1.2065   24.3926 O.3     1  UNL1       -0.3830
     33 H          10.1213   -1.7140   24.2890 H       1  UNL1        0.2104
     34 C           7.5211   -0.6799   26.2103 C.3     1  UNL1        0.0401
     35 C           6.1916   -1.2292   25.7852 C.3     1  UNL1        0.0833
     36 C           5.8809   -1.3969   24.3273 C.2     1  UNL1        0.2226
     37 O           6.6242   -0.5898   23.3044 O.2     1  UNL1       -0.2751
     38 N           4.8269   -2.3715   23.8924 N.am    1  UNL1       -0.2999
     39 H           4.3391   -2.9011   24.5637 H       1  UNL1        0.1498
     40 C           4.5162   -2.5391   22.4345 C.3     1  UNL1        0.1278
     41 C           3.5067   -1.6468   21.7754 C.ar    1  UNL1        0.0320
     42 C           2.8078   -0.5867   22.5741 C.ar    1  UNL1        0.0004
     43 C           1.7983    0.3057   21.9149 C.ar    1  UNL1       -0.0001
     44 C           1.4876    0.1380   20.4571 C.ar    1  UNL1        0.0031
     45 C           2.1864   -0.9220   19.6584 C.ar    1  UNL1        0.0366
     46 C           3.1959   -1.8145   20.3175 C.ar    1  UNL1        0.1362
     47 O           3.8947   -2.8745   19.5188 O.3     1  UNL1       -0.4730
     48 C           4.9043   -3.7668   20.1779 C.3     1  UNL1        0.2364
     49 C           5.2150   -3.5992   21.6358 C.3     1  UNL1        0.1762
     50 O           6.2246   -4.4916   22.2949 O.3     1  UNL1       -0.3788
     51 H           6.5788   -5.1161   21.6427 H       1  UNL1        0.2106
     52 C           5.1728   -1.6108   26.8179 C.3     1  UNL1        0.0355
     53 C           4.0703   -0.6574   27.1720 C.ar    1  UNL1       -0.0217
     54 C           4.0309    0.7075   26.5511 C.ar    1  UNL1       -0.0043
     55 C           2.9283    1.6610   26.9053 C.ar    1  UNL1       -0.0003
     56 C           1.8653    1.2495   27.8803 C.ar    1  UNL1       -0.0000
     57 C           1.9047   -0.1154   28.5011 C.ar    1  UNL1       -0.0003
     58 C           3.0072   -1.0689   28.1470 C.ar    1  UNL1       -0.0043
@<TRIPOS>BOND
     1    16    17    1
     2    17    18    1
     3    17    19    1
     4    19    20   ar
     5    20    21   ar
     6    21    22   ar
     7    22    24    1
     8    24    25   ar
     9    25    26   ar
    10    26    27   ar
    11    27    28   ar
    12    28    29   ar
    13    22    23   ar
    14    17     1    1
    15     1     2    1
    16     2     3    1
    17     3     4    1
    18     4    30    1
    19    30    31    1
    20    31    32    1
    21    31    34    1
    22    35    34    1
    23    35    52    1
    24    52    53    1
    25    53    54   ar
    26    54    55   ar
    27    55    56   ar
    28    56    57   ar
    29    57    58   ar
    30    35    36    1
    31    36    37    2
    32    36    38   am
    33    40    38    1
    34    40    41    1
    35    41    42   ar
    36    42    43   ar
    37    43    44   ar
    38    44    45   ar
    39    45    46   ar
    40    46    47    1
    41    47    48    1
    42    48    49    1
    43    49    50    1
    44     4     5    1
    45     5     7    1
    46     7     8    2
    47     7     9   am
    48     9    11    1
    49    11    12    1
    50    12    13    1
    51    12    14    1
    52    12    15    1
    53     5     6    1
    54    23    19   ar
    55     6     1    1
    56    29    24   ar
    57    58    53   ar
    58    49    40    1
    59    46    41   ar
    60    32    33    1
    61    38    39    1
    62    50    51    1
    63     9    10    1
