@<TRIPOS>MOLECULE
*****
 35 38 0 0 0
SMALL
GASTEIGER

@<TRIPOS>ATOM
      1 C           7.2316   -7.7113   26.2136 C.ar    1  UNL1        0.0503
      2 C           6.7145   -6.4484   26.8360 C.ar    1  UNL1        0.0143
      3 C           6.9337   -5.1312   26.1528 C.ar    1  UNL1       -0.0029
      4 C           7.6701   -5.0769   24.8471 C.ar    1  UNL1       -0.0208
      5 C           8.1872   -6.3399   24.2246 C.ar    1  UNL1       -0.0029
      6 C           7.9680   -7.6571   24.9079 C.ar    1  UNL1        0.0143
      7 C           8.1514   -9.7097   27.5958 C.2     1  UNL1        0.2322
      8 O           9.5098   -9.0735   27.6116 O.2     1  UNL1       -0.2744
      9 N           7.0124   -9.0286   26.8968 N.am    1  UNL1       -0.2836
     10 H           6.1209   -9.4461   26.8865 H       1  UNL1        0.1549
     11 C           7.9322  -11.0270   28.2791 C.3     1  UNL1        0.1315
     12 N           3.0510  -12.3473   26.7588 N.pl3   1  UNL1       -0.3375
     13 C           4.3451  -12.2977   27.5158 C.ar    1  UNL1        0.1564
     14 N           5.5140  -11.4100   27.2066 N.ar    1  UNL1       -0.2283
     15 C           6.5887  -11.6909   28.2146 C.ar    1  UNL1        0.0766
     16 C           6.0840  -12.7522   29.1468 C.ar    1  UNL1        0.0533
     17 S           4.6974  -13.1273   28.7149 S.2     1  UNL1       -0.0518
     18 H           2.9132  -11.7603   25.9805 H       1  UNL1        0.1442
     19 H           2.3395  -12.9668   27.0402 H       1  UNL1        0.1442
     20 C           7.8894   -3.7596   24.1638 C.3     1  UNL1        0.0420
     21 C           7.4269   -3.5616   22.7507 C.3     1  UNL1        0.0585
     22 C           8.2380   -2.9798   21.6310 C.3     1  UNL1        0.0175
     23 C           7.3846   -2.9692   20.3975 C.3     1  UNL1        0.0199
     24 C           6.0461   -3.5444   20.7548 C.3     1  UNL1        0.0855
     25 N           6.0723   -3.9105   22.2092 N.3     1  UNL1       -0.2971
     26 H           5.9033   -4.9106   22.3175 H       1  UNL1        0.1233
     27 C           4.8853   -3.7222   19.8216 C.3     1  UNL1        0.1470
     28 O           4.4071   -5.1007   19.4736 O.3     1  UNL1       -0.3787
     29 H           3.6552   -5.0379   18.8641 H       1  UNL1        0.2108
     30 C           4.2027   -2.5217   19.2364 C.ar    1  UNL1        0.0055
     31 C           4.6003   -2.0199   17.8798 C.ar    1  UNL1       -0.0019
     32 C           3.9177   -0.8193   17.2945 C.ar    1  UNL1       -0.0002
     33 C           2.8375   -0.1205   18.0658 C.ar    1  UNL1       -0.0000
     34 C           2.4399   -0.6223   19.4223 C.ar    1  UNL1       -0.0002
     35 C           3.1225   -1.8229   20.0076 C.ar    1  UNL1       -0.0019
@<TRIPOS>BOND
     1    12    13    1
     2    13    14   ar
     3    14    15   ar
     4    15    11    1
     5    11     7    1
     6     7     8    2
     7     7     9   am
     8     9     1    1
     9     1     2   ar
    10     2     3   ar
    11     3     4   ar
    12     4    20    1
    13    21    20    1
    14    21    22    1
    15    22    23    1
    16    24    23    1
    17    24    27    1
    18    27    28    1
    19    27    30    1
    20    30    31   ar
    21    31    32   ar
    22    32    33   ar
    23    33    34   ar
    24    34    35   ar
    25    24    25    1
    26     4     5   ar
    27     5     6   ar
    28    15    16   ar
    29    16    17   ar
    30    17    13   ar
    31     6     1   ar
    32    25    21    1
    33    35    30   ar
    34    12    18    1
    35    12    19    1
    36     9    10    1
    37    28    29    1
    38    25    26    1
@<TRIPOS>MOLECULE
*****
 35 38 0 0 0
SMALL
GASTEIGER

@<TRIPOS>ATOM
      1 C           8.2893   -5.0095   22.8940 C.ar    1  UNL1        0.0503
      2 C           8.7994   -6.4171   22.8026 C.ar    1  UNL1        0.0143
      3 C           8.6563   -7.3442   23.9730 C.ar    1  UNL1       -0.0029
      4 C           8.0030   -6.8636   25.2349 C.ar    1  UNL1       -0.0208
      5 C           7.4929   -5.4560   25.3264 C.ar    1  UNL1       -0.0029
      6 C           7.6361   -4.5290   24.1559 C.ar    1  UNL1        0.0143
      7 C           7.2304   -3.7191   20.9031 C.2     1  UNL1        0.2322
      8 O           5.8852   -4.2830   21.2531 O.2     1  UNL1       -0.2744
      9 N           8.4324   -4.0823   21.7235 N.am    1  UNL1       -0.2836
     10 H           9.3153   -3.7122   21.4938 H       1  UNL1        0.1549
     11 C           7.3735   -2.7919   19.7326 C.3     1  UNL1        0.1315
     12 N           3.5647   -1.1702   16.4549 N.pl3   1  UNL1       -0.3375
     13 C           4.4185   -1.3412   17.6763 C.ar    1  UNL1        0.1564
     14 N           5.6272   -2.2220   17.7908 N.ar    1  UNL1       -0.2283
     15 C           6.1692   -2.0866   19.1829 C.ar    1  UNL1        0.0766
     16 C           5.2955   -1.1221   19.9287 C.ar    1  UNL1        0.0533
     17 S           4.2135   -0.6613   18.9976 S.2     1  UNL1       -0.0518
     18 H           3.7812   -1.6623   15.6301 H       1  UNL1        0.1442
     19 H           2.7879   -0.5658   16.4780 H       1  UNL1        0.1442
     20 C           7.8599   -7.7908   26.4054 C.3     1  UNL1        0.0420
     21 C           8.0843   -7.2807   27.7980 C.3     1  UNL1        0.0585
     22 C           9.3455   -7.4246   28.5971 C.3     1  UNL1        0.0175
     23 C           9.1276   -6.7701   29.9290 C.3     1  UNL1        0.0199
     24 C           7.7316   -6.2216   29.9531 C.3     1  UNL1        0.0855
     25 N           7.0869   -6.5372   28.6361 N.3     1  UNL1       -0.2971
     26 H           6.8166   -5.6728   28.1670 H       1  UNL1        0.1233
     27 C           7.0927   -5.4866   31.0940 C.3     1  UNL1        0.1470
     28 O           6.5190   -6.2501   32.2507 O.3     1  UNL1       -0.3787
     29 H           6.1474   -5.6284   32.8960 H       1  UNL1        0.2108
     30 C           7.0274   -3.9882   31.0781 C.ar    1  UNL1        0.0055
     31 C           6.5425   -3.2458   32.2880 C.ar    1  UNL1       -0.0019
     32 C           6.4772   -1.7473   32.2722 C.ar    1  UNL1       -0.0002
     33 C           6.8968   -0.9912   31.0466 C.ar    1  UNL1       -0.0000
     34 C           7.3817   -1.7336   29.8367 C.ar    1  UNL1       -0.0002
     35 C           7.4470   -3.2321   29.8525 C.ar    1  UNL1       -0.0019
@<TRIPOS>BOND
     1    12    13    1
     2    13    14   ar
     3    14    15   ar
     4    15    11    1
     5    11     7    1
     6     7     8    2
     7     7     9   am
     8     9     1    1
     9     1     2   ar
    10     2     3   ar
    11     3     4   ar
    12     4    20    1
    13    21    20    1
    14    21    22    1
    15    22    23    1
    16    24    23    1
    17    24    27    1
    18    27    28    1
    19    27    30    1
    20    30    31   ar
    21    31    32   ar
    22    32    33   ar
    23    33    34   ar
    24    34    35   ar
    25    24    25    1
    26     4     5   ar
    27     5     6   ar
    28    15    16   ar
    29    16    17   ar
    30    17    13   ar
    31     6     1   ar
    32    25    21    1
    33    35    30   ar
    34    12    18    1
    35    12    19    1
    36     9    10    1
    37    28    29    1
    38    25    26    1
@<TRIPOS>MOLECULE
*****
 35 38 0 0 0
SMALL
GASTEIGER

@<TRIPOS>ATOM
      1 C         -12.8621   -7.2455   18.8327 C.ar    1  UNL1        0.0503
      2 C         -13.2069   -5.9461   19.4978 C.ar    1  UNL1        0.0143
      3 C         -12.2973   -4.7627   19.3488 C.ar    1  UNL1       -0.0029
      4 C         -11.0428   -4.8789   18.5347 C.ar    1  UNL1       -0.0208
      5 C         -10.6980   -6.1783   17.8696 C.ar    1  UNL1       -0.0029
      6 C         -11.6076   -7.3617   18.0186 C.ar    1  UNL1        0.0143
      7 C         -14.7386   -8.7741   17.8881 C.2     1  UNL1        0.2322
      8 O         -14.7959   -7.9358   16.6455 O.2     1  UNL1       -0.2744
      9 N         -13.7717   -8.4290   18.9817 N.am    1  UNL1       -0.2836
     10 H         -13.7341   -8.9791   19.7972 H       1  UNL1        0.1549
     11 C         -15.6483   -9.9575   18.0370 C.3     1  UNL1        0.1315
     12 N         -19.8517   -8.4456   20.8522 N.pl3   1  UNL1       -0.3375
     13 C         -18.9952   -9.0680   19.7897 C.ar    1  UNL1        0.1564
     14 N         -17.4981   -9.0086   19.7170 N.ar    1  UNL1       -0.2283
     15 C         -17.0631   -9.7629   18.4957 C.ar    1  UNL1        0.0766
     16 C         -18.2913  -10.2885   17.8134 C.ar    1  UNL1        0.0533
     17 S         -19.4854   -9.8590   18.6131 S.2     1  UNL1       -0.0518
     18 H         -19.4347   -7.9427   21.5887 H       1  UNL1        0.1442
     19 H         -20.8309   -8.5401   20.8132 H       1  UNL1        0.1442
     20 C         -10.1332   -3.6954   18.3857 C.3     1  UNL1        0.0420
     21 C         -10.6637   -2.4069   17.8307 C.3     1  UNL1        0.0585
     22 C         -10.3395   -1.8263   16.4861 C.3     1  UNL1        0.0175
     23 C         -11.0870   -0.5332   16.3471 C.3     1  UNL1        0.0199
     24 C         -11.8731   -0.3147   17.6059 C.3     1  UNL1        0.0855
     25 N         -11.6115   -1.4726   18.5227 N.3     1  UNL1       -0.2971
     26 H         -12.4859   -1.9560   18.7280 H       1  UNL1        0.1233
     27 C         -12.7644    0.8563   17.8966 C.3     1  UNL1        0.1470
     28 O         -12.3506    2.2360   17.4779 O.3     1  UNL1       -0.3787
     29 H         -13.0345    2.8721   17.7397 H       1  UNL1        0.2108
     30 C         -14.0694    0.6476   18.6061 C.ar    1  UNL1        0.0055
     31 C         -14.5491   -0.7428   18.9002 C.ar    1  UNL1       -0.0019
     32 C         -15.8541   -0.9516   19.6097 C.ar    1  UNL1       -0.0002
     33 C         -16.6794    0.2301   20.0250 C.ar    1  UNL1       -0.0000
     34 C         -16.1996    1.6206   19.7308 C.ar    1  UNL1       -0.0002
     35 C         -14.8946    1.8293   19.0214 C.ar    1  UNL1       -0.0019
@<TRIPOS>BOND
     1    12    13    1
     2    13    14   ar
     3    14    15   ar
     4    15    11    1
     5    11     7    1
     6     7     8    2
     7     7     9   am
     8     9     1    1
     9     1     2   ar
    10     2     3   ar
    11     3     4   ar
    12     4    20    1
    13    21    20    1
    14    21    22    1
    15    22    23    1
    16    24    23    1
    17    24    27    1
    18    27    28    1
    19    27    30    1
    20    30    31   ar
    21    31    32   ar
    22    32    33   ar
    23    33    34   ar
    24    34    35   ar
    25    24    25    1
    26     4     5   ar
    27     5     6   ar
    28    15    16   ar
    29    16    17   ar
    30    17    13   ar
    31     6     1   ar
    32    25    21    1
    33    35    30   ar
    34    12    18    1
    35    12    19    1
    36     9    10    1
    37    28    29    1
    38    25    26    1
@<TRIPOS>MOLECULE
*****
 35 38 0 0 0
SMALL
GASTEIGER

@<TRIPOS>ATOM
      1 C           7.5273   -5.5114   24.4372 C.ar    1  UNL1        0.0503
      2 C           8.4145   -5.9543   23.3118 C.ar    1  UNL1        0.0143
      3 C           8.4271   -5.1899   22.0213 C.ar    1  UNL1       -0.0029
      4 C           7.5524   -3.9826   21.8562 C.ar    1  UNL1       -0.0208
      5 C           6.6651   -3.5397   22.9816 C.ar    1  UNL1       -0.0029
      6 C           6.6526   -4.3041   24.2721 C.ar    1  UNL1        0.0143
      7 C           8.4906   -5.9307   26.8135 C.2     1  UNL1        0.2322
      8 O           9.4790   -4.8212   26.6085 O.2     1  UNL1       -0.2744
      9 N           7.5147   -6.2758   25.7279 N.am    1  UNL1       -0.2836
     10 H           6.8660   -7.0040   25.8624 H       1  UNL1        0.1549
     11 C           8.4780   -6.6951   28.1041 C.3     1  UNL1        0.1315
     12 N           6.2314   -4.9544   32.5541 N.pl3   1  UNL1       -0.3375
     13 C           7.2175   -5.1750   31.4455 C.ar    1  UNL1        0.1564
     14 N           7.0128   -6.0501   30.2446 N.ar    1  UNL1       -0.2283
     15 C           8.2501   -5.9751   29.4000 C.ar    1  UNL1        0.0766
     16 C           9.2196   -5.0536   30.0790 C.ar    1  UNL1        0.0533
     17 S           8.5814   -4.5591   31.3432 S.2     1  UNL1       -0.0518
     18 H           5.3568   -5.4058   32.5320 H       1  UNL1        0.1442
     19 H           6.4589   -4.3583   33.3039 H       1  UNL1        0.1442
     20 C           7.5649   -3.2182   20.5656 C.3     1  UNL1        0.0420
     21 C           6.2873   -3.0002   19.8106 C.3     1  UNL1        0.0585
     22 C           5.1010   -3.9180   19.8014 C.3     1  UNL1        0.0175
     23 C           4.0521   -3.3111   18.9174 C.3     1  UNL1        0.0199
     24 C           4.5902   -2.0180   18.3801 C.3     1  UNL1        0.0855
     25 N           5.9716   -1.8259   18.9322 N.3     1  UNL1       -0.2971
     26 H           6.0096   -0.9651   19.4781 H       1  UNL1        0.1233
     27 C           3.8729   -1.0816   17.4536 C.3     1  UNL1        0.1470
     28 O           3.6944   -1.4459   16.0095 O.3     1  UNL1       -0.3787
     29 H           3.2137   -0.7370   15.5542 H       1  UNL1        0.2108
     30 C           3.3341    0.2190   17.9711 C.ar    1  UNL1        0.0055
     31 C           4.2590    1.3789   18.1926 C.ar    1  UNL1       -0.0019
     32 C           3.7202    2.6797   18.7101 C.ar    1  UNL1       -0.0002
     33 C           2.2565    2.8205   19.0061 C.ar    1  UNL1       -0.0000
     34 C           1.3315    1.6605   18.7845 C.ar    1  UNL1       -0.0002
     35 C           1.8703    0.3598   18.2670 C.ar    1  UNL1       -0.0019
@<TRIPOS>BOND
     1    12    13    1
     2    13    14   ar
     3    14    15   ar
     4    15    11    1
     5    11     7    1
     6     7     8    2
     7     7     9   am
     8     9     1    1
     9     1     2   ar
    10     2     3   ar
    11     3     4   ar
    12     4    20    1
    13    21    20    1
    14    21    22    1
    15    22    23    1
    16    24    23    1
    17    24    27    1
    18    27    28    1
    19    27    30    1
    20    30    31   ar
    21    31    32   ar
    22    32    33   ar
    23    33    34   ar
    24    34    35   ar
    25    24    25    1
    26     4     5   ar
    27     5     6   ar
    28    15    16   ar
    29    16    17   ar
    30    17    13   ar
    31     6     1   ar
    32    25    21    1
    33    35    30   ar
    34    12    18    1
    35    12    19    1
    36     9    10    1
    37    28    29    1
    38    25    26    1
@<TRIPOS>MOLECULE
*****
 35 38 0 0 0
SMALL
GASTEIGER

@<TRIPOS>ATOM
      1 C           5.4999   -1.8719   25.5127 C.ar    1  UNL1        0.0503
      2 C           6.2397   -3.1163   25.1204 C.ar    1  UNL1        0.0143
      3 C           5.8915   -3.8252   23.8452 C.ar    1  UNL1       -0.0029
      4 C           4.8034   -3.2897   22.9624 C.ar    1  UNL1       -0.0208
      5 C           4.0636   -2.0453   23.3547 C.ar    1  UNL1       -0.0029
      6 C           4.4118   -1.3364   24.6299 C.ar    1  UNL1        0.0143
      7 C           4.8719   -1.1447   27.9266 C.2     1  UNL1        0.2322
      8 O           3.5474   -1.8354   27.7901 O.2     1  UNL1       -0.2744
      9 N           5.8481   -1.1629   26.7880 N.am    1  UNL1       -0.2836
     10 H           6.7174   -0.7095   26.8776 H       1  UNL1        0.1549
     11 C           5.2201   -0.4357   29.2019 C.3     1  UNL1        0.1315
     12 N           6.4303   -4.3763   32.5014 N.pl3   1  UNL1       -0.3375
     13 C           6.0201   -3.0342   31.9718 C.ar    1  UNL1        0.1564
     14 N           5.9003   -2.6562   30.5252 N.ar    1  UNL1       -0.2283
     15 C           5.4638   -1.2229   30.4552 C.ar    1  UNL1        0.0766
     16 C           5.3138   -0.7149   31.8586 C.ar    1  UNL1        0.0533
     17 S           5.6576   -1.8344   32.7960 S.2     1  UNL1       -0.0518
     18 H           6.6502   -5.1054   31.8775 H       1  UNL1        0.1442
     19 H           6.4797   -4.5280   33.4729 H       1  UNL1        0.1442
     20 C           4.4552   -3.9987   21.6872 C.3     1  UNL1        0.0420
     21 C           4.6574   -3.3130   20.3685 C.3     1  UNL1        0.0585
     22 C           5.8423   -3.4748   19.4632 C.3     1  UNL1        0.0175
     23 C           5.6274   -2.6069   18.2588 C.3     1  UNL1        0.0199
     24 C           4.3095   -1.9087   18.4198 C.3     1  UNL1        0.0855
     25 N           3.7100   -2.3451   19.7236 N.3     1  UNL1       -0.2971
     26 H           2.8118   -2.7988   19.5570 H       1  UNL1        0.1233
     27 C           3.6985   -0.9436   17.4476 C.3     1  UNL1        0.1470
     28 O           3.6710   -1.2699   15.9837 O.3     1  UNL1       -0.3787
     29 H           3.2446   -0.5459   15.4990 H       1  UNL1        0.2108
     30 C           3.1150    0.3478   17.9391 C.ar    1  UNL1        0.0055
     31 C           1.6377    0.4625   18.1726 C.ar    1  UNL1       -0.0019
     32 C           1.0541    1.7540   18.6642 C.ar    1  UNL1       -0.0002
     33 C           1.9478    2.9307   18.9223 C.ar    1  UNL1       -0.0000
     34 C           3.4251    2.8160   18.6888 C.ar    1  UNL1       -0.0002
     35 C           4.0087    1.5246   18.1972 C.ar    1  UNL1       -0.0019
@<TRIPOS>BOND
     1    12    13    1
     2    13    14   ar
     3    14    15   ar
     4    15    11    1
     5    11     7    1
     6     7     8    2
     7     7     9   am
     8     9     1    1
     9     1     2   ar
    10     2     3   ar
    11     3     4   ar
    12     4    20    1
    13    21    20    1
    14    21    22    1
    15    22    23    1
    16    24    23    1
    17    24    27    1
    18    27    28    1
    19    27    30    1
    20    30    31   ar
    21    31    32   ar
    22    32    33   ar
    23    33    34   ar
    24    34    35   ar
    25    24    25    1
    26     4     5   ar
    27     5     6   ar
    28    15    16   ar
    29    16    17   ar
    30    17    13   ar
    31     6     1   ar
    32    25    21    1
    33    35    30   ar
    34    12    18    1
    35    12    19    1
    36     9    10    1
    37    28    29    1
    38    25    26    1
@<TRIPOS>MOLECULE
*****
 35 38 0 0 0
SMALL
GASTEIGER

@<TRIPOS>ATOM
      1 C           1.7774    0.4895   19.6345 C.ar    1  UNL1        0.0503
      2 C           1.9711   -0.5404   20.7076 C.ar    1  UNL1        0.0143
      3 C           2.9037   -1.6932   20.4811 C.ar    1  UNL1       -0.0029
      4 C           3.6425   -1.8160   19.1814 C.ar    1  UNL1       -0.0208
      5 C           3.4488   -0.7861   18.1083 C.ar    1  UNL1       -0.0029
      6 C           2.5162    0.3667   18.3349 C.ar    1  UNL1        0.0143
      7 C           1.3386    2.8837   20.5431 C.2     1  UNL1        0.2322
      8 O           2.7650    2.9722   20.9987 O.2     1  UNL1       -0.2744
      9 N           0.8448    1.6424   19.8610 N.am    1  UNL1       -0.2836
     10 H          -0.0914    1.5843   19.5620 H       1  UNL1        0.1549
     11 C           0.4060    4.0366   20.7696 C.3     1  UNL1        0.1315
     12 N          -4.6533    2.5424   20.9967 N.pl3   1  UNL1       -0.3375
     13 C          -3.3797    3.2055   20.5627 C.ar    1  UNL1        0.1564
     14 N          -2.0394    3.0554   21.2192 N.ar    1  UNL1       -0.2283
     15 C          -1.0542    3.8924   20.4584 C.ar    1  UNL1        0.0766
     16 C          -1.7857    4.5598   19.3316 C.ar    1  UNL1        0.0533
     17 S          -3.2229    4.1353   19.3961 S.2     1  UNL1       -0.0518
     18 H          -4.6554    1.9454   21.7795 H       1  UNL1        0.1442
     19 H          -5.4869    2.7041   20.4986 H       1  UNL1        0.1442
     20 C           4.5751   -2.9689   18.9549 C.3     1  UNL1        0.0420
     21 C           5.7797   -3.1425   19.8316 C.3     1  UNL1        0.0585
     22 C           6.6896   -2.0486   20.3065 C.3     1  UNL1        0.0175
     23 C           7.7582   -2.6705   21.1557 C.3     1  UNL1        0.0199
     24 C           7.5088   -4.1489   21.2058 C.3     1  UNL1        0.0855
     25 N           6.2861   -4.4405   20.3874 N.3     1  UNL1       -0.2971
     26 H           5.5703   -4.8682   20.9749 H       1  UNL1        0.1233
     27 C           8.3368   -5.1582   21.9444 C.3     1  UNL1        0.1470
     28 O           9.5348   -5.7734   21.2839 O.3     1  UNL1       -0.3787
     29 H           9.9543   -6.4001   21.8941 H       1  UNL1        0.2108
     30 C           7.9668   -5.5524   23.3436 C.ar    1  UNL1        0.0055
     31 C           8.3345   -6.9111   23.8620 C.ar    1  UNL1       -0.0019
     32 C           7.9646   -7.3053   25.2612 C.ar    1  UNL1       -0.0002
     33 C           7.2270   -6.3409   26.1419 C.ar    1  UNL1       -0.0000
     34 C           6.8593   -4.9822   25.6235 C.ar    1  UNL1       -0.0002
     35 C           7.2292   -4.5879   24.2243 C.ar    1  UNL1       -0.0019
@<TRIPOS>BOND
     1    12    13    1
     2    13    14   ar
     3    14    15   ar
     4    15    11    1
     5    11     7    1
     6     7     8    2
     7     7     9   am
     8     9     1    1
     9     1     2   ar
    10     2     3   ar
    11     3     4   ar
    12     4    20    1
    13    21    20    1
    14    21    22    1
    15    22    23    1
    16    24    23    1
    17    24    27    1
    18    27    28    1
    19    27    30    1
    20    30    31   ar
    21    31    32   ar
    22    32    33   ar
    23    33    34   ar
    24    34    35   ar
    25    24    25    1
    26     4     5   ar
    27     5     6   ar
    28    15    16   ar
    29    16    17   ar
    30    17    13   ar
    31     6     1   ar
    32    25    21    1
    33    35    30   ar
    34    12    18    1
    35    12    19    1
    36     9    10    1
    37    28    29    1
    38    25    26    1
@<TRIPOS>MOLECULE
*****
 35 38 0 0 0
SMALL
GASTEIGER

@<TRIPOS>ATOM
      1 C           6.9254   -5.1005   26.6686 C.ar    1  UNL1        0.0503
      2 C           7.3910   -6.3654   26.0105 C.ar    1  UNL1        0.0143
      3 C           7.8722   -6.3386   24.5900 C.ar    1  UNL1       -0.0029
      4 C           7.8877   -5.0469   23.8276 C.ar    1  UNL1       -0.0208
      5 C           7.4221   -3.7820   24.4857 C.ar    1  UNL1       -0.0029
      6 C           6.9409   -3.8088   25.9061 C.ar    1  UNL1        0.0143
      7 C           7.4325   -5.2145   29.2141 C.2     1  UNL1        0.2322
      8 O           8.9019   -5.2752   28.9187 O.2     1  UNL1       -0.2744
      9 N           6.4443   -5.1272   28.0891 N.am    1  UNL1       -0.2836
     10 H           5.4799   -5.0873   28.2830 H       1  UNL1        0.1549
     11 C           6.9513   -5.2412   30.6347 C.3     1  UNL1        0.1315
     12 N           5.5334   -1.1787   33.6951 N.pl3   1  UNL1       -0.3375
     13 C           6.3558   -2.1287   32.8758 C.ar    1  UNL1        0.1564
     14 N           5.8461   -3.3432   32.1580 N.ar    1  UNL1       -0.2283
     15 C           7.0076   -3.9961   31.4691 C.ar    1  UNL1        0.0766
     16 C           8.2353   -3.1852   31.7612 C.ar    1  UNL1        0.0533
     17 S           7.8325   -2.0311   32.6306 S.2     1  UNL1       -0.0518
     18 H           4.5657   -1.3279   33.7979 H       1  UNL1        0.1442
     19 H           5.9613   -0.4061   34.1299 H       1  UNL1        0.1442
     20 C           8.3688   -5.0202   22.4071 C.3     1  UNL1        0.0420
     21 C           7.6278   -4.2175   21.3792 C.3     1  UNL1        0.0585
     22 C           8.1112   -2.9544   20.7306 C.3     1  UNL1        0.0175
     23 C           7.0555   -2.4932   19.7700 C.3     1  UNL1        0.0199
     24 C           5.9196   -3.4714   19.8249 C.3     1  UNL1        0.0855
     25 N           6.2733   -4.5371   20.8195 N.3     1  UNL1       -0.2971
     26 H           6.2950   -5.4469   20.3589 H       1  UNL1        0.1233
     27 C           4.6525   -3.3970   19.0256 C.3     1  UNL1        0.1470
     28 O           4.1800   -4.5944   18.2555 O.3     1  UNL1       -0.3787
     29 H           3.3524   -4.3786   17.7979 H       1  UNL1        0.2108
     30 C           3.8578   -2.1252   18.9964 C.ar    1  UNL1        0.0055
     31 C           3.9287   -1.2239   17.7994 C.ar    1  UNL1       -0.0019
     32 C           3.1340    0.0479   17.7701 C.ar    1  UNL1       -0.0002
     33 C           2.2684    0.4185   18.9377 C.ar    1  UNL1       -0.0000
     34 C           2.1975   -0.4827   20.1347 C.ar    1  UNL1       -0.0002
     35 C           2.9922   -1.7546   20.1640 C.ar    1  UNL1       -0.0019
@<TRIPOS>BOND
     1    12    13    1
     2    13    14   ar
     3    14    15   ar
     4    15    11    1
     5    11     7    1
     6     7     8    2
     7     7     9   am
     8     9     1    1
     9     1     2   ar
    10     2     3   ar
    11     3     4   ar
    12     4    20    1
    13    21    20    1
    14    21    22    1
    15    22    23    1
    16    24    23    1
    17    24    27    1
    18    27    28    1
    19    27    30    1
    20    30    31   ar
    21    31    32   ar
    22    32    33   ar
    23    33    34   ar
    24    34    35   ar
    25    24    25    1
    26     4     5   ar
    27     5     6   ar
    28    15    16   ar
    29    16    17   ar
    30    17    13   ar
    31     6     1   ar
    32    25    21    1
    33    35    30   ar
    34    12    18    1
    35    12    19    1
    36     9    10    1
    37    28    29    1
    38    25    26    1
@<TRIPOS>MOLECULE
*****
 35 38 0 0 0
SMALL
GASTEIGER

@<TRIPOS>ATOM
      1 C           0.4939    1.0966   20.2148 C.ar    1  UNL1        0.0503
      2 C           1.0674    1.6602   18.9485 C.ar    1  UNL1        0.0143
      3 C           2.1691    0.9336   18.2357 C.ar    1  UNL1       -0.0029
      4 C           2.6974   -0.3566   18.7891 C.ar    1  UNL1       -0.0208
      5 C           2.1240   -0.9202   20.0554 C.ar    1  UNL1       -0.0029
      6 C           1.0222   -0.1936   20.7682 C.ar    1  UNL1        0.0143
      7 C          -0.2779    2.8360   21.9836 C.2     1  UNL1        0.2322
      8 O           1.1540    3.1224   22.3267 O.2     1  UNL1       -0.2744
      9 N          -0.6079    1.8231   20.9277 N.am    1  UNL1       -0.2836
     10 H          -1.5477    1.6352   20.7025 H       1  UNL1        0.1549
     11 C          -1.3797    3.5626   22.6965 C.3     1  UNL1        0.1315
     12 N          -5.5199    2.9855   19.4707 N.pl3   1  UNL1       -0.3375
     13 C          -4.6889    3.2203   20.6972 C.ar    1  UNL1        0.1564
     14 N          -3.1904    3.2029   20.7635 N.ar    1  UNL1       -0.2283
     15 C          -2.7858    3.4855   22.1799 C.ar    1  UNL1        0.0766
     16 C          -4.0342    3.6776   22.9891 C.ar    1  UNL1        0.0533
     17 S          -5.2103    3.5136   22.0728 S.2     1  UNL1       -0.0518
     18 H          -5.0831    2.7994   18.6083 H       1  UNL1        0.1442
     19 H          -6.5022    3.0176   19.5282 H       1  UNL1        0.1442
     20 C           3.7993   -1.0831   18.0762 C.3     1  UNL1        0.0420
     21 C           4.5306   -2.1975   18.7642 C.3     1  UNL1        0.0585
     22 C           4.0970   -3.6322   18.8233 C.3     1  UNL1        0.0175
     23 C           5.1223   -4.3943   19.6094 C.3     1  UNL1        0.0199
     24 C           6.1896   -3.4305   20.0361 C.3     1  UNL1        0.0855
     25 N           5.8239   -2.0728   19.5137 N.3     1  UNL1       -0.2971
     26 H           6.5551   -1.7341   18.8884 H       1  UNL1        0.1233
     27 C           7.4086   -3.7656   20.8435 C.3     1  UNL1        0.1470
     28 O           8.7615   -3.7625   20.1956 O.3     1  UNL1       -0.3787
     29 H           9.4351   -3.9988   20.8523 H       1  UNL1        0.2108
     30 C           7.2748   -4.1037   22.2986 C.ar    1  UNL1        0.0055
     31 C           6.2829   -3.3693   23.1511 C.ar    1  UNL1       -0.0019
     32 C           6.1490   -3.7074   24.6064 C.ar    1  UNL1       -0.0002
     33 C           7.0070   -4.7799   25.2091 C.ar    1  UNL1       -0.0000
     34 C           7.9989   -5.5144   24.3566 C.ar    1  UNL1       -0.0002
     35 C           8.1328   -5.1763   22.9014 C.ar    1  UNL1       -0.0019
@<TRIPOS>BOND
     1    12    13    1
     2    13    14   ar
     3    14    15   ar
     4    15    11    1
     5    11     7    1
     6     7     8    2
     7     7     9   am
     8     9     1    1
     9     1     2   ar
    10     2     3   ar
    11     3     4   ar
    12     4    20    1
    13    21    20    1
    14    21    22    1
    15    22    23    1
    16    24    23    1
    17    24    27    1
    18    27    28    1
    19    27    30    1
    20    30    31   ar
    21    31    32   ar
    22    32    33   ar
    23    33    34   ar
    24    34    35   ar
    25    24    25    1
    26     4     5   ar
    27     5     6   ar
    28    15    16   ar
    29    16    17   ar
    30    17    13   ar
    31     6     1   ar
    32    25    21    1
    33    35    30   ar
    34    12    18    1
    35    12    19    1
    36     9    10    1
    37    28    29    1
    38    25    26    1
@<TRIPOS>MOLECULE
*****
 35 38 0 0 0
SMALL
GASTEIGER

@<TRIPOS>ATOM
      1 C         -12.6072   -5.5097   19.1269 C.ar    1  UNL1        0.0503
      2 C         -11.3553   -5.2204   18.3530 C.ar    1  UNL1        0.0143
      3 C         -10.9039   -3.8031   18.1594 C.ar    1  UNL1       -0.0029
      4 C         -11.7045   -2.6751   18.7397 C.ar    1  UNL1       -0.0208
      5 C         -12.9565   -2.9644   19.5136 C.ar    1  UNL1       -0.0029
      6 C         -13.4078   -4.3817   19.7072 C.ar    1  UNL1        0.0143
      7 C         -14.0251   -7.5450   18.3541 C.2     1  UNL1        0.2322
      8 O         -14.5403   -6.7457   17.1941 O.2     1  UNL1       -0.2744
      9 N         -13.0586   -6.9271   19.3205 N.am    1  UNL1       -0.2836
     10 H         -12.7205   -7.4517   20.0819 H       1  UNL1        0.1549
     11 C         -14.4765   -8.9624   18.5477 C.3     1  UNL1        0.1315
     12 N         -19.2779  -11.1109   18.0889 N.pl3   1  UNL1       -0.3375
     13 C         -18.1375  -10.2517   18.5484 C.ar    1  UNL1        0.1564
     14 N         -16.7358  -10.2880   18.0156 N.ar    1  UNL1       -0.2283
     15 C         -15.9305   -9.2642   18.7594 C.ar    1  UNL1        0.0766
     16 C         -16.8345   -8.5951   19.7519 C.ar    1  UNL1        0.0533
     17 S         -18.1985   -9.2054   19.6216 S.2     1  UNL1       -0.0518
     18 H         -19.1384  -11.7732   17.3739 H       1  UNL1        0.1442
     19 H         -20.1660  -11.0126   18.5022 H       1  UNL1        0.1442
     20 C         -11.2531   -1.2578   18.5461 C.3     1  UNL1        0.0420
     21 C         -12.2005   -0.2389   17.9853 C.3     1  UNL1        0.0585
     22 C         -12.4041    0.0696   16.5316 C.3     1  UNL1        0.0175
     23 C         -13.4400    1.1495   16.4277 C.3     1  UNL1        0.0199
     24 C         -13.8765    1.5084   17.8172 C.3     1  UNL1        0.0855
     25 N         -13.1104    0.6503   18.7798 N.3     1  UNL1       -0.2971
     26 H         -13.7570    0.0829   19.3279 H       1  UNL1        0.1233
     27 C         -14.8995    2.5436   18.1802 C.3     1  UNL1        0.1470
     28 O         -15.1383    3.7130   17.2716 O.3     1  UNL1       -0.3787
     29 H         -15.8259    4.2823   17.6512 H       1  UNL1        0.2108
     30 C         -15.6837    2.4095   19.4518 C.ar    1  UNL1        0.0055
     31 C         -15.7315    3.5483   20.4270 C.ar    1  UNL1       -0.0019
     32 C         -16.5157    3.4142   21.6987 C.ar    1  UNL1       -0.0002
     33 C         -17.2521    2.1415   21.9950 C.ar    1  UNL1       -0.0000
     34 C         -17.2043    1.0028   21.0198 C.ar    1  UNL1       -0.0002
     35 C         -16.4201    1.1368   19.7482 C.ar    1  UNL1       -0.0019
@<TRIPOS>BOND
     1    12    13    1
     2    13    14   ar
     3    14    15   ar
     4    15    11    1
     5    11     7    1
     6     7     8    2
     7     7     9   am
     8     9     1    1
     9     1     2   ar
    10     2     3   ar
    11     3     4   ar
    12     4    20    1
    13    21    20    1
    14    21    22    1
    15    22    23    1
    16    24    23    1
    17    24    27    1
    18    27    28    1
    19    27    30    1
    20    30    31   ar
    21    31    32   ar
    22    32    33   ar
    23    33    34   ar
    24    34    35   ar
    25    24    25    1
    26     4     5   ar
    27     5     6   ar
    28    15    16   ar
    29    16    17   ar
    30    17    13   ar
    31     6     1   ar
    32    25    21    1
    33    35    30   ar
    34    12    18    1
    35    12    19    1
    36     9    10    1
    37    28    29    1
    38    25    26    1
