@<TRIPOS>MOLECULE
*****
 43 47 0 0 0
SMALL
GASTEIGER

@<TRIPOS>ATOM
      1 C           2.2999    2.1726   23.8054 C.ar    1  UNL1        0.1534
      2 C           2.4624    2.8679   22.4862 C.ar    1  UNL1        0.0573
      3 C           2.7127    2.0676   21.2425 C.ar    1  UNL1        0.0856
      4 N           2.8752    2.7629   19.9233 N.ar    1  UNL1       -0.2429
      5 C           3.1255    1.9627   18.6795 C.ar    1  UNL1        0.1103
      6 C           3.2133    0.4671   18.7549 C.ar    1  UNL1        0.1009
      7 C           3.0508   -0.2281   20.0741 C.ar    1  UNL1        0.0610
      8 C           2.8005    0.5721   21.3178 C.ar    1  UNL1        0.0332
      9 C           2.6380   -0.1231   22.6370 C.ar    1  UNL1        0.0205
     10 C           2.3877    0.6771   23.8808 C.ar    1  UNL1        0.0849
     11 N           2.2253   -0.0182   25.1999 N.am    1  UNL1       -0.2815
     12 C           3.4018   -0.1693   26.1180 C.2     1  UNL1        0.2271
     13 O           4.7409    0.3750   25.7169 O.2     1  UNL1       -0.2747
     14 H           1.3464   -0.3754   25.4632 H       1  UNL1        0.1549
     15 C           3.2394   -0.8646   27.4372 C.3     1  UNL1        0.0970
     16 C           4.4477   -1.3389   28.1888 C.3     1  UNL1        0.0679
     17 C           5.4274   -2.3737   27.7203 C.3     1  UNL1        0.0247
     18 C           6.4737   -2.5361   28.7828 C.3     1  UNL1        0.0696
     19 S           6.1407   -1.6017   29.9080 S.3     1  UNL1       -0.0821
     20 S           4.8886   -0.8618   29.5408 S.3     1  UNL1       -0.0825
     21 C           3.4636   -0.3331   17.5112 C.1     1  UNL1        0.1032
     22 N           3.7139   -1.1334   16.2674 N.1     1  UNL1       -0.1907
     23 N           3.1386   -1.7236   20.1494 N.pl3   1  UNL1       -0.3119
     24 H           2.3707   -2.2762   19.8769 H       1  UNL1        0.1522
     25 C           4.3965   -2.3773   20.6400 C.ar    1  UNL1        0.0494
     26 C           4.3755   -3.1951   21.8973 C.ar    1  UNL1        0.0178
     27 C           5.6332   -3.8488   22.3879 C.ar    1  UNL1        0.0391
     28 C           6.9121   -3.6847   21.6212 C.ar    1  UNL1        0.1496
     29 C           6.9330   -2.8669   20.3639 C.ar    1  UNL1        0.0928
     30 CL          8.2118   -2.7028   19.5972 Cl      1  UNL1       -0.0790
     31 C           5.6752   -2.2132   19.8733 C.ar    1  UNL1        0.0291
     32 O           8.1698   -4.3384   22.1117 O.3     1  UNL1       -0.4698
     33 C           8.5353   -4.2658   23.5647 C.3     1  UNL1        0.2321
     34 C           8.0808   -5.3407   24.5070 C.ar    1  UNL1        0.0234
     35 C           8.4916   -6.7645   24.2748 C.ar    1  UNL1       -0.0005
     36 C           8.0371   -7.8395   25.2172 C.ar    1  UNL1        0.0021
     37 C           7.1719   -7.4905   26.3917 C.ar    1  UNL1        0.0296
     38 C           6.7611   -6.0667   26.6240 C.ar    1  UNL1        0.1399
     39 F           5.8959   -5.7178   27.7985 F       1  UNL1       -0.2042
     40 C           7.2156   -4.9918   25.6817 C.ar    1  UNL1        0.0289
     41 O           2.0496    2.9729   25.0491 O.3     1  UNL1       -0.4742
     42 C          -0.4471    2.4651   25.5575 C.3     1  UNL1        0.0512
     43 C           0.6645    3.4538   25.3655 C.3     1  UNL1        0.2056
@<TRIPOS>BOND
     1    42    43    1
     2    43    41    1
     3    41     1    1
     4     1     2   ar
     5     2     3   ar
     6     3     4   ar
     7     4     5   ar
     8     5     6   ar
     9     6    21    1
    10    21    22    3
    11     6     7   ar
    12     7    23    1
    13    23    25    1
    14    25    26   ar
    15    26    27   ar
    16    27    28   ar
    17    28    32    1
    18    32    33    1
    19    33    34    1
    20    34    35   ar
    21    35    36   ar
    22    36    37   ar
    23    37    38   ar
    24    38    39    1
    25    38    40   ar
    26    28    29   ar
    27    29    30    1
    28    29    31   ar
    29     7     8   ar
    30     8     9   ar
    31     9    10   ar
    32    10    11    1
    33    11    12   am
    34    12    13    2
    35    12    15    1
    36    15    16    1
    37    16    17    1
    38    17    18    1
    39    18    19    1
    40    19    20    1
    41    10     1   ar
    42    20    16    1
    43     8     3   ar
    44    31    25   ar
    45    40    34   ar
    46    23    24    1
    47    11    14    1
@<TRIPOS>MOLECULE
*****
 43 47 0 0 0
SMALL
GASTEIGER

@<TRIPOS>ATOM
      1 C           7.2974   -2.1938   32.0607 C.ar    1  UNL1        0.1534
      2 C           8.2429   -3.3561   32.1309 C.ar    1  UNL1        0.0573
      3 C           8.1974   -4.4246   31.0791 C.ar    1  UNL1        0.0856
      4 N           9.1431   -5.5869   31.1493 N.ar    1  UNL1       -0.2429
      5 C           9.0976   -6.6554   30.0975 C.ar    1  UNL1        0.1103
      6 C           8.1065   -6.5615   28.9754 C.ar    1  UNL1        0.1009
      7 C           7.1609   -5.3992   28.9052 C.ar    1  UNL1        0.0610
      8 C           7.2064   -4.3307   29.9571 C.ar    1  UNL1        0.0332
      9 C           6.2608   -3.1684   29.8869 C.ar    1  UNL1        0.0205
     10 C           6.3063   -2.1000   30.9387 C.ar    1  UNL1        0.0849
     11 N           5.3607   -0.9377   30.8685 N.am    1  UNL1       -0.2815
     12 C           4.1369   -0.9131   31.7354 C.2     1  UNL1        0.2271
     13 O           3.8586   -2.0508   32.6726 O.2     1  UNL1       -0.2747
     14 H           5.5433   -0.1910   30.2534 H       1  UNL1        0.1549
     15 C           3.1913    0.2492   31.6652 C.3     1  UNL1        0.0970
     16 C           2.2498    0.3811   30.5049 C.3     1  UNL1        0.0679
     17 C           2.1724   -0.5396   29.3232 C.3     1  UNL1        0.0247
     18 C           1.0953   -0.0328   28.4105 C.3     1  UNL1        0.0696
     19 S           0.5070    1.2011   29.0282 S.3     1  UNL1       -0.0821
     20 S           1.2205    1.4569   30.3225 S.3     1  UNL1       -0.0825
     21 C           8.0610   -7.6299   27.9236 C.1     1  UNL1        0.1032
     22 N           8.0155   -8.6984   26.8718 N.1     1  UNL1       -0.1907
     23 N           6.1699   -5.3053   27.7832 N.pl3   1  UNL1       -0.3119
     24 H           5.2531   -5.6424   27.9067 H       1  UNL1        0.1522
     25 C           6.5756   -4.6980   26.4730 C.ar    1  UNL1        0.0494
     26 C           7.1654   -5.5607   25.3970 C.ar    1  UNL1        0.0178
     27 C           7.5710   -4.9534   24.0869 C.ar    1  UNL1        0.0391
     28 C           7.3869   -3.4833   23.8526 C.ar    1  UNL1        0.1496
     29 C           6.7971   -2.6205   24.9286 C.ar    1  UNL1        0.0928
     30 CL          6.6130   -1.1504   24.6945 Cl      1  UNL1       -0.0790
     31 C           6.3914   -3.2279   26.2388 C.ar    1  UNL1        0.0291
     32 O           7.7926   -2.8759   22.5425 O.3     1  UNL1       -0.4698
     33 C           7.2436   -3.4252   21.2592 C.3     1  UNL1        0.2321
     34 C           5.8746   -3.0235   20.7963 C.ar    1  UNL1        0.0234
     35 C           5.3385   -1.6633   21.1319 C.ar    1  UNL1       -0.0005
     36 C           3.9694   -1.2616   20.6689 C.ar    1  UNL1        0.0021
     37 C           3.1364   -2.2200   19.8705 C.ar    1  UNL1        0.0296
     38 C           3.6725   -3.5802   19.5349 C.ar    1  UNL1        0.1399
     39 F           2.8395   -4.5386   18.7364 F       1  UNL1       -0.2042
     40 C           5.0415   -3.9819   19.9978 C.ar    1  UNL1        0.0289
     41 O           7.3429   -1.1254   33.1126 O.3     1  UNL1       -0.4742
     42 C           7.3016    1.4300   32.6455 C.3     1  UNL1        0.0512
     43 C           8.0715    0.1584   32.8465 C.3     1  UNL1        0.2056
@<TRIPOS>BOND
     1    42    43    1
     2    43    41    1
     3    41     1    1
     4     1     2   ar
     5     2     3   ar
     6     3     4   ar
     7     4     5   ar
     8     5     6   ar
     9     6    21    1
    10    21    22    3
    11     6     7   ar
    12     7    23    1
    13    23    25    1
    14    25    26   ar
    15    26    27   ar
    16    27    28   ar
    17    28    32    1
    18    32    33    1
    19    33    34    1
    20    34    35   ar
    21    35    36   ar
    22    36    37   ar
    23    37    38   ar
    24    38    39    1
    25    38    40   ar
    26    28    29   ar
    27    29    30    1
    28    29    31   ar
    29     7     8   ar
    30     8     9   ar
    31     9    10   ar
    32    10    11    1
    33    11    12   am
    34    12    13    2
    35    12    15    1
    36    15    16    1
    37    16    17    1
    38    17    18    1
    39    18    19    1
    40    19    20    1
    41    10     1   ar
    42    20    16    1
    43     8     3   ar
    44    31    25   ar
    45    40    34   ar
    46    23    24    1
    47    11    14    1
@<TRIPOS>MOLECULE
*****
 43 47 0 0 0
SMALL
GASTEIGER

@<TRIPOS>ATOM
      1 C           0.9823    3.3330   22.9959 C.ar    1  UNL1        0.1534
      2 C           1.6217    3.8308   21.7336 C.ar    1  UNL1        0.0573
      3 C           2.0739    2.8560   20.6870 C.ar    1  UNL1        0.0856
      4 N           2.7133    3.3538   19.4247 N.ar    1  UNL1       -0.2429
      5 C           3.1655    2.3790   18.3782 C.ar    1  UNL1        0.1103
      6 C           2.9782    0.9064   18.5939 C.ar    1  UNL1        0.1009
      7 C           2.3387    0.4087   19.8561 C.ar    1  UNL1        0.0610
      8 C           1.8866    1.3835   20.9027 C.ar    1  UNL1        0.0332
      9 C           1.2471    0.8857   22.1650 C.ar    1  UNL1        0.0205
     10 C           0.7950    1.8605   23.2115 C.ar    1  UNL1        0.0849
     11 N           0.1555    1.3627   24.4738 N.am    1  UNL1       -0.2815
     12 C           0.8975    1.4481   25.7747 C.2     1  UNL1        0.2271
     13 O           2.2790    2.0314   25.8132 O.2     1  UNL1       -0.2747
     14 H          -0.7512    0.9799   24.4485 H       1  UNL1        0.1549
     15 C           0.2581    0.9504   27.0369 C.3     1  UNL1        0.0970
     16 C           1.1048    0.6469   28.2374 C.3     1  UNL1        0.0679
     17 C           2.0809   -0.4849   28.3646 C.3     1  UNL1        0.0247
     18 C           2.7034   -0.4093   29.7272 C.3     1  UNL1        0.0696
     19 S           2.1119    0.7692   30.4422 S.3     1  UNL1       -0.0821
     20 S           1.1240    1.4220   29.5215 S.3     1  UNL1       -0.0825
     21 C           3.4304   -0.0684   17.5473 C.1     1  UNL1        0.1032
     22 N           3.8825   -1.0432   16.5007 N.1     1  UNL1       -0.1907
     23 N           2.1515   -1.0638   20.0718 N.pl3   1  UNL1       -0.3119
     24 H           1.2445   -1.4455   20.1016 H       1  UNL1        0.1522
     25 C           3.3461   -1.9549   20.2420 C.ar    1  UNL1        0.0494
     26 C           4.4093   -1.6015   21.2394 C.ar    1  UNL1        0.0178
     27 C           5.6039   -2.4924   21.4096 C.ar    1  UNL1        0.0391
     28 C           5.7354   -3.7369   20.5824 C.ar    1  UNL1        0.1496
     29 C           4.6723   -4.0903   19.5850 C.ar    1  UNL1        0.0928
     30 CL          4.8037   -5.3346   18.7578 Cl      1  UNL1       -0.0790
     31 C           3.4776   -3.1992   19.4148 C.ar    1  UNL1        0.0291
     32 O           6.9301   -4.6278   20.7526 O.3     1  UNL1       -0.4698
     33 C           7.9028   -4.3736   21.8658 C.3     1  UNL1        0.2321
     34 C           8.0729   -5.3864   22.9590 C.ar    1  UNL1        0.0234
     35 C           8.9277   -6.5980   22.7325 C.ar    1  UNL1       -0.0005
     36 C           9.0979   -7.6109   23.8259 C.ar    1  UNL1        0.0021
     37 C           8.4132   -7.4121   25.1456 C.ar    1  UNL1        0.0296
     38 C           7.5583   -6.2005   25.3720 C.ar    1  UNL1        0.1399
     39 F           6.8737   -6.0018   26.6917 F       1  UNL1       -0.2042
     40 C           7.3882   -5.1877   24.2788 C.ar    1  UNL1        0.0289
     41 O           0.5301    4.3078   24.0425 O.3     1  UNL1       -0.4742
     42 C          -2.0362    4.1642   23.6640 C.3     1  UNL1        0.0512
     43 C          -0.8036    4.9819   23.9133 C.3     1  UNL1        0.2056
@<TRIPOS>BOND
     1    42    43    1
     2    43    41    1
     3    41     1    1
     4     1     2   ar
     5     2     3   ar
     6     3     4   ar
     7     4     5   ar
     8     5     6   ar
     9     6    21    1
    10    21    22    3
    11     6     7   ar
    12     7    23    1
    13    23    25    1
    14    25    26   ar
    15    26    27   ar
    16    27    28   ar
    17    28    32    1
    18    32    33    1
    19    33    34    1
    20    34    35   ar
    21    35    36   ar
    22    36    37   ar
    23    37    38   ar
    24    38    39    1
    25    38    40   ar
    26    28    29   ar
    27    29    30    1
    28    29    31   ar
    29     7     8   ar
    30     8     9   ar
    31     9    10   ar
    32    10    11    1
    33    11    12   am
    34    12    13    2
    35    12    15    1
    36    15    16    1
    37    16    17    1
    38    17    18    1
    39    18    19    1
    40    19    20    1
    41    10     1   ar
    42    20    16    1
    43     8     3   ar
    44    31    25   ar
    45    40    34   ar
    46    23    24    1
    47    11    14    1
@<TRIPOS>MOLECULE
*****
 43 47 0 0 0
SMALL
GASTEIGER

@<TRIPOS>ATOM
      1 C           5.1884   -2.1558   18.7676 C.ar    1  UNL1        0.1534
      2 C           6.6289   -2.5419   18.9286 C.ar    1  UNL1        0.0573
      3 C           7.1232   -3.0625   20.2457 C.ar    1  UNL1        0.0856
      4 N           8.5637   -3.4486   20.4066 N.ar    1  UNL1       -0.2429
      5 C           9.0580   -3.9693   21.7237 C.ar    1  UNL1        0.1103
      6 C           8.1117   -4.1038   22.8798 C.ar    1  UNL1        0.1009
      7 C           6.6712   -3.7178   22.7188 C.ar    1  UNL1        0.0610
      8 C           6.1770   -3.1971   21.4017 C.ar    1  UNL1        0.0332
      9 C           4.7365   -2.8111   21.2407 C.ar    1  UNL1        0.0205
     10 C           4.2422   -2.2904   19.9237 C.ar    1  UNL1        0.0849
     11 N           2.8017   -1.9043   19.7627 N.am    1  UNL1       -0.2815
     12 C           2.2596   -0.7097   20.4900 C.2     1  UNL1        0.2271
     13 O           3.1581    0.0989   21.3783 O.2     1  UNL1       -0.2747
     14 H           2.2120   -2.4350   19.1797 H       1  UNL1        0.1549
     15 C           0.8192   -0.3236   20.3291 C.3     1  UNL1        0.0970
     16 C           0.4610    1.0350   19.8038 C.3     1  UNL1        0.0679
     17 C          -0.4373    2.0312   20.4750 C.3     1  UNL1        0.0247
     18 C          -0.5152    3.2478   19.6011 C.3     1  UNL1        0.0696
     19 S           0.3349    3.0035   18.3896 S.3     1  UNL1       -0.0821
     20 S           0.9382    1.6359   18.5149 S.3     1  UNL1       -0.0825
     21 C           8.6059   -4.6245   24.1968 C.1     1  UNL1        0.1032
     22 N           9.1002   -5.1451   25.5139 N.1     1  UNL1       -0.1907
     23 N           5.7250   -3.8523   23.8748 N.pl3   1  UNL1       -0.3119
     24 H           5.2988   -4.7195   24.0637 H       1  UNL1        0.1522
     25 C           5.4281   -2.6657   24.7431 C.ar    1  UNL1        0.0494
     26 C           4.2622   -1.7770   24.4255 C.ar    1  UNL1        0.0178
     27 C           3.9653   -0.5904   25.2937 C.ar    1  UNL1        0.0391
     28 C           4.8343   -0.2925   26.4796 C.ar    1  UNL1        0.1496
     29 C           6.0001   -1.1813   26.7972 C.ar    1  UNL1        0.0928
     30 CL          6.8690   -0.8835   27.9831 Cl      1  UNL1       -0.0790
     31 C           6.2970   -2.3679   25.9289 C.ar    1  UNL1        0.0291
     32 O           4.5373    0.8940   27.3478 O.3     1  UNL1       -0.4698
     33 C           3.5735    0.7653   28.4899 C.3     1  UNL1        0.2321
     34 C           2.0983    0.8776   28.2427 C.ar    1  UNL1        0.0234
     35 C           1.5623    1.9956   27.3984 C.ar    1  UNL1       -0.0005
     36 C           0.0870    2.1079   27.1511 C.ar    1  UNL1        0.0021
     37 C          -0.8522    1.1022   27.7481 C.ar    1  UNL1        0.0296
     38 C          -0.3162   -0.0158   28.5924 C.ar    1  UNL1        0.1399
     39 F          -1.2554   -1.0215   29.1895 F       1  UNL1       -0.2042
     40 C           1.1590   -0.1281   28.8397 C.ar    1  UNL1        0.0289
     41 O           4.6942   -1.6352   17.4505 O.3     1  UNL1       -0.4742
     42 C           4.6992    0.8925   18.0512 C.3     1  UNL1        0.0512
     43 C           4.9504   -0.2087   17.0641 C.3     1  UNL1        0.2056
@<TRIPOS>BOND
     1    42    43    1
     2    43    41    1
     3    41     1    1
     4     1     2   ar
     5     2     3   ar
     6     3     4   ar
     7     4     5   ar
     8     5     6   ar
     9     6    21    1
    10    21    22    3
    11     6     7   ar
    12     7    23    1
    13    23    25    1
    14    25    26   ar
    15    26    27   ar
    16    27    28   ar
    17    28    32    1
    18    32    33    1
    19    33    34    1
    20    34    35   ar
    21    35    36   ar
    22    36    37   ar
    23    37    38   ar
    24    38    39    1
    25    38    40   ar
    26    28    29   ar
    27    29    30    1
    28    29    31   ar
    29     7     8   ar
    30     8     9   ar
    31     9    10   ar
    32    10    11    1
    33    11    12   am
    34    12    13    2
    35    12    15    1
    36    15    16    1
    37    16    17    1
    38    17    18    1
    39    18    19    1
    40    19    20    1
    41    10     1   ar
    42    20    16    1
    43     8     3   ar
    44    31    25   ar
    45    40    34   ar
    46    23    24    1
    47    11    14    1
@<TRIPOS>MOLECULE
*****
 43 47 0 0 0
SMALL
GASTEIGER

@<TRIPOS>ATOM
      1 C           4.3524   -0.5251   33.6392 C.ar    1  UNL1        0.1534
      2 C           3.6960    0.8225   33.5857 C.ar    1  UNL1        0.0573
      3 C           2.8506    1.1986   32.4050 C.ar    1  UNL1        0.0856
      4 N           2.1942    2.5463   32.3514 N.ar    1  UNL1       -0.2429
      5 C           1.3489    2.9224   31.1708 C.ar    1  UNL1        0.1103
      6 C           1.1600    1.9507   30.0436 C.ar    1  UNL1        0.1009
      7 C           1.8165    0.6031   30.0972 C.ar    1  UNL1        0.0610
      8 C           2.6618    0.2270   31.2779 C.ar    1  UNL1        0.0332
      9 C           3.3183   -1.1206   31.3315 C.ar    1  UNL1        0.0205
     10 C           4.1636   -1.4967   32.5121 C.ar    1  UNL1        0.0849
     11 N           4.8201   -2.8444   32.5657 N.am    1  UNL1       -0.2815
     12 C           6.1270   -3.0704   31.8650 C.2     1  UNL1        0.2271
     13 O           6.7774   -1.9486   31.1108 O.2     1  UNL1       -0.2747
     14 H           4.3932   -3.5806   33.0607 H       1  UNL1        0.1549
     15 C           6.7834   -4.4180   31.9185 C.3     1  UNL1        0.0970
     16 C           7.1996   -5.1004   30.6492 C.3     1  UNL1        0.0679
     17 C           6.6025   -4.8772   29.2914 C.3     1  UNL1        0.0247
     18 C           7.3198   -5.7648   28.3179 C.3     1  UNL1        0.0696
     19 S           8.3603   -6.5366   29.0741 S.3     1  UNL1       -0.0821
     20 S           8.2860   -6.1260   30.5149 S.3     1  UNL1       -0.0825
     21 C           0.3147    2.3268   28.8629 C.1     1  UNL1        0.1032
     22 N          -0.5306    2.7029   27.6822 N.1     1  UNL1       -0.1907
     23 N           1.6277   -0.3684   28.9701 N.pl3   1  UNL1       -0.3119
     24 H           0.8851   -1.0143   28.9962 H       1  UNL1        0.1522
     25 C           2.5702   -0.3559   27.8032 C.ar    1  UNL1        0.0494
     26 C           3.6759   -1.3662   27.7214 C.ar    1  UNL1        0.0178
     27 C           4.6184   -1.3538   26.5546 C.ar    1  UNL1        0.0391
     28 C           4.4553   -0.3309   25.4695 C.ar    1  UNL1        0.1496
     29 C           3.3496    0.6795   25.5514 C.ar    1  UNL1        0.0928
     30 CL          3.1865    1.7023   24.4664 Cl      1  UNL1       -0.0790
     31 C           2.4071    0.6669   26.7183 C.ar    1  UNL1        0.0291
     32 O           5.3978   -0.3184   24.3028 O.3     1  UNL1       -0.4698
     33 C           5.5262   -1.5311   23.4293 C.3     1  UNL1        0.2321
     34 C           4.7557   -1.6155   22.1452 C.ar    1  UNL1        0.0234
     35 C           5.3984   -2.1987   20.9218 C.ar    1  UNL1       -0.0005
     36 C           4.6277   -2.2831   19.6376 C.ar    1  UNL1        0.0021
     37 C           3.2145   -1.7843   19.5769 C.ar    1  UNL1        0.0296
     38 C           2.5717   -1.2010   20.8003 C.ar    1  UNL1        0.1399
     39 F           1.1585   -0.7022   20.7395 F       1  UNL1       -0.2042
     40 C           3.3423   -1.1166   22.0844 C.ar    1  UNL1        0.0289
     41 O           5.1977   -0.9012   34.8199 O.3     1  UNL1       -0.4742
     42 C           5.8182    0.6167   36.8351 C.3     1  UNL1        0.0512
     43 C           4.8778   -0.3494   36.1775 C.3     1  UNL1        0.2056
@<TRIPOS>BOND
     1    42    43    1
     2    43    41    1
     3    41     1    1
     4     1     2   ar
     5     2     3   ar
     6     3     4   ar
     7     4     5   ar
     8     5     6   ar
     9     6    21    1
    10    21    22    3
    11     6     7   ar
    12     7    23    1
    13    23    25    1
    14    25    26   ar
    15    26    27   ar
    16    27    28   ar
    17    28    32    1
    18    32    33    1
    19    33    34    1
    20    34    35   ar
    21    35    36   ar
    22    36    37   ar
    23    37    38   ar
    24    38    39    1
    25    38    40   ar
    26    28    29   ar
    27    29    30    1
    28    29    31   ar
    29     7     8   ar
    30     8     9   ar
    31     9    10   ar
    32    10    11    1
    33    11    12   am
    34    12    13    2
    35    12    15    1
    36    15    16    1
    37    16    17    1
    38    17    18    1
    39    18    19    1
    40    19    20    1
    41    10     1   ar
    42    20    16    1
    43     8     3   ar
    44    31    25   ar
    45    40    34   ar
    46    23    24    1
    47    11    14    1
@<TRIPOS>MOLECULE
*****
 43 47 0 0 0
SMALL
GASTEIGER

@<TRIPOS>ATOM
      1 C           5.9769   -3.1148   24.1814 C.ar    1  UNL1        0.1534
      2 C           5.8682   -3.9855   22.9649 C.ar    1  UNL1        0.0573
      3 C           5.4571   -3.3902   21.6508 C.ar    1  UNL1        0.0856
      4 N           5.3484   -4.2610   20.4342 N.ar    1  UNL1       -0.2429
      5 C           4.9373   -3.6657   19.1202 C.ar    1  UNL1        0.1103
      6 C           4.6350   -2.1997   19.0228 C.ar    1  UNL1        0.1009
      7 C           4.7437   -1.3290   20.2393 C.ar    1  UNL1        0.0610
      8 C           5.1548   -1.9243   21.5533 C.ar    1  UNL1        0.0332
      9 C           5.2635   -1.0536   22.7699 C.ar    1  UNL1        0.0205
     10 C           5.6746   -1.6488   24.0839 C.ar    1  UNL1        0.0849
     11 N           5.7833   -0.7781   25.3005 N.am    1  UNL1       -0.2815
     12 C           4.5458   -0.3687   26.0428 C.2     1  UNL1        0.2271
     13 O           3.1995   -0.8301   25.5685 O.2     1  UNL1       -0.2747
     14 H           6.6668   -0.4753   25.6118 H       1  UNL1        0.1549
     15 C           4.6544    0.5020   27.2593 C.3     1  UNL1        0.0970
     16 C           3.5869    0.4564   28.3121 C.3     1  UNL1        0.0679
     17 C           3.3634   -0.6558   29.2935 C.3     1  UNL1        0.0247
     18 C           2.1938   -0.2846   30.1563 C.3     1  UNL1        0.0696
     19 S           1.6945    1.0570   29.7081 S.3     1  UNL1       -0.0821
     20 S           2.5555    1.5149   28.5684 S.3     1  UNL1       -0.0825
     21 C           4.2239   -1.6044   17.7087 C.1     1  UNL1        0.1032
     22 N           3.8128   -1.0092   16.3947 N.1     1  UNL1       -0.1907
     23 N           4.4413    0.1369   20.1418 N.pl3   1  UNL1       -0.3119
     24 H           5.1705    0.7810   19.9910 H       1  UNL1        0.1522
     25 C           3.0280    0.6217   20.2741 C.ar    1  UNL1        0.0494
     26 C           2.2565    0.3501   21.5316 C.ar    1  UNL1        0.0178
     27 C           0.8432    0.8348   21.6639 C.ar    1  UNL1        0.0391
     28 C           0.2012    1.5911   20.5388 C.ar    1  UNL1        0.1496
     29 C           0.9726    1.8627   19.2813 C.ar    1  UNL1        0.0928
     30 CL          0.3307    2.6190   18.1562 Cl      1  UNL1       -0.0790
     31 C           2.3860    1.3780   19.1490 C.ar    1  UNL1        0.0291
     32 O          -1.2121    2.0758   20.6711 O.3     1  UNL1       -0.4698
     33 C          -1.5004    3.3595   21.3914 C.3     1  UNL1        0.2321
     34 C          -2.6047    3.4193   22.4048 C.ar    1  UNL1        0.0234
     35 C          -4.0355    3.3501   21.9598 C.ar    1  UNL1       -0.0005
     36 C          -5.1398    3.4098   22.9732 C.ar    1  UNL1        0.0021
     37 C          -4.8133    3.5388   24.4315 C.ar    1  UNL1        0.0296
     38 C          -3.3825    3.6080   24.8765 C.ar    1  UNL1        0.1399
     39 F          -3.0560    3.7369   26.3348 F       1  UNL1       -0.2042
     40 C          -2.2782    3.5482   23.8632 C.ar    1  UNL1        0.0289
     41 O           6.3880   -3.7100   25.4955 O.3     1  UNL1       -0.4742
     42 C           7.0999   -6.1078   26.1981 C.3     1  UNL1        0.0512
     43 C           7.4176   -4.8000   25.5357 C.3     1  UNL1        0.2056
@<TRIPOS>BOND
     1    42    43    1
     2    43    41    1
     3    41     1    1
     4     1     2   ar
     5     2     3   ar
     6     3     4   ar
     7     4     5   ar
     8     5     6   ar
     9     6    21    1
    10    21    22    3
    11     6     7   ar
    12     7    23    1
    13    23    25    1
    14    25    26   ar
    15    26    27   ar
    16    27    28   ar
    17    28    32    1
    18    32    33    1
    19    33    34    1
    20    34    35   ar
    21    35    36   ar
    22    36    37   ar
    23    37    38   ar
    24    38    39    1
    25    38    40   ar
    26    28    29   ar
    27    29    30    1
    28    29    31   ar
    29     7     8   ar
    30     8     9   ar
    31     9    10   ar
    32    10    11    1
    33    11    12   am
    34    12    13    2
    35    12    15    1
    36    15    16    1
    37    16    17    1
    38    17    18    1
    39    18    19    1
    40    19    20    1
    41    10     1   ar
    42    20    16    1
    43     8     3   ar
    44    31    25   ar
    45    40    34   ar
    46    23    24    1
    47    11    14    1
@<TRIPOS>MOLECULE
*****
 43 47 0 0 0
SMALL
GASTEIGER

@<TRIPOS>ATOM
      1 C           3.0347    2.2319   38.2669 C.ar    1  UNL1        0.1534
      2 C           4.2407    1.3427   38.3372 C.ar    1  UNL1        0.0573
      3 C           5.0736    1.1102   37.1116 C.ar    1  UNL1        0.0856
      4 N           6.2796    0.2210   37.1819 N.ar    1  UNL1       -0.2429
      5 C           7.1125   -0.0115   35.9563 C.ar    1  UNL1        0.1103
      6 C           6.7394    0.6452   34.6602 C.ar    1  UNL1        0.1009
      7 C           5.5334    1.5344   34.5899 C.ar    1  UNL1        0.0610
      8 C           4.7005    1.7669   35.8156 C.ar    1  UNL1        0.0332
      9 C           3.4946    2.6560   35.7453 C.ar    1  UNL1        0.0205
     10 C           2.6617    2.8885   36.9709 C.ar    1  UNL1        0.0849
     11 N           1.4556    3.7778   36.9006 N.am    1  UNL1       -0.2815
     12 C           1.6247    5.2593   36.7383 C.2     1  UNL1        0.2271
     13 O           2.9998    5.8517   36.6464 O.2     1  UNL1       -0.2747
     14 H           0.5532    3.3890   36.9609 H       1  UNL1        0.1549
     15 C           0.4188    6.1485   36.6679 C.3     1  UNL1        0.0970
     16 C          -0.3093    6.3235   35.3682 C.3     1  UNL1        0.0679
     17 C          -1.6546    6.9625   35.1903 C.3     1  UNL1        0.0247
     18 C          -1.9966    6.9241   33.7303 C.3     1  UNL1        0.0696
     19 S          -0.8626    6.2614   33.0058 S.3     1  UNL1       -0.0821
     20 S           0.1802    5.8902   34.0181 S.3     1  UNL1       -0.0825
     21 C           7.5723    0.4127   33.4346 C.1     1  UNL1        0.1032
     22 N           8.4052    0.1802   32.2089 N.1     1  UNL1       -0.1907
     23 N           5.1603    2.1910   33.2940 N.pl3   1  UNL1       -0.3119
     24 H           5.6068    3.0238   33.0177 H       1  UNL1        0.1522
     25 C           4.1069    1.5788   32.4189 C.ar    1  UNL1        0.0494
     26 C           4.3924    0.3043   31.6813 C.ar    1  UNL1        0.0178
     27 C           3.3391   -0.3079   30.8063 C.ar    1  UNL1        0.0391
     28 C           2.0002    0.3544   30.6689 C.ar    1  UNL1        0.1496
     29 C           1.7147    1.6289   31.4065 C.ar    1  UNL1        0.0928
     30 CL          0.3760    2.2913   31.2691 Cl      1  UNL1       -0.0790
     31 C           2.7682    2.2411   32.2815 C.ar    1  UNL1        0.0291
     32 O           0.9469   -0.2578   29.7939 O.3     1  UNL1       -0.4698
     33 C           0.9340    0.0306   28.3219 C.3     1  UNL1        0.2321
     34 C           0.4913    1.3748   27.8249 C.ar    1  UNL1        0.0234
     35 C           1.4920    2.4796   27.6580 C.ar    1  UNL1       -0.0005
     36 C           1.0492    3.8239   27.1609 C.ar    1  UNL1        0.0021
     37 C          -0.3943    4.0632   26.8307 C.ar    1  UNL1        0.0296
     38 C          -1.3950    2.9584   26.9976 C.ar    1  UNL1        0.1399
     39 F          -2.8385    3.1977   26.6674 F       1  UNL1       -0.2042
     40 C          -0.9523    1.6142   27.4947 C.ar    1  UNL1        0.0289
     41 O           2.2018    2.4644   39.4926 O.3     1  UNL1       -0.4742
     42 C           1.0398    0.1414   39.5516 C.3     1  UNL1        0.0512
     43 C           0.9811    1.6285   39.7395 C.3     1  UNL1        0.2056
@<TRIPOS>BOND
     1    42    43    1
     2    43    41    1
     3    41     1    1
     4     1     2   ar
     5     2     3   ar
     6     3     4   ar
     7     4     5   ar
     8     5     6   ar
     9     6    21    1
    10    21    22    3
    11     6     7   ar
    12     7    23    1
    13    23    25    1
    14    25    26   ar
    15    26    27   ar
    16    27    28   ar
    17    28    32    1
    18    32    33    1
    19    33    34    1
    20    34    35   ar
    21    35    36   ar
    22    36    37   ar
    23    37    38   ar
    24    38    39    1
    25    38    40   ar
    26    28    29   ar
    27    29    30    1
    28    29    31   ar
    29     7     8   ar
    30     8     9   ar
    31     9    10   ar
    32    10    11    1
    33    11    12   am
    34    12    13    2
    35    12    15    1
    36    15    16    1
    37    16    17    1
    38    17    18    1
    39    18    19    1
    40    19    20    1
    41    10     1   ar
    42    20    16    1
    43     8     3   ar
    44    31    25   ar
    45    40    34   ar
    46    23    24    1
    47    11    14    1
@<TRIPOS>MOLECULE
*****
 43 47 0 0 0
SMALL
GASTEIGER

@<TRIPOS>ATOM
      1 C           7.3712   -2.9396   21.5437 C.ar    1  UNL1        0.1534
      2 C           8.1730   -4.2062   21.4925 C.ar    1  UNL1        0.0573
      3 C           8.1332   -5.1661   22.6445 C.ar    1  UNL1        0.0856
      4 N           8.9351   -6.4328   22.5933 N.ar    1  UNL1       -0.2429
      5 C           8.8953   -7.3927   23.7453 C.ar    1  UNL1        0.1103
      6 C           8.0537   -7.0859   24.9484 C.ar    1  UNL1        0.1009
      7 C           7.2518   -5.8192   24.9996 C.ar    1  UNL1        0.0610
      8 C           7.2916   -4.8593   23.8476 C.ar    1  UNL1        0.0332
      9 C           6.4898   -3.5927   23.8988 C.ar    1  UNL1        0.0205
     10 C           6.5296   -2.6328   22.7468 C.ar    1  UNL1        0.0849
     11 N           5.7277   -1.3661   22.7980 N.am    1  UNL1       -0.2815
     12 C           4.3776   -1.3063   22.1471 C.2     1  UNL1        0.2271
     13 O           3.8295   -2.5132   21.4449 O.2     1  UNL1       -0.2747
     14 H           6.0875   -0.5740   23.2589 H       1  UNL1        0.1549
     15 C           3.5758   -0.0397   22.1982 C.3     1  UNL1        0.0970
     16 C           2.7134    0.3495   21.0343 C.3     1  UNL1        0.0679
     17 C           1.4927   -0.3808   20.5583 C.3     1  UNL1        0.0247
     18 C           0.9451    0.3558   19.3718 C.3     1  UNL1        0.0696
     19 S           1.8274    1.5413   19.1146 S.3     1  UNL1       -0.0821
     20 S           2.9202    1.5374   20.1421 S.3     1  UNL1       -0.0825
     21 C           8.0139   -8.0458   26.1004 C.1     1  UNL1        0.1032
     22 N           7.9741   -9.0057   27.2524 N.1     1  UNL1       -0.1907
     23 N           6.4102   -5.5125   26.2027 N.pl3   1  UNL1       -0.3119
     24 H           5.4442   -5.7020   26.1890 H       1  UNL1        0.1522
     25 C           7.0404   -4.9171   27.4268 C.ar    1  UNL1        0.0494
     26 C           8.0519   -3.8178   27.2905 C.ar    1  UNL1        0.0178
     27 C           8.6821   -3.2223   28.5145 C.ar    1  UNL1        0.0391
     28 C           8.3008   -3.7262   29.8750 C.ar    1  UNL1        0.1496
     29 C           7.2894   -4.8255   30.0114 C.ar    1  UNL1        0.0928
     30 CL          6.9082   -5.3293   31.3718 Cl      1  UNL1       -0.0790
     31 C           6.6592   -5.4209   28.7872 C.ar    1  UNL1        0.0291
     32 O           8.9310   -3.1308   31.0990 O.3     1  UNL1       -0.4698
     33 C           8.3889   -1.8576   31.6778 C.3     1  UNL1        0.2321
     34 C           6.9067   -1.6424   31.7600 C.ar    1  UNL1        0.0234
     35 C           6.1827   -0.9707   30.6310 C.ar    1  UNL1       -0.0005
     36 C           4.7004   -0.7556   30.7131 C.ar    1  UNL1        0.0021
     37 C           3.9423   -1.2120   31.9243 C.ar    1  UNL1        0.0296
     38 C           4.6664   -1.8836   33.0533 C.ar    1  UNL1        0.1399
     39 F           3.9082   -2.3401   34.2644 F       1  UNL1       -0.2042
     40 C           6.1485   -2.0988   32.9711 C.ar    1  UNL1        0.0289
     41 O           7.4110   -1.9797   20.3917 O.3     1  UNL1       -0.4742
     42 C           5.7603   -2.9859   18.6561 C.3     1  UNL1        0.0512
     43 C           7.1235   -2.4641   19.0016 C.3     1  UNL1        0.2056
@<TRIPOS>BOND
     1    42    43    1
     2    43    41    1
     3    41     1    1
     4     1     2   ar
     5     2     3   ar
     6     3     4   ar
     7     4     5   ar
     8     5     6   ar
     9     6    21    1
    10    21    22    3
    11     6     7   ar
    12     7    23    1
    13    23    25    1
    14    25    26   ar
    15    26    27   ar
    16    27    28   ar
    17    28    32    1
    18    32    33    1
    19    33    34    1
    20    34    35   ar
    21    35    36   ar
    22    36    37   ar
    23    37    38   ar
    24    38    39    1
    25    38    40   ar
    26    28    29   ar
    27    29    30    1
    28    29    31   ar
    29     7     8   ar
    30     8     9   ar
    31     9    10   ar
    32    10    11    1
    33    11    12   am
    34    12    13    2
    35    12    15    1
    36    15    16    1
    37    16    17    1
    38    17    18    1
    39    18    19    1
    40    19    20    1
    41    10     1   ar
    42    20    16    1
    43     8     3   ar
    44    31    25   ar
    45    40    34   ar
    46    23    24    1
    47    11    14    1
@<TRIPOS>MOLECULE
*****
 43 47 0 0 0
SMALL
GASTEIGER

@<TRIPOS>ATOM
      1 C          -0.8421    2.4686   25.4734 C.ar    1  UNL1        0.1534
      2 C          -0.7228    1.7230   26.7694 C.ar    1  UNL1        0.0573
      3 C           0.5446    0.9922   27.1004 C.ar    1  UNL1        0.0856
      4 N           0.6638    0.2465   28.3965 N.ar    1  UNL1       -0.2429
      5 C           1.9312   -0.4843   28.7275 C.ar    1  UNL1        0.1103
      6 C           3.0794   -0.4695   27.7623 C.ar    1  UNL1        0.1009
      7 C           2.9602    0.2761   26.4663 C.ar    1  UNL1        0.0610
      8 C           1.6928    1.0069   26.1353 C.ar    1  UNL1        0.0332
      9 C           1.5735    1.7526   24.8393 C.ar    1  UNL1        0.0205
     10 C           0.3061    2.4834   24.5083 C.ar    1  UNL1        0.0849
     11 N           0.1869    3.2290   23.2122 N.am    1  UNL1       -0.2815
     12 C           0.0663    2.4747   21.9213 C.2     1  UNL1        0.2271
     13 O           0.0649    0.9746   21.9266 O.2     1  UNL1       -0.2747
     14 H           0.1878    4.2135   23.2087 H       1  UNL1        0.1549
     15 C          -0.0529    3.2202   20.6252 C.3     1  UNL1        0.0970
     16 C          -1.4066    3.5026   20.0442 C.3     1  UNL1        0.0679
     17 C          -2.7249    3.2119   20.6981 C.3     1  UNL1        0.0247
     18 C          -3.8128    3.6549   19.7653 C.3     1  UNL1        0.0696
     19 S          -3.1669    4.2194   18.5347 S.3     1  UNL1       -0.0821
     20 S          -1.6798    4.1253   18.7071 S.3     1  UNL1       -0.0825
     21 C           4.3468   -1.2004   28.0933 C.1     1  UNL1        0.1032
     22 N           5.6143   -1.9312   28.4242 N.1     1  UNL1       -0.1907
     23 N           4.1084    0.2909   25.5012 N.pl3   1  UNL1       -0.3119
     24 H           4.7690    1.0201   25.5333 H       1  UNL1        0.1522
     25 C           4.2499   -0.8054   24.4871 C.ar    1  UNL1        0.0494
     26 C           3.4111   -0.7897   23.2437 C.ar    1  UNL1        0.0178
     27 C           3.5526   -1.8859   22.2297 C.ar    1  UNL1        0.0391
     28 C           4.5331   -2.9978   22.4590 C.ar    1  UNL1        0.1496
     29 C           5.3720   -3.0134   23.7024 C.ar    1  UNL1        0.0928
     30 CL          6.3524   -4.1252   23.9317 Cl      1  UNL1       -0.0790
     31 C           5.2304   -1.9171   24.7165 C.ar    1  UNL1        0.0291
     32 O           4.6746   -4.0939   21.4449 O.3     1  UNL1       -0.4698
     33 C           5.6476   -3.9472   20.3127 C.3     1  UNL1        0.2321
     34 C           5.5069   -2.8093   19.3456 C.ar    1  UNL1        0.0234
     35 C           4.1955   -2.5661   18.6594 C.ar    1  UNL1       -0.0005
     36 C           4.0548   -1.4281   17.6922 C.ar    1  UNL1        0.0021
     37 C           5.2256   -0.5335   17.4114 C.ar    1  UNL1        0.0296
     38 C           6.5370   -0.7767   18.0976 C.ar    1  UNL1        0.1399
     39 F           7.7078    0.1179   17.8168 F       1  UNL1       -0.2042
     40 C           6.6777   -1.9146   19.0647 C.ar    1  UNL1        0.0289
     41 O          -2.1095    3.1994   25.1424 O.3     1  UNL1       -0.4742
     42 C          -4.4451    3.9734   25.9766 C.3     1  UNL1        0.0512
     43 C          -2.9939    3.7038   26.2439 C.3     1  UNL1        0.2056
@<TRIPOS>BOND
     1    42    43    1
     2    43    41    1
     3    41     1    1
     4     1     2   ar
     5     2     3   ar
     6     3     4   ar
     7     4     5   ar
     8     5     6   ar
     9     6    21    1
    10    21    22    3
    11     6     7   ar
    12     7    23    1
    13    23    25    1
    14    25    26   ar
    15    26    27   ar
    16    27    28   ar
    17    28    32    1
    18    32    33    1
    19    33    34    1
    20    34    35   ar
    21    35    36   ar
    22    36    37   ar
    23    37    38   ar
    24    38    39    1
    25    38    40   ar
    26    28    29   ar
    27    29    30    1
    28    29    31   ar
    29     7     8   ar
    30     8     9   ar
    31     9    10   ar
    32    10    11    1
    33    11    12   am
    34    12    13    2
    35    12    15    1
    36    15    16    1
    37    16    17    1
    38    17    18    1
    39    18    19    1
    40    19    20    1
    41    10     1   ar
    42    20    16    1
    43     8     3   ar
    44    31    25   ar
    45    40    34   ar
    46    23    24    1
    47    11    14    1
