@<TRIPOS>MOLECULE
*****
 33 36 0 0 0
SMALL
GASTEIGER

@<TRIPOS>ATOM
      1 C          -6.9659  -20.2198   20.4757 C.3     1  UNL1        0.0071
      2 C          -7.7615  -19.8754   19.2517 C.3     1  UNL1        0.0177
      3 C          -9.1720  -19.3836   19.3878 C.3     1  UNL1        0.0721
      4 N          -9.7869  -19.2360   20.7480 N.3     1  UNL1       -0.2724
      5 C          -8.9913  -19.5804   21.9721 C.3     1  UNL1        0.0721
      6 C          -7.5808  -20.0723   21.8360 C.3     1  UNL1        0.0177
      7 C          -5.5554  -20.7117   20.3396 C.3     1  UNL1        0.0265
      8 C          -3.0696  -17.9040   21.6384 C.ar    1  UNL1        0.1445
      9 C          -4.2107  -18.8765   21.5941 C.ar    1  UNL1        0.0331
     10 C          -4.4143  -19.7392   20.3840 C.ar    1  UNL1       -0.0191
     11 C          -3.4769  -19.6292   19.2182 C.ar    1  UNL1       -0.0036
     12 C          -2.3358  -18.6565   19.2625 C.ar    1  UNL1        0.0094
     13 C          -2.1322  -17.7939   20.4726 C.ar    1  UNL1        0.0684
     14 BR         -0.9911  -16.8213   20.5169 Br      1  UNL1       -0.0458
     15 O          -2.8660  -17.0413   22.8486 O.3     1  UNL1       -0.4723
     16 C          -3.8842  -17.0419   23.9500 C.3     1  UNL1        0.2370
     17 O          -5.0749  -14.8181   23.3277 O.3     1  UNL1       -0.3784
     18 C          -5.1423  -16.2373   23.8087 C.3     1  UNL1        0.1847
     19 H          -5.9698  -14.4454   23.2939 H       1  UNL1        0.2106
     20 C         -11.1974  -18.7441   20.8841 C.3     1  UNL1        0.0768
     21 C         -11.5231  -17.6645   21.8732 C.3     1  UNL1        0.0437
     22 C         -10.8004  -17.6076   23.1865 C.ar    1  UNL1       -0.0208
     23 C         -11.0143  -18.6854   24.2075 C.ar    1  UNL1       -0.0011
     24 C         -10.2916  -18.6285   25.5207 C.ar    1  UNL1        0.0363
     25 C          -9.3552  -17.4938   25.8129 C.ar    1  UNL1        0.1367
     26 C          -9.1414  -16.4159   24.7919 C.ar    1  UNL1        0.0380
     27 C          -9.8640  -16.4728   23.4787 C.ar    1  UNL1       -0.0032
     28 C          -8.2049  -15.2812   25.0841 C.3     1  UNL1        0.1393
     29 O          -7.9911  -14.2033   24.0631 O.3     1  UNL1       -0.3798
     30 C          -7.4823  -15.2242   26.3973 C.3     1  UNL1        0.0812
     31 C          -7.6961  -16.3021   27.4184 C.3     1  UNL1        0.2083
     32 O          -8.6326  -17.4369   27.1262 O.3     1  UNL1       -0.4756
     33 H          -7.3610  -13.5515   24.4082 H       1  UNL1        0.2108
@<TRIPOS>BOND
     1    17    18    1
     2    18    16    1
     3    16    15    1
     4    15     8    1
     5     8     9   ar
     6     9    10   ar
     7    10     7    1
     8     7     1    1
     9     1     2    1
    10     2     3    1
    11     3     4    1
    12     4    20    1
    13    20    21    1
    14    21    22    1
    15    22    23   ar
    16    23    24   ar
    17    24    25   ar
    18    25    26   ar
    19    26    27   ar
    20    26    28    1
    21    28    29    1
    22    28    30    1
    23    30    31    1
    24    31    32    1
    25     4     5    1
    26     5     6    1
    27    10    11   ar
    28    11    12   ar
    29    12    13   ar
    30    13    14    1
    31    13     8   ar
    32     6     1    1
    33    27    22   ar
    34    32    25    1
    35    17    19    1
    36    29    33    1
@<TRIPOS>MOLECULE
*****
 33 36 0 0 0
SMALL
GASTEIGER

@<TRIPOS>ATOM
      1 C          -6.5211  -19.7908   20.3171 C.3     1  UNL1        0.0071
      2 C          -6.1764  -20.2461   21.7041 C.3     1  UNL1        0.0177
      3 C          -4.8231  -19.9463   22.2772 C.3     1  UNL1        0.0721
      4 N          -3.8144  -19.1912   21.4633 N.3     1  UNL1       -0.2724
      5 C          -4.1591  -18.7359   20.0763 C.3     1  UNL1        0.0721
      6 C          -5.5124  -19.0357   19.5032 C.3     1  UNL1        0.0177
      7 C          -7.8745  -20.0906   19.7439 C.3     1  UNL1        0.0265
      8 C         -10.2314  -17.8680   22.0363 C.ar    1  UNL1        0.1445
      9 C          -9.0267  -18.6144   21.5448 C.ar    1  UNL1        0.0331
     10 C          -9.0792  -19.3442   20.2354 C.ar    1  UNL1       -0.0191
     11 C         -10.3365  -19.3278   19.4175 C.ar    1  UNL1       -0.0036
     12 C         -11.5413  -18.5815   19.9090 C.ar    1  UNL1        0.0094
     13 C         -11.4888  -17.8516   21.2184 C.ar    1  UNL1        0.0684
     14 BR        -12.6935  -17.1053   21.7099 Br      1  UNL1       -0.0458
     15 O         -10.1789  -17.1382   23.3457 O.3     1  UNL1       -0.4723
     16 C         -10.1324  -17.9081   24.6321 C.3     1  UNL1        0.2370
     17 O         -10.1382  -20.3589   25.4942 O.3     1  UNL1       -0.3784
     18 C         -10.7957  -19.2500   24.7275 C.3     1  UNL1        0.1847
     19 H         -10.6949  -21.1524   25.4567 H       1  UNL1        0.2106
     20 C          -2.4610  -18.8914   22.0365 C.3     1  UNL1        0.0768
     21 C          -2.2620  -17.6772   22.8943 C.3     1  UNL1        0.0437
     22 C          -3.3249  -17.2653   23.8694 C.ar    1  UNL1       -0.0208
     23 C          -3.1962  -17.6315   25.3182 C.ar    1  UNL1       -0.0011
     24 C          -4.2591  -17.2196   26.2932 C.ar    1  UNL1        0.0363
     25 C          -5.4507  -16.4416   25.8193 C.ar    1  UNL1        0.1367
     26 C          -5.5795  -16.0754   24.3704 C.ar    1  UNL1        0.0380
     27 C          -4.5166  -16.4872   23.3954 C.ar    1  UNL1       -0.0032
     28 C          -6.7711  -15.2973   23.8964 C.3     1  UNL1        0.1393
     29 O          -6.8998  -14.9311   22.4476 O.3     1  UNL1       -0.3798
     30 C          -7.8340  -14.8854   24.8714 C.3     1  UNL1        0.0812
     31 C          -7.7053  -15.2516   26.3203 C.3     1  UNL1        0.2083
     32 O          -6.5137  -16.0297   26.7943 O.3     1  UNL1       -0.4756
     33 H          -7.7212  -14.4333   22.3116 H       1  UNL1        0.2108
@<TRIPOS>BOND
     1    17    18    1
     2    18    16    1
     3    16    15    1
     4    15     8    1
     5     8     9   ar
     6     9    10   ar
     7    10     7    1
     8     7     1    1
     9     1     2    1
    10     2     3    1
    11     3     4    1
    12     4    20    1
    13    20    21    1
    14    21    22    1
    15    22    23   ar
    16    23    24   ar
    17    24    25   ar
    18    25    26   ar
    19    26    27   ar
    20    26    28    1
    21    28    29    1
    22    28    30    1
    23    30    31    1
    24    31    32    1
    25     4     5    1
    26     5     6    1
    27    10    11   ar
    28    11    12   ar
    29    12    13   ar
    30    13    14    1
    31    13     8   ar
    32     6     1    1
    33    27    22   ar
    34    32    25    1
    35    17    19    1
    36    29    33    1
@<TRIPOS>MOLECULE
*****
 33 36 0 0 0
SMALL
GASTEIGER

@<TRIPOS>ATOM
      1 C           6.9796   -3.9639   23.3661 C.3     1  UNL1        0.0071
      2 C           7.8138   -4.1606   22.1352 C.3     1  UNL1        0.0177
      3 C           7.1673   -4.1511   20.7817 C.3     1  UNL1        0.0721
      4 N           5.6866   -3.9449   20.6592 N.3     1  UNL1       -0.2724
      5 C           4.8524   -3.7482   21.8902 C.3     1  UNL1        0.0721
      6 C           5.4989   -3.7577   23.2437 C.3     1  UNL1        0.0177
      7 C           7.6261   -3.9735   24.7197 C.3     1  UNL1        0.0265
      8 C           7.8894   -6.6074   27.6765 C.ar    1  UNL1        0.1445
      9 C           7.6988   -5.3116   26.9455 C.ar    1  UNL1        0.0331
     10 C           7.8167   -5.2693   25.4507 C.ar    1  UNL1       -0.0191
     11 C           8.1252   -6.5229   24.6870 C.ar    1  UNL1       -0.0036
     12 C           8.3158   -7.8188   25.4180 C.ar    1  UNL1        0.0094
     13 C           8.1979   -7.8611   26.9128 C.ar    1  UNL1        0.0684
     14 BR          8.3885   -9.1569   27.6438 Br      1  UNL1       -0.0458
     15 O           7.7716   -6.6496   29.1713 O.3     1  UNL1       -0.4723
     16 C           6.9138   -5.6470   29.8846 C.3     1  UNL1        0.2370
     17 O           6.4637   -5.5975   32.4429 O.3     1  UNL1       -0.3784
     18 C           7.2890   -5.1832   31.2609 C.3     1  UNL1        0.1847
     19 H           6.8405   -5.2145   33.2505 H       1  UNL1        0.2106
     20 C           5.0401   -3.9354   19.3057 C.3     1  UNL1        0.0768
     21 C           3.6351   -3.4341   19.1491 C.3     1  UNL1        0.0437
     22 C           3.3807   -1.9729   18.9246 C.ar    1  UNL1       -0.0208
     23 C           4.3608   -1.1530   18.1390 C.ar    1  UNL1       -0.0011
     24 C           4.1063    0.3080   17.9145 C.ar    1  UNL1        0.0363
     25 C           2.8718    0.9492   18.4756 C.ar    1  UNL1        0.1367
     26 C           1.8917    0.1293   19.2611 C.ar    1  UNL1        0.0380
     27 C           2.1461   -1.3317   19.4856 C.ar    1  UNL1       -0.0032
     28 C           0.6572    0.7705   19.8222 C.3     1  UNL1        0.1393
     29 O          -0.3229   -0.0494   20.6077 O.3     1  UNL1       -0.3798
     30 C           0.4027    2.2316   19.5977 C.3     1  UNL1        0.0812
     31 C           1.3828    3.0516   18.8121 C.3     1  UNL1        0.2083
     32 O           2.6174    2.4104   18.2510 O.3     1  UNL1       -0.4756
     33 H          -1.0583    0.5139   20.8955 H       1  UNL1        0.2108
@<TRIPOS>BOND
     1    17    18    1
     2    18    16    1
     3    16    15    1
     4    15     8    1
     5     8     9   ar
     6     9    10   ar
     7    10     7    1
     8     7     1    1
     9     1     2    1
    10     2     3    1
    11     3     4    1
    12     4    20    1
    13    20    21    1
    14    21    22    1
    15    22    23   ar
    16    23    24   ar
    17    24    25   ar
    18    25    26   ar
    19    26    27   ar
    20    26    28    1
    21    28    29    1
    22    28    30    1
    23    30    31    1
    24    31    32    1
    25     4     5    1
    26     5     6    1
    27    10    11   ar
    28    11    12   ar
    29    12    13   ar
    30    13    14    1
    31    13     8   ar
    32     6     1    1
    33    27    22   ar
    34    32    25    1
    35    17    19    1
    36    29    33    1
@<TRIPOS>MOLECULE
*****
 33 36 0 0 0
SMALL
GASTEIGER

@<TRIPOS>ATOM
      1 C          -7.2394  -19.7742   20.5423 C.3     1  UNL1        0.0071
      2 C          -6.7557  -20.2017   21.8962 C.3     1  UNL1        0.0177
      3 C          -5.3342  -19.9448   22.3003 C.3     1  UNL1        0.0721
      4 N          -4.3964  -19.2604   21.3505 N.3     1  UNL1       -0.2724
      5 C          -4.8802  -18.8329   19.9966 C.3     1  UNL1        0.0721
      6 C          -6.3016  -19.0898   19.5924 C.3     1  UNL1        0.0177
      7 C          -8.6610  -20.0311   20.1381 C.3     1  UNL1        0.0265
      8 C         -11.7993  -17.8403   21.1872 C.ar    1  UNL1        0.1445
      9 C         -10.6740  -18.4055   20.3722 C.ar    1  UNL1        0.0331
     10 C          -9.7862  -19.4659   20.9531 C.ar    1  UNL1       -0.0191
     11 C         -10.0237  -19.9610   22.3489 C.ar    1  UNL1       -0.0036
     12 C         -11.1490  -19.3958   23.1640 C.ar    1  UNL1        0.0094
     13 C         -12.0368  -18.3354   22.5831 C.ar    1  UNL1        0.0684
     14 BR        -13.1621  -17.7702   23.3981 Br      1  UNL1       -0.0458
     15 O         -12.6871  -16.7799   20.6063 O.3     1  UNL1       -0.4723
     16 C         -12.2046  -15.9439   19.4582 C.3     1  UNL1        0.2370
     17 O         -10.3800  -14.4393   18.3826 O.3     1  UNL1       -0.3784
     18 C         -10.8896  -15.2284   19.5520 C.3     1  UNL1        0.1847
     19 H          -9.5238  -14.0433   18.6082 H       1  UNL1        0.2106
     20 C          -2.9749  -19.0035   21.7547 C.3     1  UNL1        0.0768
     21 C          -2.6356  -17.7960   22.5772 C.3     1  UNL1        0.0437
     22 C          -3.5833  -17.3208   23.6383 C.ar    1  UNL1       -0.0208
     23 C          -3.2963  -17.6061   25.0827 C.ar    1  UNL1       -0.0011
     24 C          -4.2441  -17.1309   26.1437 C.ar    1  UNL1        0.0363
     25 C          -5.4789  -16.3704   25.7604 C.ar    1  UNL1        0.1367
     26 C          -5.7659  -16.0850   24.3161 C.ar    1  UNL1        0.0380
     27 C          -4.8181  -16.5602   23.2551 C.ar    1  UNL1       -0.0032
     28 C          -7.0007  -15.3245   23.9328 C.3     1  UNL1        0.1393
     29 O          -7.2877  -15.0392   22.4885 O.3     1  UNL1       -0.3798
     30 C          -7.9484  -14.8493   24.9939 C.3     1  UNL1        0.0812
     31 C          -7.6614  -15.1347   26.4383 C.3     1  UNL1        0.2083
     32 O          -6.4266  -15.8952   26.8216 O.3     1  UNL1       -0.4756
     33 H          -8.1178  -14.5427   22.4158 H       1  UNL1        0.2108
@<TRIPOS>BOND
     1    17    18    1
     2    18    16    1
     3    16    15    1
     4    15     8    1
     5     8     9   ar
     6     9    10   ar
     7    10     7    1
     8     7     1    1
     9     1     2    1
    10     2     3    1
    11     3     4    1
    12     4    20    1
    13    20    21    1
    14    21    22    1
    15    22    23   ar
    16    23    24   ar
    17    24    25   ar
    18    25    26   ar
    19    26    27   ar
    20    26    28    1
    21    28    29    1
    22    28    30    1
    23    30    31    1
    24    31    32    1
    25     4     5    1
    26     5     6    1
    27    10    11   ar
    28    11    12   ar
    29    12    13   ar
    30    13    14    1
    31    13     8   ar
    32     6     1    1
    33    27    22   ar
    34    32    25    1
    35    17    19    1
    36    29    33    1
@<TRIPOS>MOLECULE
*****
 33 36 0 0 0
SMALL
GASTEIGER

@<TRIPOS>ATOM
      1 C           7.0177   -3.9540   23.1540 C.3     1  UNL1        0.0071
      2 C           5.5214   -3.8527   23.1816 C.3     1  UNL1        0.0177
      3 C           4.7439   -3.8836   21.8992 C.3     1  UNL1        0.0721
      4 N           5.4627   -4.0158   20.5893 N.3     1  UNL1       -0.2724
      5 C           6.9590   -4.1171   20.5617 C.3     1  UNL1        0.0721
      6 C           7.7365   -4.0862   21.8441 C.3     1  UNL1        0.0177
      7 C           7.7952   -3.9231   24.4364 C.3     1  UNL1        0.0265
      8 C           8.3931   -6.3623   27.5093 C.ar    1  UNL1        0.1445
      9 C           8.2097   -5.1045   26.7129 C.ar    1  UNL1        0.0331
     10 C           7.9786   -5.1809   25.2328 C.ar    1  UNL1       -0.0191
     11 C           7.9309   -6.5151   24.5491 C.ar    1  UNL1       -0.0036
     12 C           8.1142   -7.7730   25.3455 C.ar    1  UNL1        0.0094
     13 C           8.3454   -7.6966   26.8256 C.ar    1  UNL1        0.0684
     14 BR          8.5287   -8.9544   27.6220 Br      1  UNL1       -0.0458
     15 O           8.6242   -6.2859   28.9894 O.3     1  UNL1       -0.4723
     16 C           7.5003   -5.9008   29.9051 C.3     1  UNL1        0.2370
     17 O           6.4756   -6.1476   32.2797 O.3     1  UNL1       -0.3784
     18 C           7.6754   -6.0025   31.3914 C.3     1  UNL1        0.1847
     19 H           6.7625   -6.1994   33.2049 H       1  UNL1        0.2106
     20 C           4.6851   -4.0467   19.3069 C.3     1  UNL1        0.0768
     21 C           3.4288   -3.2384   19.1719 C.3     1  UNL1        0.0437
     22 C           3.5077   -1.7466   19.0357 C.ar    1  UNL1       -0.0208
     23 C           2.4572   -0.8796   19.6639 C.ar    1  UNL1       -0.0011
     24 C           2.5361    0.6121   19.5277 C.ar    1  UNL1        0.0363
     25 C           3.6655    1.2367   18.7633 C.ar    1  UNL1        0.1367
     26 C           4.7160    0.3697   18.1352 C.ar    1  UNL1        0.0380
     27 C           4.6371   -1.1220   18.2713 C.ar    1  UNL1       -0.0032
     28 C           5.8454    0.9943   17.3708 C.3     1  UNL1        0.1393
     29 O           6.8959    0.1273   16.7426 O.3     1  UNL1       -0.3798
     30 C           5.9244    2.4860   17.2346 C.3     1  UNL1        0.0812
     31 C           4.8738    3.3531   17.8628 C.3     1  UNL1        0.2083
     32 O           3.7444    2.7285   18.6272 O.3     1  UNL1       -0.4756
     33 H           7.5477    0.6853   16.2902 H       1  UNL1        0.2108
@<TRIPOS>BOND
     1    17    18    1
     2    18    16    1
     3    16    15    1
     4    15     8    1
     5     8     9   ar
     6     9    10   ar
     7    10     7    1
     8     7     1    1
     9     1     2    1
    10     2     3    1
    11     3     4    1
    12     4    20    1
    13    20    21    1
    14    21    22    1
    15    22    23   ar
    16    23    24   ar
    17    24    25   ar
    18    25    26   ar
    19    26    27   ar
    20    26    28    1
    21    28    29    1
    22    28    30    1
    23    30    31    1
    24    31    32    1
    25     4     5    1
    26     5     6    1
    27    10    11   ar
    28    11    12   ar
    29    12    13   ar
    30    13    14    1
    31    13     8   ar
    32     6     1    1
    33    27    22   ar
    34    32    25    1
    35    17    19    1
    36    29    33    1
@<TRIPOS>MOLECULE
*****
 33 36 0 0 0
SMALL
GASTEIGER

@<TRIPOS>ATOM
      1 C           0.5400    0.6955   21.3799 C.3     1  UNL1        0.0071
      2 C           1.0034    0.3337   22.7599 C.3     1  UNL1        0.0177
      3 C           0.7735    1.2804   23.9004 C.3     1  UNL1        0.0721
      4 N           0.0803    2.5889   23.6610 N.3     1  UNL1       -0.2724
      5 C          -0.3831    2.9507   22.2810 C.3     1  UNL1        0.0721
      6 C          -0.1532    2.0040   21.1405 C.3     1  UNL1        0.0177
      7 C           0.7698   -0.2512   20.2393 C.3     1  UNL1        0.0265
      8 C           4.5437   -1.3181   19.6315 C.ar    1  UNL1        0.1445
      9 C           3.1838   -1.2117   20.2554 C.ar    1  UNL1        0.0331
     10 C           2.1297   -0.3577   19.6154 C.ar    1  UNL1       -0.0191
     11 C           2.4355    0.3898   18.3514 C.ar    1  UNL1       -0.0036
     12 C           3.7955    0.2834   17.7274 C.ar    1  UNL1        0.0094
     13 C           4.8496   -0.5706   18.3675 C.ar    1  UNL1        0.0684
     14 BR          6.2094   -0.6771   17.7435 Br      1  UNL1       -0.0458
     15 O           5.5978   -2.1721   20.2716 O.3     1  UNL1       -0.4723
     16 C           5.4062   -3.6569   20.3636 C.3     1  UNL1        0.2370
     17 O           4.2461   -5.7754   19.4066 O.3     1  UNL1       -0.3784
     18 C           4.8398   -4.4137   19.1989 C.3     1  UNL1        0.1847
     19 H           3.9284   -6.1224   18.5583 H       1  UNL1        0.2106
     20 C          -0.1496    3.5356   24.8016 C.3     1  UNL1        0.0768
     21 C          -1.1912    3.2255   25.8355 C.3     1  UNL1        0.0437
     22 C          -2.6112    3.6600   25.6234 C.ar    1  UNL1       -0.0208
     23 C          -3.3425    4.3898   26.7107 C.ar    1  UNL1       -0.0011
     24 C          -4.7624    4.8243   26.4986 C.ar    1  UNL1        0.0363
     25 C          -5.4510    4.5289   25.1991 C.ar    1  UNL1        0.1367
     26 C          -4.7196    3.7991   24.1118 C.ar    1  UNL1        0.0380
     27 C          -3.2997    3.3646   24.3239 C.ar    1  UNL1       -0.0032
     28 C          -5.4082    3.5037   22.8123 C.3     1  UNL1        0.1393
     29 O          -4.6768    2.7738   21.7249 O.3     1  UNL1       -0.3798
     30 C          -6.8281    3.9381   22.6002 C.3     1  UNL1        0.0812
     31 C          -7.5595    4.6680   23.6876 C.3     1  UNL1        0.2083
     32 O          -6.8710    4.9634   24.9870 O.3     1  UNL1       -0.4756
     33 H          -5.2614    2.6655   20.9585 H       1  UNL1        0.2108
@<TRIPOS>BOND
     1    17    18    1
     2    18    16    1
     3    16    15    1
     4    15     8    1
     5     8     9   ar
     6     9    10   ar
     7    10     7    1
     8     7     1    1
     9     1     2    1
    10     2     3    1
    11     3     4    1
    12     4    20    1
    13    20    21    1
    14    21    22    1
    15    22    23   ar
    16    23    24   ar
    17    24    25   ar
    18    25    26   ar
    19    26    27   ar
    20    26    28    1
    21    28    29    1
    22    28    30    1
    23    30    31    1
    24    31    32    1
    25     4     5    1
    26     5     6    1
    27    10    11   ar
    28    11    12   ar
    29    12    13   ar
    30    13    14    1
    31    13     8   ar
    32     6     1    1
    33    27    22   ar
    34    32    25    1
    35    17    19    1
    36    29    33    1
@<TRIPOS>MOLECULE
*****
 33 36 0 0 0
SMALL
GASTEIGER

@<TRIPOS>ATOM
      1 C           2.2955    0.5586   21.9944 C.3     1  UNL1        0.0071
      2 C           1.4107   -0.2960   21.1360 C.3     1  UNL1        0.0177
      3 C           1.7181   -0.4657   19.6777 C.3     1  UNL1        0.0721
      4 N           2.9101    0.2192   19.0778 N.3     1  UNL1       -0.2724
      5 C           3.7949    1.0738   19.9362 C.3     1  UNL1        0.0721
      6 C           3.4875    1.2435   21.3945 C.3     1  UNL1        0.0177
      7 C           1.9881    0.7283   23.4528 C.3     1  UNL1        0.0265
      8 C          -0.8992    2.2541   25.7077 C.ar    1  UNL1        0.1445
      9 C           0.2822    1.4346   25.2806 C.ar    1  UNL1        0.0331
     10 C           0.8067    1.5478   23.8798 C.ar    1  UNL1       -0.0191
     11 C           0.1496    2.4806   22.9061 C.ar    1  UNL1       -0.0036
     12 C          -1.0319    3.3002   23.3332 C.ar    1  UNL1        0.0094
     13 C          -1.5564    3.1870   24.7339 C.ar    1  UNL1        0.0684
     14 BR         -2.7378    4.0065   25.1610 Br      1  UNL1       -0.0458
     15 O          -1.4237    2.1409   27.1084 O.3     1  UNL1       -0.4723
     16 C          -0.7372    1.2446   28.0961 C.3     1  UNL1        0.2370
     17 O          -0.8021   -0.8717   29.6017 O.3     1  UNL1       -0.3784
     18 C          -1.5192    0.1899   28.8215 C.3     1  UNL1        0.1847
     19 H          -1.4505   -1.4693   30.0060 H       1  UNL1        0.2106
     20 C           3.2175    0.0495   17.6194 C.3     1  UNL1        0.0768
     21 C           4.0180   -1.1305   17.1540 C.3     1  UNL1        0.0437
     22 C           4.6936   -2.0204   18.1550 C.ar    1  UNL1       -0.0208
     23 C           3.9103   -3.0897   18.8570 C.ar    1  UNL1       -0.0011
     24 C           4.5859   -3.9794   19.8579 C.ar    1  UNL1        0.0363
     25 C           6.0448   -3.7999   20.1568 C.ar    1  UNL1        0.1367
     26 C           6.8281   -2.7306   19.4547 C.ar    1  UNL1        0.0380
     27 C           6.1526   -1.8408   18.4538 C.ar    1  UNL1       -0.0032
     28 C           8.2871   -2.5510   19.7536 C.3     1  UNL1        0.1393
     29 O           9.0704   -1.4817   19.0515 O.3     1  UNL1       -0.3798
     30 C           8.9627   -3.4408   20.7545 C.3     1  UNL1        0.0812
     31 C           8.1793   -4.5102   21.4566 C.3     1  UNL1        0.2083
     32 O           6.7204   -4.6897   21.1577 O.3     1  UNL1       -0.4756
     33 H           9.9906   -1.5012   19.3577 H       1  UNL1        0.2108
@<TRIPOS>BOND
     1    17    18    1
     2    18    16    1
     3    16    15    1
     4    15     8    1
     5     8     9   ar
     6     9    10   ar
     7    10     7    1
     8     7     1    1
     9     1     2    1
    10     2     3    1
    11     3     4    1
    12     4    20    1
    13    20    21    1
    14    21    22    1
    15    22    23   ar
    16    23    24   ar
    17    24    25   ar
    18    25    26   ar
    19    26    27   ar
    20    26    28    1
    21    28    29    1
    22    28    30    1
    23    30    31    1
    24    31    32    1
    25     4     5    1
    26     5     6    1
    27    10    11   ar
    28    11    12   ar
    29    12    13   ar
    30    13    14    1
    31    13     8   ar
    32     6     1    1
    33    27    22   ar
    34    32    25    1
    35    17    19    1
    36    29    33    1
@<TRIPOS>MOLECULE
*****
 33 36 0 0 0
SMALL
GASTEIGER

@<TRIPOS>ATOM
      1 C           4.5070   -3.3605   20.4310 C.3     1  UNL1        0.0071
      2 C           5.8017   -3.6636   19.7369 C.3     1  UNL1        0.0177
      3 C           6.9937   -4.1059   20.5329 C.3     1  UNL1        0.0721
      4 N           6.8909   -4.2451   22.0229 N.3     1  UNL1       -0.2724
      5 C           5.5961   -3.9420   22.7169 C.3     1  UNL1        0.0721
      6 C           4.4042   -3.4997   21.9209 C.3     1  UNL1        0.0177
      7 C           3.3149   -2.9182   19.6350 C.3     1  UNL1        0.0265
      8 C           3.6734    0.8918   18.5839 C.ar    1  UNL1        0.1445
      9 C           3.9719   -0.5701   18.7381 C.ar    1  UNL1        0.0331
     10 C           3.0165   -1.4563   19.4809 C.ar    1  UNL1       -0.0191
     11 C           1.7627   -0.8807   20.0695 C.ar    1  UNL1       -0.0036
     12 C           1.4642    0.5812   19.9154 C.ar    1  UNL1        0.0094
     13 C           2.4196    1.4675   19.1726 C.ar    1  UNL1        0.0684
     14 BR          2.1212    2.9294   19.0185 Br      1  UNL1       -0.0458
     15 O           4.6288    1.7781   17.8411 O.3     1  UNL1       -0.4723
     16 C           6.0290    1.9618   18.3467 C.3     1  UNL1        0.2370
     17 O           6.8968    0.0885   16.7696 O.3     1  UNL1       -0.3784
     18 C           7.1678    1.2526   17.6758 C.3     1  UNL1        0.1847
     19 H           7.7356   -0.2520   16.4210 H       1  UNL1        0.2106
     20 C           8.0829   -4.6874   22.8188 C.3     1  UNL1        0.0768
     21 C           8.1355   -6.0769   23.3814 C.3     1  UNL1        0.0437
     22 C           8.1511   -6.2845   24.8669 C.ar    1  UNL1       -0.0208
     23 C           8.9474   -7.4096   25.4586 C.ar    1  UNL1       -0.0011
     24 C           8.9630   -7.6172   26.9440 C.ar    1  UNL1        0.0363
     25 C           8.1822   -6.6997   27.8378 C.ar    1  UNL1        0.1367
     26 C           7.3859   -5.5747   27.2461 C.ar    1  UNL1        0.0380
     27 C           7.3704   -5.3671   25.7606 C.ar    1  UNL1       -0.0032
     28 C           6.6052   -4.6573   28.1398 C.3     1  UNL1        0.1393
     29 O           5.8089   -3.5322   27.5481 O.3     1  UNL1       -0.3798
     30 C           6.6208   -4.8649   29.6253 C.3     1  UNL1        0.0812
     31 C           7.4171   -5.9900   30.2171 C.3     1  UNL1        0.2083
     32 O           8.1978   -6.9074   29.3233 O.3     1  UNL1       -0.4756
     33 H           5.3679   -3.0399   28.2581 H       1  UNL1        0.2108
@<TRIPOS>BOND
     1    17    18    1
     2    18    16    1
     3    16    15    1
     4    15     8    1
     5     8     9   ar
     6     9    10   ar
     7    10     7    1
     8     7     1    1
     9     1     2    1
    10     2     3    1
    11     3     4    1
    12     4    20    1
    13    20    21    1
    14    21    22    1
    15    22    23   ar
    16    23    24   ar
    17    24    25   ar
    18    25    26   ar
    19    26    27   ar
    20    26    28    1
    21    28    29    1
    22    28    30    1
    23    30    31    1
    24    31    32    1
    25     4     5    1
    26     5     6    1
    27    10    11   ar
    28    11    12   ar
    29    12    13   ar
    30    13    14    1
    31    13     8   ar
    32     6     1    1
    33    27    22   ar
    34    32    25    1
    35    17    19    1
    36    29    33    1
@<TRIPOS>MOLECULE
*****
 33 36 0 0 0
SMALL
GASTEIGER

@<TRIPOS>ATOM
      1 C           5.3649   -0.9013   34.7435 C.3     1  UNL1        0.0071
      2 C           6.6282   -0.5113   34.0351 C.3     1  UNL1        0.0177
      3 C           6.8900   -1.0041   32.6428 C.3     1  UNL1        0.0721
      4 N           5.8885   -1.8868   31.9589 N.3     1  UNL1       -0.2724
      5 C           4.6252   -2.2768   32.6673 C.3     1  UNL1        0.0721
      6 C           4.3634   -1.7840   34.0596 C.3     1  UNL1        0.0177
      7 C           5.1031   -0.4086   36.1359 C.3     1  UNL1        0.0265
      8 C           2.8108    2.2744   37.9516 C.ar    1  UNL1        0.1445
      9 C           3.6991    1.0860   37.7312 C.ar    1  UNL1        0.0331
     10 C           4.2148    0.7798   36.3563 C.ar    1  UNL1       -0.0191
     11 C           3.8421    1.6619   35.2018 C.ar    1  UNL1       -0.0036
     12 C           2.9537    2.8504   35.4222 C.ar    1  UNL1        0.0094
     13 C           2.4381    3.1566   36.7971 C.ar    1  UNL1        0.0684
     14 BR          1.5497    4.3450   37.0175 Br      1  UNL1       -0.0458
     15 O           2.2951    2.5806   39.3265 O.3     1  UNL1       -0.4723
     16 C           1.1008    1.8467   39.8603 C.3     1  UNL1        0.2370
     17 O           1.2478   -0.7396   39.6621 O.3     1  UNL1       -0.3784
     18 C           0.6584    0.5659   39.2170 C.3     1  UNL1        0.1847
     19 H           0.8558   -1.4632   39.1484 H       1  UNL1        0.2106
     20 C           6.1504   -2.3795   30.5665 C.3     1  UNL1        0.0768
     21 C           5.9115   -1.4755   29.3937 C.3     1  UNL1        0.0437
     22 C           5.0702   -0.2440   29.5550 C.ar    1  UNL1       -0.0208
     23 C           5.7245    1.0991   29.6881 C.ar    1  UNL1       -0.0011
     24 C           4.8833    2.3304   29.8494 C.ar    1  UNL1        0.0363
     25 C           3.3877    2.2186   29.8776 C.ar    1  UNL1        0.1367
     26 C           2.7334    0.8755   29.7445 C.ar    1  UNL1        0.0380
     27 C           3.5747   -0.3559   29.5832 C.ar    1  UNL1       -0.0032
     28 C           1.2379    0.7636   29.7728 C.3     1  UNL1        0.1393
     29 O           0.5835   -0.5795   29.6396 O.3     1  UNL1       -0.3798
     30 C           0.3966    1.9950   29.9341 C.3     1  UNL1        0.0812
     31 C           1.0509    3.3382   30.0672 C.3     1  UNL1        0.2083
     32 O           2.5465    3.4500   30.0390 O.3     1  UNL1       -0.4756
     33 H          -0.3801   -0.4750   29.6777 H       1  UNL1        0.2108
@<TRIPOS>BOND
     1    17    18    1
     2    18    16    1
     3    16    15    1
     4    15     8    1
     5     8     9   ar
     6     9    10   ar
     7    10     7    1
     8     7     1    1
     9     1     2    1
    10     2     3    1
    11     3     4    1
    12     4    20    1
    13    20    21    1
    14    21    22    1
    15    22    23   ar
    16    23    24   ar
    17    24    25   ar
    18    25    26   ar
    19    26    27   ar
    20    26    28    1
    21    28    29    1
    22    28    30    1
    23    30    31    1
    24    31    32    1
    25     4     5    1
    26     5     6    1
    27    10    11   ar
    28    11    12   ar
    29    12    13   ar
    30    13    14    1
    31    13     8   ar
    32     6     1    1
    33    27    22   ar
    34    32    25    1
    35    17    19    1
    36    29    33    1
