@<TRIPOS>MOLECULE
*****
 34 38 0 0 0
SMALL
GASTEIGER

@<TRIPOS>ATOM
      1 C           7.2821   -3.0275   24.5511 C.2     1  UNL1        0.2470
      2 O           8.5999   -2.3321   24.3781 O.2     1  UNL1       -0.2820
      3 C           7.2232   -4.3656   25.2265 C.2     1  UNL1        0.2880
      4 O           7.2576   -5.6215   24.4071 O.2     1  UNL1       -0.2664
      5 N           7.1299   -4.4476   26.7213 N.am    1  UNL1       -0.2700
      6 C           7.0956   -3.1916   27.5408 C.3     1  UNL1        0.1153
      7 C           7.0023   -3.2738   29.0356 C.3     1  UNL1        0.1152
      8 N           6.9433   -4.6118   29.7110 N.am    1  UNL1       -0.2726
      9 C           6.8501   -4.6940   31.2059 C.2     1  UNL1        0.2491
     10 O           6.7911   -6.0320   31.8813 O.2     1  UNL1       -0.2699
     11 C           6.9777   -5.8678   28.8916 C.3     1  UNL1        0.1152
     12 C           7.0710   -5.7856   27.3968 C.3     1  UNL1        0.1153
     13 C           6.8157   -3.4381   32.0253 C.ar    1  UNL1        0.0536
     14 C           8.0963   -2.7581   32.4098 C.ar    1  UNL1        0.0045
     15 C           8.0619   -1.5021   33.2292 C.ar    1  UNL1        0.0001
     16 C           6.7469   -0.9262   33.6641 C.ar    1  UNL1        0.0000
     17 C           5.4664   -1.6061   33.2797 C.ar    1  UNL1        0.0001
     18 C           5.5008   -2.8620   32.4603 C.ar    1  UNL1        0.0045
     19 C           6.4335   -2.3697   21.3389 C.2     1  UNL1        0.1448
     20 C           5.8306   -1.9778   20.0225 C.2     1  UNL1        0.1335
     21 N           4.4799   -1.3271   19.9803 N.2     1  UNL1       -0.2211
     22 C           3.7319   -1.0681   21.2545 C.2     1  UNL1        0.1799
     23 C           4.3348   -1.4600   22.5709 C.2     1  UNL1        0.1058
     24 N           3.8376   -1.3319   23.9803 N.2     1  UNL1       -0.2445
     25 C           4.8812   -1.9035   24.8936 C.2     1  UNL1        0.0984
     26 C           6.0233   -2.3849   24.0487 C.2     1  UNL1        0.0531
     27 C           5.6856   -2.1108   22.6131 C.3     1  UNL1        0.1284
     28 N           2.3810   -0.4173   21.2122 N.ar    1  UNL1       -0.1889
     29 C           1.2614   -0.7699   20.2783 C.ar    1  UNL1        0.2031
     30 N           0.1011    0.1299   20.5853 N.ar    1  UNL1       -0.2004
     31 C           0.5037    1.0384   21.7089 C.ar    1  UNL1        0.2214
     32 N           1.9128    0.7002   22.0963 N.ar    1  UNL1       -0.1395
     33 C           7.9159   -4.4926   21.1256 C.3     1  UNL1        0.2521
     34 O           7.7843   -3.0204   21.3812 O.2     1  UNL1       -0.4734
@<TRIPOS>BOND
     1    33    34    1
     2    34    19    1
     3    19    20    2
     4    20    21    1
     5    21    22    2
     6    22    28    1
     7    28    29   ar
     8    29    30   ar
     9    30    31   ar
    10    31    32   ar
    11    22    23    1
    12    23    24    2
    13    24    25    1
    14    25    26    2
    15    26     1    1
    16     1     2    2
    17     1     3    1
    18     3     4    2
    19     3     5   am
    20     5     6    1
    21     6     7    1
    22     7     8    1
    23     8     9   am
    24     9    10    2
    25     9    13    1
    26    13    14   ar
    27    14    15   ar
    28    15    16   ar
    29    16    17   ar
    30    17    18   ar
    31     8    11    1
    32    11    12    1
    33    26    27    1
    34    27    19    1
    35    32    28   ar
    36    27    23    1
    37    12     5    1
    38    18    13   ar
@<TRIPOS>MOLECULE
*****
 34 38 0 0 0
SMALL
GASTEIGER

@<TRIPOS>ATOM
      1 C           6.0576   -0.7609   26.4466 C.2     1  UNL1        0.2470
      2 O           6.2536    0.5353   25.7176 O.2     1  UNL1       -0.2820
      3 C           6.0741   -2.0564   25.6908 C.2     1  UNL1        0.2880
      4 O           6.7474   -3.2602   26.2804 O.2     1  UNL1       -0.2664
      5 N           5.4174   -2.1481   24.3454 N.am    1  UNL1       -0.2700
      6 C           4.7441   -0.9443   23.7557 C.3     1  UNL1        0.1153
      7 C           4.0874   -1.0361   22.4102 C.3     1  UNL1        0.1152
      8 N           4.1040   -2.3317   21.6544 N.am    1  UNL1       -0.2726
      9 C           3.4472   -2.4235   20.3089 C.2     1  UNL1        0.2491
     10 O           3.4638   -3.7190   19.5531 O.2     1  UNL1       -0.2699
     11 C           4.7772   -3.5354   22.2440 C.3     1  UNL1        0.1152
     12 C           5.4339   -3.4436   23.5895 C.3     1  UNL1        0.1153
     13 C           2.7740   -1.2197   19.7193 C.ar    1  UNL1        0.0536
     14 C           1.3863   -0.8493   20.1520 C.ar    1  UNL1        0.0045
     15 C           0.7131    0.3545   19.5623 C.ar    1  UNL1        0.0001
     16 C           1.4275    1.1879   18.5400 C.ar    1  UNL1        0.0000
     17 C           2.8151    0.8175   18.1074 C.ar    1  UNL1        0.0001
     18 C           3.4883   -0.3862   18.6970 C.ar    1  UNL1        0.0045
     19 C           3.1228   -0.5062   28.1177 C.2     1  UNL1        0.1448
     20 C           1.9759   -0.4110   29.0797 C.2     1  UNL1        0.1335
     21 N           2.2305   -0.4558   30.5572 N.2     1  UNL1       -0.2211
     22 C           3.6322   -0.5958   31.0728 C.2     1  UNL1        0.1799
     23 C           4.7791   -0.6910   30.1108 C.2     1  UNL1        0.1058
     24 N           6.2572   -0.8340   30.3223 N.2     1  UNL1       -0.2445
     25 C           6.9160   -0.8776   28.9754 C.2     1  UNL1        0.0984
     26 C           5.8451   -0.7615   27.9315 C.2     1  UNL1        0.0531
     27 C           4.5244   -0.6462   28.6332 C.3     1  UNL1        0.1284
     28 N           3.8869   -0.6406   32.5504 N.ar    1  UNL1       -0.1889
     29 C           4.0180    0.5458   33.4589 C.ar    1  UNL1        0.2031
     30 N           4.2672    0.0399   34.8488 N.ar    1  UNL1       -0.2004
     31 C           4.2902   -1.4591   34.7993 C.ar    1  UNL1        0.2214
     32 N           4.0551   -1.8797   33.3788 N.ar    1  UNL1       -0.1395
     33 C           2.4194    0.8162   25.9949 C.3     1  UNL1        0.2521
     34 O           2.8680   -0.4614   26.6402 O.2     1  UNL1       -0.4734
@<TRIPOS>BOND
     1    33    34    1
     2    34    19    1
     3    19    20    2
     4    20    21    1
     5    21    22    2
     6    22    28    1
     7    28    29   ar
     8    29    30   ar
     9    30    31   ar
    10    31    32   ar
    11    22    23    1
    12    23    24    2
    13    24    25    1
    14    25    26    2
    15    26     1    1
    16     1     2    2
    17     1     3    1
    18     3     4    2
    19     3     5   am
    20     5     6    1
    21     6     7    1
    22     7     8    1
    23     8     9   am
    24     9    10    2
    25     9    13    1
    26    13    14   ar
    27    14    15   ar
    28    15    16   ar
    29    16    17   ar
    30    17    18   ar
    31     8    11    1
    32    11    12    1
    33    26    27    1
    34    27    19    1
    35    32    28   ar
    36    27    23    1
    37    12     5    1
    38    18    13   ar
@<TRIPOS>MOLECULE
*****
 34 38 0 0 0
SMALL
GASTEIGER

@<TRIPOS>ATOM
      1 C         -13.6871   -3.1205   19.0956 C.2     1  UNL1        0.2470
      2 O         -12.5837   -2.9586   20.0987 O.2     1  UNL1       -0.2820
      3 C         -14.0373   -1.9878   18.1766 C.2     1  UNL1        0.2880
      4 O         -13.4287   -1.9172   16.8075 O.2     1  UNL1       -0.2664
      5 N         -14.9961   -0.9259   18.6268 N.am    1  UNL1       -0.2700
      6 C         -15.6048   -0.9964   19.9961 C.3     1  UNL1        0.1153
      7 C         -16.5636    0.0656   20.4462 C.3     1  UNL1        0.1152
      8 N         -16.9139    1.1982   19.5272 N.am    1  UNL1       -0.2726
      9 C         -17.8727    2.2603   19.9774 C.2     1  UNL1        0.2491
     10 O         -18.2230    3.3929   19.0584 O.2     1  UNL1       -0.2699
     11 C         -16.3053    1.2688   18.1581 C.3     1  UNL1        0.1152
     12 C         -15.3464    0.2068   17.7079 C.3     1  UNL1        0.1153
     13 C         -18.4813    2.1897   21.3466 C.ar    1  UNL1        0.0536
     14 C         -19.8548    1.6146   21.5281 C.ar    1  UNL1        0.0045
     15 C         -20.4634    1.5440   22.8973 C.ar    1  UNL1        0.0001
     16 C         -19.6985    2.0485   24.0850 C.ar    1  UNL1        0.0000
     17 C         -18.3252    2.6235   23.9034 C.ar    1  UNL1        0.0001
     18 C         -17.7166    2.6941   22.5343 C.ar    1  UNL1        0.0045
     19 C         -12.8011   -5.9252   17.4166 C.2     1  UNL1        0.1448
     20 C         -12.6400   -7.2686   16.7690 C.2     1  UNL1        0.1335
     21 N         -13.6891   -8.3235   16.9591 N.2     1  UNL1       -0.2211
     22 C         -14.8994   -8.0352   17.7970 C.2     1  UNL1        0.1799
     23 C         -15.0605   -6.6919   18.4447 C.2     1  UNL1        0.1058
     24 N         -16.1378   -6.1220   19.3192 N.2     1  UNL1       -0.2445
     25 C         -15.7544   -4.7148   19.6694 C.2     1  UNL1        0.0984
     26 C         -14.4402   -4.4150   19.0114 C.2     1  UNL1        0.0531
     27 C         -14.0113   -5.6369   18.2545 C.3     1  UNL1        0.1284
     28 N         -15.9486   -9.0903   17.9872 N.ar    1  UNL1       -0.1889
     29 C         -17.3844   -8.9924   17.5641 C.ar    1  UNL1        0.2031
     30 N         -18.0693  -10.2701   17.9493 N.ar    1  UNL1       -0.2004
     31 C         -17.0568  -11.1577   18.6104 C.ar    1  UNL1        0.2214
     32 N         -15.7461  -10.4285   18.6339 N.ar    1  UNL1       -0.1395
     33 C         -10.4728   -4.9350   18.0074 C.3     1  UNL1        0.2521
     34 O         -11.7519   -4.8702   17.2264 O.2     1  UNL1       -0.4734
@<TRIPOS>BOND
     1    33    34    1
     2    34    19    1
     3    19    20    2
     4    20    21    1
     5    21    22    2
     6    22    28    1
     7    28    29   ar
     8    29    30   ar
     9    30    31   ar
    10    31    32   ar
    11    22    23    1
    12    23    24    2
    13    24    25    1
    14    25    26    2
    15    26     1    1
    16     1     2    2
    17     1     3    1
    18     3     4    2
    19     3     5   am
    20     5     6    1
    21     6     7    1
    22     7     8    1
    23     8     9   am
    24     9    10    2
    25     9    13    1
    26    13    14   ar
    27    14    15   ar
    28    15    16   ar
    29    16    17   ar
    30    17    18   ar
    31     8    11    1
    32    11    12    1
    33    26    27    1
    34    27    19    1
    35    32    28   ar
    36    27    23    1
    37    12     5    1
    38    18    13   ar
@<TRIPOS>MOLECULE
*****
 34 38 0 0 0
SMALL
GASTEIGER

@<TRIPOS>ATOM
      1 C         -15.0919    0.6196   18.0030 C.2     1  UNL1        0.2470
      2 O         -15.5736    0.8704   16.6048 O.2     1  UNL1       -0.2820
      3 C         -13.6802    0.1718   18.2410 C.2     1  UNL1        0.2880
      4 O         -12.5796    1.1854   18.3469 O.2     1  UNL1       -0.2664
      5 N         -13.3692   -1.2896   18.3731 N.am    1  UNL1       -0.2700
      6 C         -14.4698   -2.3033   18.2673 C.3     1  UNL1        0.1153
      7 C         -14.1587   -3.7647   18.3994 C.3     1  UNL1        0.1152
      8 N         -12.7470   -4.2125   18.6374 N.am    1  UNL1       -0.2726
      9 C         -12.4359   -5.6739   18.7695 C.2     1  UNL1        0.2491
     10 O         -11.0242   -6.1217   19.0075 O.2     1  UNL1       -0.2699
     11 C         -11.6464   -3.1989   18.7433 C.3     1  UNL1        0.1152
     12 C         -11.9576   -1.7375   18.6111 C.3     1  UNL1        0.1153
     13 C         -13.5365   -6.6875   18.6636 C.ar    1  UNL1        0.0536
     14 C         -13.4185   -7.8241   17.6919 C.ar    1  UNL1        0.0045
     15 C         -14.5191   -8.8378   17.5861 C.ar    1  UNL1        0.0001
     16 C         -15.7378   -8.7148   18.4519 C.ar    1  UNL1        0.0000
     17 C         -15.8558   -7.5783   19.4236 C.ar    1  UNL1        0.0001
     18 C         -14.7553   -6.5647   19.5295 C.ar    1  UNL1        0.0045
     19 C         -15.5770    3.4422   19.8109 C.2     1  UNL1        0.1448
     20 C         -15.9693    4.5435   20.7506 C.2     1  UNL1        0.1335
     21 N         -16.9918    4.2899   21.8182 N.2     1  UNL1       -0.2211
     22 C         -17.6222    2.9347   21.9463 C.2     1  UNL1        0.1799
     23 C         -17.2299    1.8333   21.0066 C.2     1  UNL1        0.1058
     24 N         -17.6766    0.4061   20.8908 N.2     1  UNL1       -0.2445
     25 C         -16.9301   -0.2223   19.7516 C.2     1  UNL1        0.0984
     26 C         -16.0220    0.8166   19.1633 C.2     1  UNL1        0.0531
     27 C         -16.2073    2.0871   19.9389 C.3     1  UNL1        0.1284
     28 N         -18.6448    2.6811   23.0140 N.ar    1  UNL1       -0.1889
     29 C         -18.8947    3.5407   24.2176 C.ar    1  UNL1        0.2031
     30 N         -20.0013    2.9141   25.0130 N.ar    1  UNL1       -0.2004
     31 C         -20.4354    1.6673   24.3009 C.ar    1  UNL1        0.2214
     32 N         -19.5970    1.5232   23.0655 N.ar    1  UNL1       -0.1395
     33 C         -14.9636    4.3355   17.4496 C.3     1  UNL1        0.2521
     34 O         -14.5544    3.6959   18.7432 O.2     1  UNL1       -0.4734
@<TRIPOS>BOND
     1    33    34    1
     2    34    19    1
     3    19    20    2
     4    20    21    1
     5    21    22    2
     6    22    28    1
     7    28    29   ar
     8    29    30   ar
     9    30    31   ar
    10    31    32   ar
    11    22    23    1
    12    23    24    2
    13    24    25    1
    14    25    26    2
    15    26     1    1
    16     1     2    2
    17     1     3    1
    18     3     4    2
    19     3     5   am
    20     5     6    1
    21     6     7    1
    22     7     8    1
    23     8     9   am
    24     9    10    2
    25     9    13    1
    26    13    14   ar
    27    14    15   ar
    28    15    16   ar
    29    16    17   ar
    30    17    18   ar
    31     8    11    1
    32    11    12    1
    33    26    27    1
    34    27    19    1
    35    32    28   ar
    36    27    23    1
    37    12     5    1
    38    18    13   ar
@<TRIPOS>MOLECULE
*****
 34 38 0 0 0
SMALL
GASTEIGER

@<TRIPOS>ATOM
      1 C           3.2117   -0.9711   20.7317 C.2     1  UNL1        0.2470
      2 O           2.4135   -1.8565   19.8214 O.2     1  UNL1       -0.2820
      3 C           3.4118    0.4747   20.3858 C.2     1  UNL1        0.2880
      4 O           4.7164    0.9332   19.8045 O.2     1  UNL1       -0.2664
      5 N           2.3073    1.4619   20.6211 N.am    1  UNL1       -0.2700
      6 C           1.0027    1.0034   21.2023 C.3     1  UNL1        0.1153
      7 C          -0.1018    1.9907   21.4376 C.3     1  UNL1        0.1152
      8 N           0.0983    3.4365   21.0917 N.am    1  UNL1       -0.2726
      9 C          -1.0062    4.4238   21.3269 C.2     1  UNL1        0.2491
     10 O          -0.8061    5.8696   20.9810 O.2     1  UNL1       -0.2699
     11 C           1.4029    3.8950   20.5104 C.3     1  UNL1        0.1152
     12 C           2.5073    2.9077   20.2752 C.3     1  UNL1        0.1153
     13 C          -2.3107    3.9653   21.9082 C.ar    1  UNL1        0.0536
     14 C          -2.5067    3.9543   23.3953 C.ar    1  UNL1        0.0045
     15 C          -3.8113    3.4958   23.9765 C.ar    1  UNL1        0.0001
     16 C          -4.9200    3.0483   23.0706 C.ar    1  UNL1        0.0000
     17 C          -4.7240    3.0593   21.5836 C.ar    1  UNL1        0.0001
     18 C          -3.4195    3.5178   21.0024 C.ar    1  UNL1        0.0045
     19 C           5.7421   -3.2061   21.0014 C.2     1  UNL1        0.1448
     20 C           6.8249   -4.1698   21.3870 C.2     1  UNL1        0.1335
     21 N           7.0990   -4.4499   22.8348 N.2     1  UNL1       -0.2211
     22 C           6.2902   -3.7663   23.8972 C.2     1  UNL1        0.1799
     23 C           5.2073   -2.8026   23.5117 C.2     1  UNL1        0.1058
     24 N           4.2534   -1.9847   24.3307 N.2     1  UNL1       -0.2445
     25 C           3.3897   -1.1990   23.3890 C.2     1  UNL1        0.0984
     26 C           3.8099   -1.5314   21.9880 C.2     1  UNL1        0.0531
     27 C           4.9333   -2.5225   22.0638 C.3     1  UNL1        0.1284
     28 N           6.5643   -4.0465   25.3452 N.ar    1  UNL1       -0.1889
     29 C           6.8858   -5.3862   25.9385 C.ar    1  UNL1        0.2031
     30 N           7.0852   -5.2038   27.4140 N.ar    1  UNL1       -0.2004
     31 C           6.8871   -3.7514   27.7324 C.ar    1  UNL1        0.2214
     32 N           6.5651   -3.0362   26.4539 N.ar    1  UNL1       -0.1395
     33 C           4.9037   -4.0029   18.6750 C.3     1  UNL1        0.2521
     34 O           5.4680   -2.9260   19.5535 O.2     1  UNL1       -0.4734
@<TRIPOS>BOND
     1    33    34    1
     2    34    19    1
     3    19    20    2
     4    20    21    1
     5    21    22    2
     6    22    28    1
     7    28    29   ar
     8    29    30   ar
     9    30    31   ar
    10    31    32   ar
    11    22    23    1
    12    23    24    2
    13    24    25    1
    14    25    26    2
    15    26     1    1
    16     1     2    2
    17     1     3    1
    18     3     4    2
    19     3     5   am
    20     5     6    1
    21     6     7    1
    22     7     8    1
    23     8     9   am
    24     9    10    2
    25     9    13    1
    26    13    14   ar
    27    14    15   ar
    28    15    16   ar
    29    16    17   ar
    30    17    18   ar
    31     8    11    1
    32    11    12    1
    33    26    27    1
    34    27    19    1
    35    32    28   ar
    36    27    23    1
    37    12     5    1
    38    18    13   ar
@<TRIPOS>MOLECULE
*****
 34 38 0 0 0
SMALL
GASTEIGER

@<TRIPOS>ATOM
      1 C           6.3450    1.8399   33.8177 C.2     1  UNL1        0.2470
      2 O           6.8980    3.2121   33.5703 O.2     1  UNL1       -0.2820
      3 C           6.6784    0.7168   32.8809 C.2     1  UNL1        0.2880
      4 O           7.9421   -0.0685   33.0714 O.2     1  UNL1       -0.2664
      5 N           5.7482    0.3792   31.7537 N.am    1  UNL1       -0.2700
      6 C           4.4845    1.1646   31.5632 C.3     1  UNL1        0.1153
      7 C           3.5542    0.8268   30.4360 C.3     1  UNL1        0.1152
      8 N           3.8877   -0.2963   29.4992 N.am    1  UNL1       -0.2726
      9 C           2.9575   -0.6340   28.3720 C.2     1  UNL1        0.2491
     10 O           3.2910   -1.7571   27.4353 O.2     1  UNL1       -0.2699
     11 C           5.1514   -1.0816   29.6897 C.3     1  UNL1        0.1152
     12 C           6.0816   -0.7439   30.8169 C.3     1  UNL1        0.1153
     13 C           1.6938    0.1514   28.1816 C.ar    1  UNL1        0.0536
     14 C           0.4445   -0.2502   28.9081 C.ar    1  UNL1        0.0045
     15 C          -0.8193    0.5352   28.7176 C.ar    1  UNL1        0.0001
     16 C          -0.8336    1.7222   27.8006 C.ar    1  UNL1        0.0000
     17 C           0.4157    2.1237   27.0741 C.ar    1  UNL1        0.0001
     18 C           1.6794    1.3384   27.2646 C.ar    1  UNL1        0.0045
     19 C           3.5418    3.5257   34.6958 C.2     1  UNL1        0.1448
     20 C           2.2915    4.1004   35.2928 C.2     1  UNL1        0.1335
     21 N           1.7216    3.5126   36.5496 N.2     1  UNL1       -0.2211
     22 C           2.4020    2.3499   37.2095 C.2     1  UNL1        0.1799
     23 C           3.6523    1.7752   36.6125 C.2     1  UNL1        0.1058
     24 N           4.5363    0.6396   37.0354 N.2     1  UNL1       -0.2445
     25 C           5.6526    0.5256   36.0399 C.2     1  UNL1        0.0984
     26 C           5.4585    1.5908   35.0017 C.2     1  UNL1        0.0531
     27 C           4.2222    2.3631   35.3556 C.3     1  UNL1        0.1284
     28 N           1.8321    1.7621   38.4663 N.ar    1  UNL1       -0.1889
     29 C           1.2333    2.5309   39.6067 C.ar    1  UNL1        0.2031
     30 N           0.7920    1.5461   40.6486 N.ar    1  UNL1       -0.2004
     31 C           1.1181    0.1687   40.1521 C.ar    1  UNL1        0.2214
     32 N           1.7608    0.3022   38.8034 N.ar    1  UNL1       -0.1395
     33 C           4.2609    5.6003   33.3069 C.3     1  UNL1        0.2521
     34 O           4.1117    4.1136   33.4390 O.2     1  UNL1       -0.4734
@<TRIPOS>BOND
     1    33    34    1
     2    34    19    1
     3    19    20    2
     4    20    21    1
     5    21    22    2
     6    22    28    1
     7    28    29   ar
     8    29    30   ar
     9    30    31   ar
    10    31    32   ar
    11    22    23    1
    12    23    24    2
    13    24    25    1
    14    25    26    2
    15    26     1    1
    16     1     2    2
    17     1     3    1
    18     3     4    2
    19     3     5   am
    20     5     6    1
    21     6     7    1
    22     7     8    1
    23     8     9   am
    24     9    10    2
    25     9    13    1
    26    13    14   ar
    27    14    15   ar
    28    15    16   ar
    29    16    17   ar
    30    17    18   ar
    31     8    11    1
    32    11    12    1
    33    26    27    1
    34    27    19    1
    35    32    28   ar
    36    27    23    1
    37    12     5    1
    38    18    13   ar
@<TRIPOS>MOLECULE
*****
 34 38 0 0 0
SMALL
GASTEIGER

@<TRIPOS>ATOM
      1 C           2.1133   -0.2358   20.7601 C.2     1  UNL1        0.2470
      2 O           0.9344   -0.8937   20.1065 O.2     1  UNL1       -0.2820
      3 C           2.3603    1.2302   20.5601 C.2     1  UNL1        0.2880
      4 O           3.4667    1.6879   19.6566 O.2     1  UNL1       -0.2664
      5 N           1.5009    2.2384   21.2635 N.am    1  UNL1       -0.2700
      6 C           0.3944    1.7807   22.1670 C.3     1  UNL1        0.1153
      7 C          -0.4650    2.7890   22.8704 C.3     1  UNL1        0.1152
      8 N          -0.2180    4.2549   22.6704 N.am    1  UNL1       -0.2726
      9 C          -1.0774    5.2632   23.3738 C.2     1  UNL1        0.2491
     10 O          -0.8304    6.7291   23.1738 O.2     1  UNL1       -0.2699
     11 C           0.8884    4.7126   21.7669 C.3     1  UNL1        0.1152
     12 C           1.7478    3.7043   21.0635 C.3     1  UNL1        0.1153
     13 C          -2.1838    4.8055   24.2773 C.ar    1  UNL1        0.0536
     14 C          -1.9117    4.5614   25.7321 C.ar    1  UNL1        0.0045
     15 C          -3.0182    4.1037   26.6356 C.ar    1  UNL1        0.0001
     16 C          -4.3968    3.8901   26.0843 C.ar    1  UNL1        0.0000
     17 C          -4.6689    4.1342   24.6296 C.ar    1  UNL1        0.0001
     18 C          -3.5625    4.5919   23.7261 C.ar    1  UNL1        0.0045
     19 C           4.3389   -2.5799   19.7490 C.2     1  UNL1        0.1448
     20 C           5.3832   -3.6406   19.5639 C.2     1  UNL1        0.1335
     21 N           6.1069   -4.1964   20.7543 N.2     1  UNL1       -0.2211
     22 C           5.7863   -3.6916   22.1300 C.2     1  UNL1        0.1799
     23 C           4.7420   -2.6310   22.3151 C.2     1  UNL1        0.1058
     24 N           4.2162   -1.9432   23.5401 N.2     1  UNL1       -0.2445
     25 C           3.1675   -0.9622   23.1066 C.2     1  UNL1        0.0984
     26 C           3.0451   -1.0437   21.6138 C.2     1  UNL1        0.0531
     27 C           4.0183   -2.0751   21.1247 C.3     1  UNL1        0.1284
     28 N           6.5101   -4.2476   23.3205 N.ar    1  UNL1       -0.1889
     29 C           6.4631   -3.6995   24.7160 C.ar    1  UNL1        0.2031
     30 N           7.3320   -4.5624   25.5823 N.ar    1  UNL1       -0.2004
     31 C           7.9159   -5.6437   24.7222 C.ar    1  UNL1        0.2214
     32 N           7.4080   -5.4491   23.3243 N.ar    1  UNL1       -0.1395
     33 C           4.3074   -1.0573   17.6441 C.3     1  UNL1        0.2521
     34 O           3.6151   -2.0241   18.5586 O.2     1  UNL1       -0.4734
@<TRIPOS>BOND
     1    33    34    1
     2    34    19    1
     3    19    20    2
     4    20    21    1
     5    21    22    2
     6    22    28    1
     7    28    29   ar
     8    29    30   ar
     9    30    31   ar
    10    31    32   ar
    11    22    23    1
    12    23    24    2
    13    24    25    1
    14    25    26    2
    15    26     1    1
    16     1     2    2
    17     1     3    1
    18     3     4    2
    19     3     5   am
    20     5     6    1
    21     6     7    1
    22     7     8    1
    23     8     9   am
    24     9    10    2
    25     9    13    1
    26    13    14   ar
    27    14    15   ar
    28    15    16   ar
    29    16    17   ar
    30    17    18   ar
    31     8    11    1
    32    11    12    1
    33    26    27    1
    34    27    19    1
    35    32    28   ar
    36    27    23    1
    37    12     5    1
    38    18    13   ar
@<TRIPOS>MOLECULE
*****
 34 38 0 0 0
SMALL
GASTEIGER

@<TRIPOS>ATOM
      1 C           6.8376   -1.2351   26.0391 C.2     1  UNL1        0.2470
      2 O           8.1467   -0.5058   25.9726 O.2     1  UNL1       -0.2820
      3 C           6.6563   -2.5205   25.2874 C.2     1  UNL1        0.2880
      4 O           7.2644   -3.7878   25.8111 O.2     1  UNL1       -0.2664
      5 N           5.8669   -2.5386   24.0122 N.am    1  UNL1       -0.2700
      6 C           5.2587   -1.2713   23.4884 C.3     1  UNL1        0.1153
      7 C           4.4693   -1.2894   22.2131 C.3     1  UNL1        0.1152
      8 N           4.2879   -2.5748   21.4615 N.am    1  UNL1       -0.2726
      9 C           3.4984   -2.5929   20.1862 C.2     1  UNL1        0.2491
     10 O           3.3171   -3.8783   19.4346 O.2     1  UNL1       -0.2699
     11 C           4.8960   -3.8420   21.9852 C.3     1  UNL1        0.1152
     12 C           5.6854   -3.8239   23.2605 C.3     1  UNL1        0.1153
     13 C           2.8904   -1.3257   19.6625 C.ar    1  UNL1        0.0536
     14 C           3.6543   -0.4712   18.6948 C.ar    1  UNL1        0.0045
     15 C           3.0461    0.7961   18.1711 C.ar    1  UNL1        0.0001
     16 C           1.6741    1.2089   18.6151 C.ar    1  UNL1        0.0000
     17 C           0.9102    0.3545   19.5828 C.ar    1  UNL1        0.0001
     18 C           1.5183   -0.9127   20.1064 C.ar    1  UNL1        0.0045
     19 C           6.1905   -1.7870   29.3174 C.2     1  UNL1        0.1448
     20 C           5.6927   -1.8677   30.7301 C.2     1  UNL1        0.1335
     21 N           4.4632   -1.1109   31.1364 N.2     1  UNL1       -0.2211
     22 C           3.7312   -0.2732   30.1300 C.2     1  UNL1        0.1799
     23 C           4.2289   -0.1926   28.7173 C.2     1  UNL1        0.1058
     24 N           3.7204    0.5455   27.5146 N.2     1  UNL1       -0.2445
     25 C           4.6357    0.2448   26.3650 C.2     1  UNL1        0.0984
     26 C           5.7100   -0.6791   26.8571 C.2     1  UNL1        0.0531
     27 C           5.4586   -0.9495   28.3110 C.3     1  UNL1        0.1284
     28 N           2.5015    0.4836   30.5364 N.ar    1  UNL1       -0.1889
     29 C           1.1652    0.4244   29.8577 C.ar    1  UNL1        0.2031
     30 N           0.2301    1.3368   30.5948 N.ar    1  UNL1       -0.2004
     31 C           0.9886    1.9599   31.7290 C.ar    1  UNL1        0.2214
     32 N           2.3924    1.4326   31.6929 N.ar    1  UNL1       -0.1395
     33 C           7.5371   -4.0068   29.2213 C.3     1  UNL1        0.2521
     34 O           7.4201   -2.5439   28.9110 O.2     1  UNL1       -0.4734
@<TRIPOS>BOND
     1    33    34    1
     2    34    19    1
     3    19    20    2
     4    20    21    1
     5    21    22    2
     6    22    28    1
     7    28    29   ar
     8    29    30   ar
     9    30    31   ar
    10    31    32   ar
    11    22    23    1
    12    23    24    2
    13    24    25    1
    14    25    26    2
    15    26     1    1
    16     1     2    2
    17     1     3    1
    18     3     4    2
    19     3     5   am
    20     5     6    1
    21     6     7    1
    22     7     8    1
    23     8     9   am
    24     9    10    2
    25     9    13    1
    26    13    14   ar
    27    14    15   ar
    28    15    16   ar
    29    16    17   ar
    30    17    18   ar
    31     8    11    1
    32    11    12    1
    33    26    27    1
    34    27    19    1
    35    32    28   ar
    36    27    23    1
    37    12     5    1
    38    18    13   ar
@<TRIPOS>MOLECULE
*****
 34 38 0 0 0
SMALL
GASTEIGER

@<TRIPOS>ATOM
      1 C           1.6191    3.0482   23.0712 C.2     1  UNL1        0.2470
      2 O           2.2382    4.4142   23.0995 O.2     1  UNL1       -0.2820
      3 C           0.3363    2.7908   23.8047 C.2     1  UNL1        0.2880
      4 O          -0.9779    2.9839   23.1079 O.2     1  UNL1       -0.2664
      5 N           0.3677    2.3404   25.2351 N.am    1  UNL1       -0.2700
      6 C           1.6820    2.1473   25.9320 C.3     1  UNL1        0.1153
      7 C           1.7133    1.6968   27.3624 C.3     1  UNL1        0.1152
      8 N           0.4305    1.4394   28.0960 N.am    1  UNL1       -0.2726
      9 C           0.4619    0.9890   29.5264 C.2     1  UNL1        0.2491
     10 O          -0.8210    0.7316   30.2600 O.2     1  UNL1       -0.2699
     11 C          -0.8837    1.6325   27.3992 C.3     1  UNL1        0.1152
     12 C          -0.9151    2.0830   25.9687 C.3     1  UNL1        0.1153
     13 C           1.7760    0.7959   30.2232 C.ar    1  UNL1        0.0536
     14 C           2.4023    1.9348   30.9721 C.ar    1  UNL1        0.0045
     15 C           3.7166    1.7417   31.6689 C.ar    1  UNL1        0.0001
     16 C           4.4045    0.4098   31.6169 C.ar    1  UNL1        0.0000
     17 C           3.7783   -0.7290   30.8681 C.ar    1  UNL1        0.0001
     18 C           2.4641   -0.5360   30.1713 C.ar    1  UNL1        0.0045
     19 C           1.0419    2.1013   19.8710 C.2     1  UNL1        0.1448
     20 C           0.9762    1.4956   18.5003 C.2     1  UNL1        0.1335
     21 N           1.8656    0.3406   18.1473 N.2     1  UNL1       -0.2211
     22 C           2.8209   -0.2089   19.1650 C.2     1  UNL1        0.1799
     23 C           2.8866    0.3968   20.5357 C.2     1  UNL1        0.1058
     24 N           3.7221    0.0707   21.7381 N.2     1  UNL1       -0.2445
     25 C           3.3489    1.0242   22.8342 C.2     1  UNL1        0.0984
     26 C           2.2829    1.9397   22.3093 C.2     1  UNL1        0.0531
     27 C           1.9971    1.5519   20.8887 C.3     1  UNL1        0.1284
     28 N           3.7104   -1.3640   18.8119 N.ar    1  UNL1       -0.1889
     29 C           4.8413   -1.3371   17.8269 C.ar    1  UNL1        0.2031
     30 N           5.4549   -2.7053   17.7881 N.ar    1  UNL1       -0.2004
     31 C           4.7031   -3.5778   18.7492 C.ar    1  UNL1        0.2214
     32 N           3.6249   -2.7489   19.3819 N.ar    1  UNL1       -0.1395
     33 C           0.5609    4.6544   19.8654 C.3     1  UNL1        0.2521
     34 O           0.1525    3.2564   20.2240 O.2     1  UNL1       -0.4734
@<TRIPOS>BOND
     1    33    34    1
     2    34    19    1
     3    19    20    2
     4    20    21    1
     5    21    22    2
     6    22    28    1
     7    28    29   ar
     8    29    30   ar
     9    30    31   ar
    10    31    32   ar
    11    22    23    1
    12    23    24    2
    13    24    25    1
    14    25    26    2
    15    26     1    1
    16     1     2    2
    17     1     3    1
    18     3     4    2
    19     3     5   am
    20     5     6    1
    21     6     7    1
    22     7     8    1
    23     8     9   am
    24     9    10    2
    25     9    13    1
    26    13    14   ar
    27    14    15   ar
    28    15    16   ar
    29    16    17   ar
    30    17    18   ar
    31     8    11    1
    32    11    12    1
    33    26    27    1
    34    27    19    1
    35    32    28   ar
    36    27    23    1
    37    12     5    1
    38    18    13   ar
