@<TRIPOS>MOLECULE
*****
 40 42 0 0 0
SMALL
GASTEIGER

@<TRIPOS>ATOM
      1 C           2.9636   -1.3047   20.9574 C.3     1  UNL1        0.0577
      2 C           1.8531   -1.2468   19.9507 C.3     1  UNL1        0.0177
      3 C           0.8400   -0.1425   20.0143 C.3     1  UNL1        0.0210
      4 C           0.9374    0.9040   21.0846 C.3     1  UNL1        0.0734
      5 C           2.0479    0.8461   22.0912 C.3     1  UNL1        0.0433
      6 C           3.0610   -0.2582   22.0276 C.3     1  UNL1        0.0194
      7 N          -0.0757    2.0083   21.1482 N.am    1  UNL1       -0.3045
      8 C           0.1858    3.3074   20.4453 C.2     1  UNL1        0.2425
      9 O           1.4604    3.5022   19.6788 O.2     1  UNL1       -0.2733
     10 H          -0.9123    1.8805   21.6512 H       1  UNL1        0.1494
     11 C          -0.8274    4.4117   20.5089 C.3     1  UNL1        0.1759
     12 N          -1.6630    4.5929   21.7414 N.am    1  UNL1       -0.2931
     13 C          -2.8631    3.7221   21.9685 C.2     1  UNL1        0.2462
     14 O          -3.2275    2.6702   20.9631 O.2     1  UNL1       -0.2701
     15 H          -1.4238    5.2832   22.4013 H       1  UNL1        0.1502
     16 C          -3.6987    3.9032   23.2009 C.ar    1  UNL1        0.0533
     17 C          -3.0828    3.7269   24.5572 C.ar    1  UNL1        0.0045
     18 C          -3.9185    3.9080   25.7897 C.ar    1  UNL1        0.0001
     19 C          -5.3700    4.2653   25.6658 C.ar    1  UNL1        0.0039
     20 C          -5.9859    4.4416   24.3094 C.ar    1  UNL1        0.0716
     21 C          -5.1503    4.2605   23.0770 C.ar    1  UNL1        0.0084
     22 C          -7.4374    4.7990   24.1855 C.3     1  UNL1        0.4186
     23 F          -8.8890    5.1563   24.0617 F       1  UNL1       -0.1659
     24 F          -7.3331    5.6497   25.4165 F       1  UNL1       -0.1659
     25 F          -7.5418    3.9482   22.9546 F       1  UNL1       -0.1659
     26 N           3.9767   -2.4090   20.8938 N.3     1  UNL1       -0.2741
     27 C           4.7496   -2.7894   22.1217 C.3     1  UNL1        0.0896
     28 C           5.0911   -2.5187   18.5494 C.3     1  UNL1        0.0173
     29 C           4.2169   -3.1330   19.6022 C.3     1  UNL1        0.0576
     30 C           3.5829   -4.4713   19.3634 C.3     1  UNL1        0.0173
     31 C           2.1454    1.8926   23.1615 C.3     1  UNL1        0.1576
     32 S           1.6009    1.6170   24.5317 S.O2    1  UNL1        0.0087
     33 O           0.2087    1.8537   24.0260 O.2     1  UNL1       -0.1686
     34 O           2.9931    1.3803   25.0373 O.2     1  UNL1       -0.1686
     35 C           1.0563    1.3414   25.9019 C.ar    1  UNL1        0.1057
     36 C          -0.3843    1.6261   26.2076 C.ar    1  UNL1        0.0183
     37 C          -0.9289    1.3505   27.5778 C.ar    1  UNL1        0.0013
     38 C          -0.0329    0.7902   28.6423 C.ar    1  UNL1        0.0001
     39 C           1.4078    0.5056   28.3366 C.ar    1  UNL1        0.0013
     40 C           1.9524    0.7811   26.9664 C.ar    1  UNL1        0.0183
@<TRIPOS>BOND
     1    28    29    1
     2    29    30    1
     3    29    26    1
     4    26    27    1
     5     1    26    1
     6     1     2    1
     7     2     3    1
     8     3     4    1
     9     4     7    1
    10     7     8   am
    11     8     9    2
    12     8    11    1
    13    11    12    1
    14    12    13   am
    15    13    14    2
    16    13    16    1
    17    16    17   ar
    18    17    18   ar
    19    18    19   ar
    20    19    20   ar
    21    20    22    1
    22    22    23    1
    23    22    24    1
    24    22    25    1
    25    20    21   ar
    26     4     5    1
    27     5    31    1
    28    31    32    1
    29    32    33    2
    30    32    34    2
    31    32    35    1
    32    35    36   ar
    33    36    37   ar
    34    37    38   ar
    35    38    39   ar
    36    39    40   ar
    37     5     6    1
    38     6     1    1
    39    21    16   ar
    40    40    35   ar
    41     7    10    1
    42    12    15    1
@<TRIPOS>MOLECULE
*****
 40 42 0 0 0
SMALL
GASTEIGER

@<TRIPOS>ATOM
      1 C           0.8535    2.4837   27.4237 C.3     1  UNL1        0.0577
      2 C          -0.4741    2.1098   26.8342 C.3     1  UNL1        0.0177
      3 C          -0.5891    1.8231   25.3664 C.3     1  UNL1        0.0210
      4 C           0.6236    1.9104   24.4879 C.3     1  UNL1        0.0734
      5 C           1.9513    2.2844   25.0773 C.3     1  UNL1        0.0433
      6 C           2.0662    2.5710   26.5452 C.3     1  UNL1        0.0194
      7 N           0.5086    1.6238   23.0201 N.am    1  UNL1       -0.3045
      8 C           0.1185    2.7176   22.0706 C.2     1  UNL1        0.2425
      9 O          -0.1566    4.0981   22.5890 O.2     1  UNL1       -0.2733
     10 H           0.6892    0.7178   22.6798 H       1  UNL1        0.1494
     11 C           0.0036    2.4310   20.6028 C.3     1  UNL1        0.1759
     12 N           1.1511    1.8023   19.8692 N.am    1  UNL1       -0.2931
     13 C           1.3465    0.3158   19.9150 C.2     1  UNL1        0.2462
     14 O           0.3943   -0.5421   20.6944 O.2     1  UNL1       -0.2701
     15 H           1.7761    2.3654   19.3577 H       1  UNL1        0.1502
     16 C           2.4940   -0.3128   19.1815 C.ar    1  UNL1        0.0533
     17 C           3.3600    0.5230   18.2863 C.ar    1  UNL1        0.0045
     18 C           4.5076   -0.1057   17.5528 C.ar    1  UNL1        0.0001
     19 C           4.7890   -1.5701   17.7145 C.ar    1  UNL1        0.0039
     20 C           3.9229   -2.4059   18.6097 C.ar    1  UNL1        0.0716
     21 C           2.7754   -1.7773   19.3432 C.ar    1  UNL1        0.0084
     22 C           4.2043   -3.8704   18.7714 C.3     1  UNL1        0.4186
     23 F           4.4858   -5.3349   18.9331 F       1  UNL1       -0.1659
     24 F           5.6218   -3.6461   18.3350 F       1  UNL1       -0.1659
     25 F           2.7869   -4.0946   19.2078 F       1  UNL1       -0.1659
     26 N           0.9685    2.7703   28.8915 N.3     1  UNL1       -0.2741
     27 C           1.1439    4.1815   29.3686 C.3     1  UNL1        0.0896
     28 C           0.5783    1.9280   31.3181 C.3     1  UNL1        0.0173
     29 C           0.9081    1.6457   29.8823 C.3     1  UNL1        0.0576
     30 C           1.1774    0.2388   29.4372 C.3     1  UNL1        0.0173
     31 C           3.1640    2.3717   24.1989 C.3     1  UNL1        0.1576
     32 S           3.7391    1.1281   23.5884 S.O2    1  UNL1        0.0087
     33 O           4.0731    0.6111   24.9563 O.2     1  UNL1       -0.1686
     34 O           3.4051    1.6451   22.2206 O.2     1  UNL1       -0.1686
     35 C           4.3141   -0.1156   22.9780 C.ar    1  UNL1        0.1057
     36 C           3.7479   -1.4577   23.3360 C.ar    1  UNL1        0.0183
     37 C           4.3229   -2.7014   22.7256 C.ar    1  UNL1        0.0013
     38 C           5.4642   -2.6030   21.7573 C.ar    1  UNL1        0.0001
     39 C           6.0305   -1.2609   21.3993 C.ar    1  UNL1        0.0013
     40 C           5.4554   -0.0172   22.0097 C.ar    1  UNL1        0.0183
@<TRIPOS>BOND
     1    28    29    1
     2    29    30    1
     3    29    26    1
     4    26    27    1
     5     1    26    1
     6     1     2    1
     7     2     3    1
     8     3     4    1
     9     4     7    1
    10     7     8   am
    11     8     9    2
    12     8    11    1
    13    11    12    1
    14    12    13   am
    15    13    14    2
    16    13    16    1
    17    16    17   ar
    18    17    18   ar
    19    18    19   ar
    20    19    20   ar
    21    20    22    1
    22    22    23    1
    23    22    24    1
    24    22    25    1
    25    20    21   ar
    26     4     5    1
    27     5    31    1
    28    31    32    1
    29    32    33    2
    30    32    34    2
    31    32    35    1
    32    35    36   ar
    33    36    37   ar
    34    37    38   ar
    35    38    39   ar
    36    39    40   ar
    37     5     6    1
    38     6     1    1
    39    21    16   ar
    40    40    35   ar
    41     7    10    1
    42    12    15    1
@<TRIPOS>MOLECULE
*****
 40 42 0 0 0
SMALL
GASTEIGER

@<TRIPOS>ATOM
      1 C           4.0544   -1.4165   19.1006 C.3     1  UNL1        0.0577
      2 C           4.4385   -0.3546   18.1133 C.3     1  UNL1        0.0177
      3 C           3.5362    0.8225   17.8889 C.3     1  UNL1        0.0210
      4 C           2.2498    0.9376   18.6517 C.3     1  UNL1        0.0734
      5 C           1.8657   -0.1243   19.6390 C.3     1  UNL1        0.0433
      6 C           2.7680   -1.3013   19.8634 C.3     1  UNL1        0.0194
      7 N           1.3475    2.1147   18.4272 N.am    1  UNL1       -0.3045
      8 C           1.6805    3.4426   19.0402 C.2     1  UNL1        0.2425
      9 O           2.9158    3.5935   19.8778 O.2     1  UNL1       -0.2733
     10 H           0.5368    2.0157   17.8776 H       1  UNL1        0.1494
     11 C           0.7782    4.6197   18.8158 C.3     1  UNL1        0.1759
     12 N          -0.6374    4.5847   19.3107 N.am    1  UNL1       -0.2931
     13 C          -1.7177    3.9964   18.4523 C.2     1  UNL1        0.2462
     14 O          -1.3824    3.4431   17.0989 O.2     1  UNL1       -0.2701
     15 H          -0.8575    4.9478   20.1989 H       1  UNL1        0.1502
     16 C          -3.1333    3.9613   18.9471 C.ar    1  UNL1        0.0533
     17 C          -4.2687    4.1562   17.9865 C.ar    1  UNL1        0.0045
     18 C          -5.6843    4.1212   18.4814 C.ar    1  UNL1        0.0001
     19 C          -5.9644    3.8913   19.9369 C.ar    1  UNL1        0.0039
     20 C          -4.8290    3.6964   20.8976 C.ar    1  UNL1        0.0716
     21 C          -3.4135    3.7314   20.4027 C.ar    1  UNL1        0.0084
     22 C          -5.1092    3.4664   22.3531 C.3     1  UNL1        0.4186
     23 F          -5.3894    3.2365   23.8087 F       1  UNL1       -0.1659
     24 F          -6.5728    3.6819   22.1054 F       1  UNL1       -0.1659
     25 F          -3.6456    3.2509   22.6008 F       1  UNL1       -0.1659
     26 N           4.9567   -2.5936   19.3250 N.3     1  UNL1       -0.2741
     27 C           6.3368   -2.6034   18.7376 C.3     1  UNL1        0.0896
     28 C           3.7406   -4.8847   19.4723 C.3     1  UNL1        0.0173
     29 C           4.4789   -3.7608   20.1370 C.3     1  UNL1        0.0576
     30 C           4.7394   -3.8041   21.6136 C.3     1  UNL1        0.0173
     31 C           0.5793   -0.0092   20.4018 C.3     1  UNL1        0.1576
     32 S           0.4641    0.9667   21.5351 S.O2    1  UNL1        0.0087
     33 O          -0.6810    1.6403   20.8387 O.2     1  UNL1       -0.1686
     34 O           1.6092    0.2932   22.2315 O.2     1  UNL1       -0.1686
     35 C           0.3489    1.9427   22.6684 C.ar    1  UNL1        0.1057
     36 C           0.5128    1.4720   24.0831 C.ar    1  UNL1        0.0183
     37 C           0.3976    2.4479   25.2164 C.ar    1  UNL1        0.0013
     38 C           0.1185    3.8945   24.9349 C.ar    1  UNL1        0.0001
     39 C          -0.0454    4.3653   23.5201 C.ar    1  UNL1        0.0013
     40 C           0.0698    3.3894   22.3869 C.ar    1  UNL1        0.0183
@<TRIPOS>BOND
     1    28    29    1
     2    29    30    1
     3    29    26    1
     4    26    27    1
     5     1    26    1
     6     1     2    1
     7     2     3    1
     8     3     4    1
     9     4     7    1
    10     7     8   am
    11     8     9    2
    12     8    11    1
    13    11    12    1
    14    12    13   am
    15    13    14    2
    16    13    16    1
    17    16    17   ar
    18    17    18   ar
    19    18    19   ar
    20    19    20   ar
    21    20    22    1
    22    22    23    1
    23    22    24    1
    24    22    25    1
    25    20    21   ar
    26     4     5    1
    27     5    31    1
    28    31    32    1
    29    32    33    2
    30    32    34    2
    31    32    35    1
    32    35    36   ar
    33    36    37   ar
    34    37    38   ar
    35    38    39   ar
    36    39    40   ar
    37     5     6    1
    38     6     1    1
    39    21    16   ar
    40    40    35   ar
    41     7    10    1
    42    12    15    1
@<TRIPOS>MOLECULE
*****
 40 42 0 0 0
SMALL
GASTEIGER

@<TRIPOS>ATOM
      1 C           6.3218   -1.6171   31.5373 C.3     1  UNL1        0.0577
      2 C           6.6843   -3.0580   31.3309 C.3     1  UNL1        0.0177
      3 C           6.4972   -3.6931   29.9850 C.3     1  UNL1        0.0210
      4 C           5.9477   -2.8874   28.8453 C.3     1  UNL1        0.0734
      5 C           5.5853   -1.4466   29.0516 C.3     1  UNL1        0.0433
      6 C           5.7723   -0.8114   30.3976 C.3     1  UNL1        0.0194
      7 N           5.7607   -3.5225   27.4994 N.am    1  UNL1       -0.3045
      8 C           6.8954   -3.5499   26.5188 C.2     1  UNL1        0.2425
      9 O           8.2173   -2.9421   26.8841 O.2     1  UNL1       -0.2733
     10 H           4.8932   -3.9214   27.2596 H       1  UNL1        0.1494
     11 C           6.7084   -4.1850   25.1728 C.3     1  UNL1        0.1759
     12 N           5.7357   -3.5963   24.1943 N.am    1  UNL1       -0.2931
     13 C           5.8949   -3.8616   22.7266 C.2     1  UNL1        0.2462
     14 O           7.0269   -4.7156   22.2373 O.2     1  UNL1       -0.2701
     15 H           4.9927   -3.0358   24.5155 H       1  UNL1        0.1502
     16 C           4.9223   -3.2729   21.7482 C.ar    1  UNL1        0.0533
     17 C           4.8191   -3.8365   20.3619 C.ar    1  UNL1        0.0045
     18 C           3.8464   -3.2477   19.3834 C.ar    1  UNL1        0.0001
     19 C           2.9770   -2.0955   19.7912 C.ar    1  UNL1        0.0039
     20 C           3.0802   -1.5319   21.1775 C.ar    1  UNL1        0.0716
     21 C           4.0528   -2.1206   22.1560 C.ar    1  UNL1        0.0084
     22 C           2.2108   -0.3797   21.5853 C.3     1  UNL1        0.4186
     23 F           1.3413    0.7727   21.9932 F       1  UNL1       -0.1659
     24 F           3.1959   -0.0154   22.6562 F       1  UNL1       -0.1659
     25 F           1.2257   -0.7439   20.5145 F       1  UNL1       -0.1659
     26 N           6.5089   -0.9820   32.8832 N.3     1  UNL1       -0.2741
     27 C           7.8725   -0.5326   33.3175 C.3     1  UNL1        0.0896
     28 C           5.1884    0.4705   34.5851 C.3     1  UNL1        0.0173
     29 C           5.3323   -0.7963   33.7949 C.3     1  UNL1        0.0576
     30 C           4.2997   -1.8775   33.9165 C.3     1  UNL1        0.0173
     31 C           5.0358   -0.6408   27.9120 C.3     1  UNL1        0.1576
     32 S           3.5864   -0.2548   27.8966 S.O2    1  UNL1        0.0087
     33 O           3.2162   -1.6597   27.5235 O.2     1  UNL1       -0.1686
     34 O           3.9565    1.1501   28.2696 O.2     1  UNL1       -0.1686
     35 C           2.1369    0.1311   27.8811 C.ar    1  UNL1        0.1057
     36 C           1.5972    0.9745   26.7643 C.ar    1  UNL1        0.0183
     37 C           0.1478    1.3605   26.7488 C.ar    1  UNL1        0.0013
     38 C          -0.7619    0.9030   27.8502 C.ar    1  UNL1        0.0001
     39 C          -0.2221    0.0596   28.9671 C.ar    1  UNL1        0.0013
     40 C           1.2272   -0.3263   28.9826 C.ar    1  UNL1        0.0183
@<TRIPOS>BOND
     1    28    29    1
     2    29    30    1
     3    29    26    1
     4    26    27    1
     5     1    26    1
     6     1     2    1
     7     2     3    1
     8     3     4    1
     9     4     7    1
    10     7     8   am
    11     8     9    2
    12     8    11    1
    13    11    12    1
    14    12    13   am
    15    13    14    2
    16    13    16    1
    17    16    17   ar
    18    17    18   ar
    19    18    19   ar
    20    19    20   ar
    21    20    22    1
    22    22    23    1
    23    22    24    1
    24    22    25    1
    25    20    21   ar
    26     4     5    1
    27     5    31    1
    28    31    32    1
    29    32    33    2
    30    32    34    2
    31    32    35    1
    32    35    36   ar
    33    36    37   ar
    34    37    38   ar
    35    38    39   ar
    36    39    40   ar
    37     5     6    1
    38     6     1    1
    39    21    16   ar
    40    40    35   ar
    41     7    10    1
    42    12    15    1
@<TRIPOS>MOLECULE
*****
 40 42 0 0 0
SMALL
GASTEIGER

@<TRIPOS>ATOM
      1 C           3.9003   -1.9424   21.2250 C.3     1  UNL1        0.0577
      2 C           4.0247   -1.4199   22.6255 C.3     1  UNL1        0.0177
      3 C           3.0367   -0.4164   23.1421 C.3     1  UNL1        0.0210
      4 C           1.9243    0.0646   22.2582 C.3     1  UNL1        0.0734
      5 C           1.7999   -0.4580   20.8578 C.3     1  UNL1        0.0433
      6 C           2.7879   -1.4615   20.3411 C.3     1  UNL1        0.0194
      7 N           0.9364    1.0681   22.7749 N.am    1  UNL1       -0.3045
      8 C           1.3270    2.5111   22.8965 C.2     1  UNL1        0.2425
      9 O           2.7058    2.9508   22.5016 O.2     1  UNL1       -0.2733
     10 H           0.0315    0.7795   23.0341 H       1  UNL1        0.1494
     11 C           0.3391    3.5146   23.4132 C.3     1  UNL1        0.1759
     12 N          -0.9901    3.6754   22.7366 N.am    1  UNL1       -0.2931
     13 C          -2.2556    3.5712   23.5352 C.2     1  UNL1        0.2462
     14 O          -2.1919    3.3062   25.0103 O.2     1  UNL1       -0.2701
     15 H          -1.0318    3.8494   21.7685 H       1  UNL1        0.1502
     16 C          -3.5846    3.7319   22.8587 C.ar    1  UNL1        0.0533
     17 C          -4.7962    4.0991   23.6633 C.ar    1  UNL1        0.0045
     18 C          -6.1253    4.2598   22.9868 C.ar    1  UNL1        0.0001
     19 C          -6.2429    4.0535   21.5058 C.ar    1  UNL1        0.0039
     20 C          -5.0313    3.6863   20.7012 C.ar    1  UNL1        0.0716
     21 C          -3.7023    3.5256   21.3776 C.ar    1  UNL1        0.0084
     22 C          -5.1489    3.4800   19.2201 C.3     1  UNL1        0.4186
     23 F          -5.2665    3.2736   17.7390 F       1  UNL1       -0.1659
     24 F          -6.6436    3.4512   19.3428 F       1  UNL1       -0.1659
     25 F          -3.6542    3.5087   19.0975 F       1  UNL1       -0.1659
     26 N           4.8883   -2.9459   20.7084 N.3     1  UNL1       -0.2741
     27 C           6.0732   -3.3304   21.5438 C.3     1  UNL1        0.0896
     28 C           5.3746   -2.9790   18.1565 C.3     1  UNL1        0.0173
     29 C           4.6913   -3.5649   19.3564 C.3     1  UNL1        0.0576
     30 C           3.8109   -4.7699   19.2042 C.3     1  UNL1        0.0173
     31 C           0.6875    0.0230   19.9738 C.3     1  UNL1        0.1576
     32 S           0.8062    1.3419   19.2694 S.O2    1  UNL1        0.0087
     33 O           1.8951    0.7814   18.4033 O.2     1  UNL1       -0.1686
     34 O          -0.2827    1.9024   20.1354 O.2     1  UNL1       -0.1686
     35 C           0.9248    2.6609   18.5649 C.ar    1  UNL1        0.1057
     36 C          -0.2754    3.2665   17.8996 C.ar    1  UNL1        0.0183
     37 C          -0.1568    4.5854   17.1951 C.ar    1  UNL1        0.0013
     38 C           1.1621    5.2988   17.1560 C.ar    1  UNL1        0.0001
     39 C           2.3624    4.6932   17.8213 C.ar    1  UNL1        0.0013
     40 C           2.2437    3.3743   18.5258 C.ar    1  UNL1        0.0183
@<TRIPOS>BOND
     1    28    29    1
     2    29    30    1
     3    29    26    1
     4    26    27    1
     5     1    26    1
     6     1     2    1
     7     2     3    1
     8     3     4    1
     9     4     7    1
    10     7     8   am
    11     8     9    2
    12     8    11    1
    13    11    12    1
    14    12    13   am
    15    13    14    2
    16    13    16    1
    17    16    17   ar
    18    17    18   ar
    19    18    19   ar
    20    19    20   ar
    21    20    22    1
    22    22    23    1
    23    22    24    1
    24    22    25    1
    25    20    21   ar
    26     4     5    1
    27     5    31    1
    28    31    32    1
    29    32    33    2
    30    32    34    2
    31    32    35    1
    32    35    36   ar
    33    36    37   ar
    34    37    38   ar
    35    38    39   ar
    36    39    40   ar
    37     5     6    1
    38     6     1    1
    39    21    16   ar
    40    40    35   ar
    41     7    10    1
    42    12    15    1
@<TRIPOS>MOLECULE
*****
 40 42 0 0 0
SMALL
GASTEIGER

@<TRIPOS>ATOM
      1 C           5.0447   -1.1463   30.0744 C.3     1  UNL1        0.0577
      2 C           5.7168   -1.6020   28.8133 C.3     1  UNL1        0.0177
      3 C           4.9990   -1.4961   27.5004 C.3     1  UNL1        0.0210
      4 C           3.6092   -0.9344   27.4487 C.3     1  UNL1        0.0734
      5 C           2.9371   -0.4787   28.7099 C.3     1  UNL1        0.0433
      6 C           3.6549   -0.5846   30.0227 C.3     1  UNL1        0.0194
      7 N           2.8914   -0.8285   26.1359 N.am    1  UNL1       -0.3045
      8 C           3.0399    0.4063   25.2974 C.2     1  UNL1        0.2425
      9 O           3.9062    1.5353   25.7717 O.2     1  UNL1       -0.2733
     10 H           2.3228   -1.5695   25.8245 H       1  UNL1        0.1494
     11 C           2.3221    0.5122   23.9845 C.3     1  UNL1        0.1759
     12 N           2.9728    0.0067   22.7311 N.am    1  UNL1       -0.2931
     13 C           2.2033   -0.0171   21.4437 C.2     1  UNL1        0.2462
     14 O           0.7831    0.4645   21.4098 O.2     1  UNL1       -0.2701
     15 H           3.9049   -0.3094   22.7534 H       1  UNL1        0.1502
     16 C           2.8540   -0.5226   20.1903 C.ar    1  UNL1        0.0533
     17 C           3.1228    0.4178   19.0530 C.ar    1  UNL1        0.0045
     18 C           3.7735   -0.0877   17.7996 C.ar    1  UNL1        0.0001
     19 C           4.1553   -1.5336   17.6834 C.ar    1  UNL1        0.0039
     20 C           3.8865   -2.4741   18.8206 C.ar    1  UNL1        0.0716
     21 C           3.2358   -1.9686   20.0741 C.ar    1  UNL1        0.0084
     22 C           4.2683   -3.9200   18.7045 C.3     1  UNL1        0.4186
     23 F           4.6501   -5.3660   18.5883 F       1  UNL1       -0.1659
     24 F           2.9019   -4.3188   19.1777 F       1  UNL1       -0.1659
     25 F           5.6346   -3.5211   18.2313 F       1  UNL1       -0.1659
     26 N           5.7625   -1.2522   31.3873 N.3     1  UNL1       -0.2741
     27 C           6.6389   -0.1286   31.8557 C.3     1  UNL1        0.0896
     28 C           6.5596   -3.6272   32.0755 C.3     1  UNL1        0.0173
     29 C           5.6039   -2.4817   32.2317 C.3     1  UNL1        0.0576
     30 C           4.4896   -2.5657   33.2324 C.3     1  UNL1        0.0173
     31 C           1.5471    0.0831   28.6582 C.3     1  UNL1        0.1576
     32 S           1.2174    1.3389   29.4092 S.O2    1  UNL1        0.0087
     33 O           2.1875    2.1029   28.5577 O.2     1  UNL1       -0.1686
     34 O           0.2472    0.5749   30.2607 O.2     1  UNL1       -0.1686
     35 C           0.8876    2.5949   30.1602 C.ar    1  UNL1        0.1057
     36 C           0.7676    2.5652   31.6551 C.ar    1  UNL1        0.0183
     37 C           0.4378    3.8210   32.4061 C.ar    1  UNL1        0.0013
     38 C           0.2281    5.1066   31.6622 C.ar    1  UNL1        0.0001
     39 C           0.3481    5.1362   30.1673 C.ar    1  UNL1        0.0013
     40 C           0.6778    3.8804   29.4163 C.ar    1  UNL1        0.0183
@<TRIPOS>BOND
     1    28    29    1
     2    29    30    1
     3    29    26    1
     4    26    27    1
     5     1    26    1
     6     1     2    1
     7     2     3    1
     8     3     4    1
     9     4     7    1
    10     7     8   am
    11     8     9    2
    12     8    11    1
    13    11    12    1
    14    12    13   am
    15    13    14    2
    16    13    16    1
    17    16    17   ar
    18    17    18   ar
    19    18    19   ar
    20    19    20   ar
    21    20    22    1
    22    22    23    1
    23    22    24    1
    24    22    25    1
    25    20    21   ar
    26     4     5    1
    27     5    31    1
    28    31    32    1
    29    32    33    2
    30    32    34    2
    31    32    35    1
    32    35    36   ar
    33    36    37   ar
    34    37    38   ar
    35    38    39   ar
    36    39    40   ar
    37     5     6    1
    38     6     1    1
    39    21    16   ar
    40    40    35   ar
    41     7    10    1
    42    12    15    1
@<TRIPOS>MOLECULE
*****
 40 42 0 0 0
SMALL
GASTEIGER

@<TRIPOS>ATOM
      1 C          -2.0409    3.3863   20.2740 C.3     1  UNL1        0.0577
      2 C          -1.7065    3.3507   21.7358 C.3     1  UNL1        0.0177
      3 C          -0.3097    3.0294   22.1780 C.3     1  UNL1        0.0210
      4 C           0.7528    2.7437   21.1585 C.3     1  UNL1        0.0734
      5 C           0.4184    2.7793   19.6967 C.3     1  UNL1        0.0433
      6 C          -0.9785    3.1006   19.2544 C.3     1  UNL1        0.0194
      7 N           2.1496    2.4224   21.6007 N.am    1  UNL1       -0.3045
      8 C           3.1272    3.5298   21.8613 C.2     1  UNL1        0.2425
      9 O           2.7080    4.9586   21.6797 O.2     1  UNL1       -0.2733
     10 H           2.4248    1.4847   21.7200 H       1  UNL1        0.1494
     11 C           4.5241    3.2085   22.3036 C.3     1  UNL1        0.1759
     12 N           5.4079    2.3593   21.4388 N.am    1  UNL1       -0.2931
     13 C           5.3437    0.8641   21.5404 C.2     1  UNL1        0.2462
     14 O           4.3956    0.2181   22.5068 O.2     1  UNL1       -0.2701
     15 H           6.0302    2.7833   20.8046 H       1  UNL1        0.1502
     16 C           6.2275    0.0150   20.6757 C.ar    1  UNL1        0.0533
     17 C           6.7910    0.5731   19.4026 C.ar    1  UNL1        0.0045
     18 C           7.6748   -0.2762   18.5378 C.ar    1  UNL1        0.0001
     19 C           7.9951   -1.6835   18.9463 C.ar    1  UNL1        0.0039
     20 C           7.4316   -2.2416   20.2195 C.ar    1  UNL1        0.0716
     21 C           6.5478   -1.3924   21.0842 C.ar    1  UNL1        0.0084
     22 C           7.7519   -3.6489   20.6279 C.3     1  UNL1        0.4186
     23 F           8.0721   -5.0563   21.0364 F       1  UNL1       -0.1659
     24 F           6.3720   -3.7978   21.1969 F       1  UNL1       -0.1659
     25 F           9.1317   -3.5000   20.0589 F       1  UNL1       -0.1659
     26 N          -3.4378    3.7076   19.8317 N.3     1  UNL1       -0.2741
     27 C          -4.6071    3.2689   20.6625 C.3     1  UNL1        0.0896
     28 C          -3.2487    5.9050   18.4586 C.3     1  UNL1        0.0173
     29 C          -3.6653    4.4675   18.5587 C.3     1  UNL1        0.0576
     30 C          -4.3094    3.7899   17.3856 C.3     1  UNL1        0.0173
     31 C           1.4809    2.4935   18.6771 C.3     1  UNL1        0.1576
     32 S           2.1760    1.1644   18.6705 S.O2    1  UNL1        0.0087
     33 O           0.8655    0.4803   18.4163 O.2     1  UNL1       -0.1686
     34 O           3.4865    1.8484   18.9246 O.2     1  UNL1       -0.1686
     35 C           2.8711   -0.1649   18.6639 C.ar    1  UNL1        0.1057
     36 C           3.8075   -0.5160   17.5459 C.ar    1  UNL1        0.0183
     37 C           4.5026   -1.8452   17.5393 C.ar    1  UNL1        0.0013
     38 C           4.2612   -2.8232   18.6506 C.ar    1  UNL1        0.0001
     39 C           3.3248   -2.4721   19.7686 C.ar    1  UNL1        0.0013
     40 C           2.6298   -1.1430   19.7752 C.ar    1  UNL1        0.0183
@<TRIPOS>BOND
     1    28    29    1
     2    29    30    1
     3    29    26    1
     4    26    27    1
     5     1    26    1
     6     1     2    1
     7     2     3    1
     8     3     4    1
     9     4     7    1
    10     7     8   am
    11     8     9    2
    12     8    11    1
    13    11    12    1
    14    12    13   am
    15    13    14    2
    16    13    16    1
    17    16    17   ar
    18    17    18   ar
    19    18    19   ar
    20    19    20   ar
    21    20    22    1
    22    22    23    1
    23    22    24    1
    24    22    25    1
    25    20    21   ar
    26     4     5    1
    27     5    31    1
    28    31    32    1
    29    32    33    2
    30    32    34    2
    31    32    35    1
    32    35    36   ar
    33    36    37   ar
    34    37    38   ar
    35    38    39   ar
    36    39    40   ar
    37     5     6    1
    38     6     1    1
    39    21    16   ar
    40    40    35   ar
    41     7    10    1
    42    12    15    1
@<TRIPOS>MOLECULE
*****
 40 42 0 0 0
SMALL
GASTEIGER

@<TRIPOS>ATOM
      1 C          -3.8274    3.9465   22.9273 C.3     1  UNL1        0.0577
      2 C          -4.2219    3.5648   21.5314 C.3     1  UNL1        0.0177
      3 C          -3.1667    3.3291   20.4917 C.3     1  UNL1        0.0210
      4 C          -1.7170    3.4751   20.8479 C.3     1  UNL1        0.0734
      5 C          -1.3225    3.8569   22.2438 C.3     1  UNL1        0.0433
      6 C          -2.3777    4.0926   23.2835 C.3     1  UNL1        0.0194
      7 N          -0.6618    3.2394   19.8082 N.am    1  UNL1       -0.3045
      8 C          -0.1253    1.8567   19.5841 C.2     1  UNL1        0.2425
      9 O          -0.6440    0.7096   20.3997 O.2     1  UNL1       -0.2733
     10 H          -0.3213    3.9923   19.2729 H       1  UNL1        0.1494
     11 C           0.9299    1.6210   18.5444 C.3     1  UNL1        0.1759
     12 N           1.7559    0.3696   18.5844 N.am    1  UNL1       -0.2931
     13 C           3.2483    0.4516   18.4574 C.2     1  UNL1        0.2462
     14 O           3.9146    1.7851   18.2902 O.2     1  UNL1       -0.2701
     15 H           1.3186   -0.5056   18.6941 H       1  UNL1        0.1502
     16 C           4.0744   -0.7998   18.4974 C.ar    1  UNL1        0.0533
     17 C           5.4642   -0.7994   17.9331 C.ar    1  UNL1        0.0045
     18 C           6.2902   -2.0509   17.9732 C.ar    1  UNL1        0.0001
     19 C           5.7265   -3.3026   18.5775 C.ar    1  UNL1        0.0039
     20 C           4.3366   -3.3030   19.1418 C.ar    1  UNL1        0.0716
     21 C           3.5106   -2.0516   19.1017 C.ar    1  UNL1        0.0084
     22 C           3.7729   -4.5547   19.7461 C.3     1  UNL1        0.4186
     23 F           3.2091   -5.8066   20.3504 F       1  UNL1       -0.1659
     24 F           4.8305   -4.5179   20.8091 F       1  UNL1       -0.1659
     25 F           2.7153   -4.5916   18.6830 F       1  UNL1       -0.1659
     26 N          -4.8826    4.1822   23.9670 N.3     1  UNL1       -0.2741
     27 C          -4.7275    3.5967   25.3393 C.3     1  UNL1        0.0896
     28 C          -6.0510    6.4954   23.7833 C.3     1  UNL1        0.0173
     29 C          -6.0930    5.0034   23.6345 C.3     1  UNL1        0.0576
     30 C          -7.3454    4.3326   23.1532 C.3     1  UNL1        0.0173
     31 C           0.1273    4.0030   22.6001 C.3     1  UNL1        0.1576
     32 S           0.9448    2.7891   22.9290 S.O2    1  UNL1        0.0087
     33 O           1.8898    3.1231   21.8131 O.2     1  UNL1       -0.1686
     34 O          -0.0002    2.4552   24.0450 O.2     1  UNL1       -0.1686
     35 C           1.7623    1.5752   23.2580 C.ar    1  UNL1        0.1057
     36 C           2.3227    0.7270   22.1550 C.ar    1  UNL1        0.0183
     37 C           3.1402   -0.4869   22.4839 C.ar    1  UNL1        0.0013
     38 C           3.3974   -0.8525   23.9157 C.ar    1  UNL1        0.0001
     39 C           2.8370   -0.0042   25.0187 C.ar    1  UNL1        0.0013
     40 C           2.0195    1.2096   24.6898 C.ar    1  UNL1        0.0183
@<TRIPOS>BOND
     1    28    29    1
     2    29    30    1
     3    29    26    1
     4    26    27    1
     5     1    26    1
     6     1     2    1
     7     2     3    1
     8     3     4    1
     9     4     7    1
    10     7     8   am
    11     8     9    2
    12     8    11    1
    13    11    12    1
    14    12    13   am
    15    13    14    2
    16    13    16    1
    17    16    17   ar
    18    17    18   ar
    19    18    19   ar
    20    19    20   ar
    21    20    22    1
    22    22    23    1
    23    22    24    1
    24    22    25    1
    25    20    21   ar
    26     4     5    1
    27     5    31    1
    28    31    32    1
    29    32    33    2
    30    32    34    2
    31    32    35    1
    32    35    36   ar
    33    36    37   ar
    34    37    38   ar
    35    38    39   ar
    36    39    40   ar
    37     5     6    1
    38     6     1    1
    39    21    16   ar
    40    40    35   ar
    41     7    10    1
    42    12    15    1
@<TRIPOS>MOLECULE
*****
 40 42 0 0 0
SMALL
GASTEIGER

@<TRIPOS>ATOM
      1 C          -1.0189    3.8761   26.4107 C.3     1  UNL1        0.0577
      2 C          -1.1666    2.4845   26.9505 C.3     1  UNL1        0.0177
      3 C          -0.3210    1.3736   26.4020 C.3     1  UNL1        0.0210
      4 C           0.6724    1.6543   25.3137 C.3     1  UNL1        0.0734
      5 C           0.8201    3.0460   24.7740 C.3     1  UNL1        0.0433
      6 C          -0.0255    4.1569   25.3225 C.3     1  UNL1        0.0194
      7 N           1.5180    0.5434   24.7653 N.am    1  UNL1       -0.3045
      8 C           2.8378    0.2214   25.4011 C.2     1  UNL1        0.2425
      9 O           3.3120    1.0103   26.5856 O.2     1  UNL1       -0.2733
     10 H           1.2067    0.0257   23.9879 H       1  UNL1        0.1494
     11 C           3.6834   -0.8895   24.8527 C.3     1  UNL1        0.1759
     12 N           3.5538   -1.2899   23.4129 N.am    1  UNL1       -0.2931
     13 C           4.6640   -0.9927   22.4490 C.2     1  UNL1        0.2462
     14 O           5.9038   -0.2951   22.9248 O.2     1  UNL1       -0.2701
     15 H           2.7402   -1.7478   23.1006 H       1  UNL1        0.1502
     16 C           4.5345   -1.3931   21.0092 C.ar    1  UNL1        0.0533
     17 C           3.9052   -2.7064   20.6497 C.ar    1  UNL1        0.0045
     18 C           3.7757   -3.1068   19.2099 C.ar    1  UNL1        0.0001
     19 C           4.2755   -2.1939   18.1297 C.ar    1  UNL1        0.0039
     20 C           4.9049   -0.8807   18.4892 C.ar    1  UNL1        0.0716
     21 C           5.0344   -0.4803   19.9290 C.ar    1  UNL1        0.0084
     22 C           5.4048    0.0322   17.4091 C.3     1  UNL1        0.4186
     23 F           5.9047    0.9451   16.3289 F       1  UNL1       -0.1659
     24 F           6.5362    0.4614   18.2954 F       1  UNL1       -0.1659
     25 F           4.2734   -0.3971   16.5228 F       1  UNL1       -0.1659
     26 N          -1.8645    4.9870   26.9592 N.3     1  UNL1       -0.2741
     27 C          -1.3204    5.8849   28.0305 C.3     1  UNL1        0.0896
     28 C          -3.5217    6.2878   25.4388 C.3     1  UNL1        0.0173
     29 C          -3.2542    5.2000   26.4364 C.3     1  UNL1        0.0576
     30 C          -4.3764    4.3252   26.9112 C.3     1  UNL1        0.0173
     31 C           1.8136    3.3268   23.6857 C.3     1  UNL1        0.1576
     32 S           1.7466    2.5663   22.3946 S.O2    1  UNL1        0.0087
     33 O           0.3905    3.1469   22.1229 O.2     1  UNL1       -0.1686
     34 O           3.1027    1.9857   22.6662 O.2     1  UNL1       -0.1686
     35 C           1.6796    1.8057   21.1033 C.ar    1  UNL1        0.1057
     36 C           2.1144    2.4588   19.8249 C.ar    1  UNL1        0.0183
     37 C           2.0474    1.6983   18.5337 C.ar    1  UNL1        0.0013
     38 C           1.5456    0.2848   18.5210 C.ar    1  UNL1        0.0001
     39 C           1.1108   -0.3682   19.7995 C.ar    1  UNL1        0.0013
     40 C           1.1778    0.3922   21.0907 C.ar    1  UNL1        0.0183
@<TRIPOS>BOND
     1    28    29    1
     2    29    30    1
     3    29    26    1
     4    26    27    1
     5     1    26    1
     6     1     2    1
     7     2     3    1
     8     3     4    1
     9     4     7    1
    10     7     8   am
    11     8     9    2
    12     8    11    1
    13    11    12    1
    14    12    13   am
    15    13    14    2
    16    13    16    1
    17    16    17   ar
    18    17    18   ar
    19    18    19   ar
    20    19    20   ar
    21    20    22    1
    22    22    23    1
    23    22    24    1
    24    22    25    1
    25    20    21   ar
    26     4     5    1
    27     5    31    1
    28    31    32    1
    29    32    33    2
    30    32    34    2
    31    32    35    1
    32    35    36   ar
    33    36    37   ar
    34    37    38   ar
    35    38    39   ar
    36    39    40   ar
    37     5     6    1
    38     6     1    1
    39    21    16   ar
    40    40    35   ar
    41     7    10    1
    42    12    15    1
