@<TRIPOS>MOLECULE
*****
 41 44 0 0 0
SMALL
GASTEIGER

@<TRIPOS>ATOM
      1 N          -1.5771    3.8321   24.4476 N.am    1  UNL1       -0.2439
      2 C          -1.7370    3.8258   22.9562 C.2     1  UNL1        0.2701
      3 O          -2.7751    4.6942   22.3095 O.2     1  UNL1       -0.2704
      4 C          -0.8588    2.9510   22.1115 C.3     1  UNL1        0.2199
      5 C          -1.6925    3.5930   21.0425 C.3     1  UNL1        0.0579
      6 O           0.1793    2.0826   22.7581 O.3     1  UNL1       -0.4686
      7 C           0.3393    2.0889   24.2496 C.ar    1  UNL1        0.1529
      8 C           1.3773    1.2206   24.8963 C.ar    1  UNL1        0.0382
      9 C           1.5373    1.2269   26.3877 C.ar    1  UNL1        0.0033
     10 C           0.6591    2.1017   27.2324 C.ar    1  UNL1        0.0053
     11 C          -0.3790    2.9701   26.5858 C.ar    1  UNL1        0.0181
     12 C          -0.5389    2.9637   25.0944 C.ar    1  UNL1        0.0885
     13 C           0.8191    2.1080   28.7239 C.ar    1  UNL1        0.0449
     14 C           1.9820    2.8187   29.3505 C.ar    1  UNL1        0.1293
     15 N           2.9849    3.5230   28.4856 N.pl3   1  UNL1       -0.3425
     16 N           2.1419    2.8250   30.8420 N.ar    1  UNL1       -0.1995
     17 C           1.1390    2.1207   31.7068 C.ar    1  UNL1        0.2145
     18 N           1.2989    2.1270   33.1982 N.pl3   1  UNL1       -0.3274
     19 N          -0.0240    1.4100   31.0802 N.ar    1  UNL1       -0.2183
     20 C          -0.1839    1.4037   29.5888 C.ar    1  UNL1        0.0645
     21 H           2.8799    3.5189   27.5067 H       1  UNL1        0.1437
     22 H           3.7482    3.9895   28.8969 H       1  UNL1        0.1437
     23 H           2.0621    2.5934   33.6095 H       1  UNL1        0.1452
     24 H           0.6406    1.6647   33.7658 H       1  UNL1        0.1452
     25 C          -1.3468    0.6930   28.9621 C.3     1  UNL1        0.0460
     26 C          -1.2993   -0.7931   28.7640 C.3     1  UNL1        0.0067
     27 C          -0.2702    2.2992   20.8955 C.ar    1  UNL1        0.0264
     28 C           0.2210    0.8836   20.9669 C.ar    1  UNL1        0.0293
     29 C           0.8097    0.2318   19.7508 C.ar    1  UNL1        0.1422
     30 F           1.3008   -1.1836   19.8222 F       1  UNL1       -0.2041
     31 C           0.9071    0.9956   18.4635 C.ar    1  UNL1        0.0592
     32 C           0.4159    2.4111   18.3922 C.ar    1  UNL1        0.1422
     33 F           0.5134    3.1748   17.1048 F       1  UNL1       -0.2041
     34 C          -0.1727    3.0628   19.6082 C.ar    1  UNL1        0.0293
     35 C          -2.4552    4.7069   25.2924 C.3     1  UNL1        0.1833
     36 N          -4.9006    4.7412   24.4154 N.am    1  UNL1       -0.3029
     37 C          -3.9046    4.3646   25.4719 C.2     1  UNL1        0.2431
     38 O          -4.3580    3.6457   26.7078 O.2     1  UNL1       -0.2732
     39 H          -4.6030    5.2130   23.6042 H       1  UNL1        0.1495
     40 C          -7.3020    4.5401   23.4443 C.3     1  UNL1        0.0230
     41 C          -6.3499    4.3989   24.5948 C.3     1  UNL1        0.0895
@<TRIPOS>BOND
     1    40    41    1
     2    41    36    1
     3    36    37   am
     4    37    38    2
     5    37    35    1
     6    35     1    1
     7     1     2   am
     8     2     3    2
     9     2     4    1
    10     4     5    1
    11     4    27    1
    12    27    28   ar
    13    28    29   ar
    14    29    30    1
    15    29    31   ar
    16    31    32   ar
    17    32    33    1
    18    32    34   ar
    19     4     6    1
    20     6     7    1
    21     7     8   ar
    22     8     9   ar
    23     9    10   ar
    24    10    13    1
    25    13    14   ar
    26    14    15    1
    27    14    16   ar
    28    16    17   ar
    29    17    18    1
    30    17    19   ar
    31    19    20   ar
    32    20    25    1
    33    25    26    1
    34    10    11   ar
    35    11    12   ar
    36    12     1    1
    37    34    27   ar
    38    12     7   ar
    39    20    13   ar
    40    36    39    1
    41    15    21    1
    42    15    22    1
    43    18    23    1
    44    18    24    1
@<TRIPOS>MOLECULE
*****
 41 44 0 0 0
SMALL
GASTEIGER

@<TRIPOS>ATOM
      1 N           3.2815   -0.1335   26.6612 N.am    1  UNL1       -0.2439
      2 C           2.5161    0.4953   25.5349 C.2     1  UNL1        0.2701
      3 O           1.4818    1.5427   25.8237 O.2     1  UNL1       -0.2704
      4 C           2.7849    0.0769   24.1198 C.3     1  UNL1        0.2199
      5 C           1.7149    1.1026   23.8893 C.3     1  UNL1        0.0579
      6 O           3.8191   -0.9705   23.8310 O.3     1  UNL1       -0.4686
      7 C           4.5845   -1.5994   24.9573 C.ar    1  UNL1        0.1529
      8 C           5.6187   -2.6467   24.6685 C.ar    1  UNL1        0.0382
      9 C           6.3841   -3.2756   25.7948 C.ar    1  UNL1        0.0033
     10 C           6.1153   -2.8571   27.2100 C.ar    1  UNL1        0.0053
     11 C           5.0811   -1.8098   27.4988 C.ar    1  UNL1        0.0181
     12 C           4.3157   -1.1809   26.3725 C.ar    1  UNL1        0.0885
     13 C           6.8808   -3.4861   28.3363 C.ar    1  UNL1        0.0449
     14 C           6.6456   -4.9241   28.6920 C.ar    1  UNL1        0.1293
     15 N           5.6450   -5.7334   27.9213 N.pl3   1  UNL1       -0.3425
     16 N           7.4111   -5.5531   29.8183 N.ar    1  UNL1       -0.1995
     17 C           8.4117   -4.7438   30.5890 C.ar    1  UNL1        0.2145
     18 N           9.1772   -5.3727   31.7153 N.pl3   1  UNL1       -0.3274
     19 N           8.6469   -3.3057   30.2332 N.ar    1  UNL1       -0.2183
     20 C           7.8814   -2.6768   29.1070 C.ar    1  UNL1        0.0645
     21 H           5.1426   -5.3206   27.1821 H       1  UNL1        0.1437
     22 H           5.4907   -6.6773   28.1548 H       1  UNL1        0.1437
     23 H           9.0228   -6.3166   31.9487 H       1  UNL1        0.1452
     24 H           9.8339   -4.8415   32.2210 H       1  UNL1        0.1452
     25 C           8.1166   -1.2386   28.7512 C.3     1  UNL1        0.0460
     26 C           7.6590   -0.1522   29.6788 C.3     1  UNL1        0.0067
     27 C           2.6821    0.0146   22.6246 C.ar    1  UNL1        0.0264
     28 C           2.2994    1.2393   21.8475 C.ar    1  UNL1        0.0293
     29 C           2.1967    1.1770   20.3523 C.ar    1  UNL1        0.1422
     30 F           1.8140    2.4017   19.5753 F       1  UNL1       -0.2041
     31 C           2.4766   -0.1098   19.6342 C.ar    1  UNL1        0.0592
     32 C           2.8592   -1.3344   20.4114 C.ar    1  UNL1        0.1422
     33 F           3.1391   -2.6213   19.6932 F       1  UNL1       -0.2041
     34 C           2.9620   -1.2722   21.9065 C.ar    1  UNL1        0.0293
     35 C           3.0126    0.2849   28.0764 C.3     1  UNL1        0.1833
     36 N           0.4484   -0.1322   28.1015 N.am    1  UNL1       -0.3029
     37 C           1.7829   -0.2044   28.7825 C.2     1  UNL1        0.2431
     38 O           1.8878   -0.7658   30.1694 O.2     1  UNL1       -0.2732
     39 H           0.3795    0.2363   27.1911 H       1  UNL1        0.1495
     40 C          -1.8310    0.3548   29.2492 C.3     1  UNL1        0.0230
     41 C          -0.7813   -0.6215   28.8075 C.3     1  UNL1        0.0895
@<TRIPOS>BOND
     1    40    41    1
     2    41    36    1
     3    36    37   am
     4    37    38    2
     5    37    35    1
     6    35     1    1
     7     1     2   am
     8     2     3    2
     9     2     4    1
    10     4     5    1
    11     4    27    1
    12    27    28   ar
    13    28    29   ar
    14    29    30    1
    15    29    31   ar
    16    31    32   ar
    17    32    33    1
    18    32    34   ar
    19     4     6    1
    20     6     7    1
    21     7     8   ar
    22     8     9   ar
    23     9    10   ar
    24    10    13    1
    25    13    14   ar
    26    14    15    1
    27    14    16   ar
    28    16    17   ar
    29    17    18    1
    30    17    19   ar
    31    19    20   ar
    32    20    25    1
    33    25    26    1
    34    10    11   ar
    35    11    12   ar
    36    12     1    1
    37    34    27   ar
    38    12     7   ar
    39    20    13   ar
    40    36    39    1
    41    15    21    1
    42    15    22    1
    43    18    23    1
    44    18    24    1
@<TRIPOS>MOLECULE
*****
 41 44 0 0 0
SMALL
GASTEIGER

@<TRIPOS>ATOM
      1 N          -3.3560    3.5260   24.9097 N.am    1  UNL1       -0.2439
      2 C          -3.7032    3.6990   23.4607 C.2     1  UNL1        0.2701
      3 O          -5.1228    3.9660   23.0563 O.2     1  UNL1       -0.2704
      4 C          -2.6308    3.6051   22.4162 C.3     1  UNL1        0.2199
      5 C          -3.8215    3.8716   21.5438 C.3     1  UNL1        0.0579
      6 O          -1.2112    3.3381   22.8205 O.3     1  UNL1       -0.4686
      7 C          -0.8640    3.1650   24.2696 C.ar    1  UNL1        0.1529
      8 C           0.5555    2.8980   24.6740 C.ar    1  UNL1        0.0382
      9 C           0.9026    2.7250   26.1229 C.ar    1  UNL1        0.0033
     10 C          -0.1698    2.8189   27.1675 C.ar    1  UNL1        0.0053
     11 C          -1.5893    3.0859   26.7631 C.ar    1  UNL1        0.0181
     12 C          -1.9364    3.2590   25.3141 C.ar    1  UNL1        0.0885
     13 C           0.1774    2.6458   28.6165 C.ar    1  UNL1        0.0449
     14 C           0.5882    3.8329   29.4363 C.ar    1  UNL1        0.1293
     15 N           0.6518    5.1931   28.8071 N.pl3   1  UNL1       -0.3425
     16 N           0.9354    3.6598   30.8853 N.ar    1  UNL1       -0.1995
     17 C           0.8718    2.2997   31.5144 C.ar    1  UNL1        0.2145
     18 N           1.2189    2.1265   32.9634 N.pl3   1  UNL1       -0.3274
     19 N           0.4610    1.1125   30.6946 N.ar    1  UNL1       -0.2183
     20 C           0.1138    1.2857   29.2457 C.ar    1  UNL1        0.0645
     21 H           0.4239    5.3067   27.8561 H       1  UNL1        0.1437
     22 H           0.9214    5.9722   29.3452 H       1  UNL1        0.1437
     23 H           1.4885    2.9057   33.5015 H       1  UNL1        0.1452
     24 H           1.1772    1.2338   33.3763 H       1  UNL1        0.1452
     25 C          -0.2970    0.0985   28.4258 C.3     1  UNL1        0.0460
     26 C          -1.5159   -0.6892   28.8049 C.3     1  UNL1        0.0067
     27 C          -1.9719    3.6037   21.0687 C.ar    1  UNL1        0.0264
     28 C          -0.7519    2.7638   20.8311 C.ar    1  UNL1        0.0293
     29 C          -0.0930    2.7625   19.4835 C.ar    1  UNL1        0.1422
     30 F           1.1269    1.9226   19.2461 F       1  UNL1       -0.2041
     31 C          -0.6541    3.6009   18.3736 C.ar    1  UNL1        0.0592
     32 C          -1.8740    4.4408   18.6111 C.ar    1  UNL1        0.1422
     33 F          -2.4350    5.2793   17.5010 F       1  UNL1       -0.2041
     34 C          -2.5329    4.4421   19.9586 C.ar    1  UNL1        0.0293
     35 C          -4.4285    3.6199   25.9542 C.3     1  UNL1        0.1833
     36 N          -5.9957    5.6691   25.6464 N.am    1  UNL1       -0.3029
     37 C          -4.9151    4.9633   26.4108 C.2     1  UNL1        0.2431
     38 O          -4.3212    5.6010   27.6317 O.2     1  UNL1       -0.2732
     39 H          -6.3855    5.2506   24.8451 H       1  UNL1        0.1495
     40 C          -7.5536    7.1065   27.1486 C.3     1  UNL1        0.0230
     41 C          -6.4823    7.0125   26.1029 C.3     1  UNL1        0.0895
@<TRIPOS>BOND
     1    40    41    1
     2    41    36    1
     3    36    37   am
     4    37    38    2
     5    37    35    1
     6    35     1    1
     7     1     2   am
     8     2     3    2
     9     2     4    1
    10     4     5    1
    11     4    27    1
    12    27    28   ar
    13    28    29   ar
    14    29    30    1
    15    29    31   ar
    16    31    32   ar
    17    32    33    1
    18    32    34   ar
    19     4     6    1
    20     6     7    1
    21     7     8   ar
    22     8     9   ar
    23     9    10   ar
    24    10    13    1
    25    13    14   ar
    26    14    15    1
    27    14    16   ar
    28    16    17   ar
    29    17    18    1
    30    17    19   ar
    31    19    20   ar
    32    20    25    1
    33    25    26    1
    34    10    11   ar
    35    11    12   ar
    36    12     1    1
    37    34    27   ar
    38    12     7   ar
    39    20    13   ar
    40    36    39    1
    41    15    21    1
    42    15    22    1
    43    18    23    1
    44    18    24    1
@<TRIPOS>MOLECULE
*****
 41 44 0 0 0
SMALL
GASTEIGER

@<TRIPOS>ATOM
      1 N           5.2569   -1.4894   25.6785 N.am    1  UNL1       -0.2439
      2 C           5.6679   -2.2985   24.4842 C.2     1  UNL1        0.2701
      3 O           6.9117   -3.1354   24.5372 O.2     1  UNL1       -0.2704
      4 C           4.8352   -2.2708   23.2369 C.3     1  UNL1        0.2199
      5 C           5.9206   -3.2115   22.8046 C.3     1  UNL1        0.0579
      6 O           3.5914   -1.4340   23.1839 O.3     1  UNL1       -0.4686
      7 C           3.1804   -0.6248   24.3782 C.ar    1  UNL1        0.1529
      8 C           1.9367    0.2120   24.3252 C.ar    1  UNL1        0.0382
      9 C           1.5257    1.0211   25.5194 C.ar    1  UNL1        0.0033
     10 C           2.3584    0.9934   26.7668 C.ar    1  UNL1        0.0053
     11 C           3.6021    0.1566   26.8198 C.ar    1  UNL1        0.0181
     12 C           4.0131   -0.6525   25.6255 C.ar    1  UNL1        0.0885
     13 C           1.9474    1.8026   27.9611 C.ar    1  UNL1        0.0449
     14 C           2.4988    3.1837   28.1571 C.ar    1  UNL1        0.1293
     15 N           3.4613    3.7557   27.1589 N.pl3   1  UNL1       -0.3425
     16 N           2.0877    3.9929   29.3515 N.ar    1  UNL1       -0.1995
     17 C           1.1252    3.4209   30.3497 C.ar    1  UNL1        0.2145
     18 N           0.7142    4.2300   31.5440 N.pl3   1  UNL1       -0.3274
     19 N           0.5738    2.0397   30.1536 N.ar    1  UNL1       -0.2183
     20 C           0.9849    1.2306   28.9593 C.ar    1  UNL1        0.0645
     21 H           3.7311    3.2246   26.3751 H       1  UNL1        0.1437
     22 H           3.8232    4.6621   27.2876 H       1  UNL1        0.1437
     23 H           1.0761    5.1364   31.6727 H       1  UNL1        0.1452
     24 H           0.0825    3.8546   32.1991 H       1  UNL1        0.1452
     25 C           0.4334   -0.1505   28.7632 C.3     1  UNL1        0.0460
     26 C          -1.0487   -0.3785   28.8000 C.3     1  UNL1        0.0067
     27 C           4.3794   -2.5698   21.8395 C.ar    1  UNL1        0.0264
     28 C           3.8860   -1.4608   20.9580 C.ar    1  UNL1        0.0293
     29 C           3.4302   -1.7598   19.5606 C.ar    1  UNL1        0.1422
     30 F           2.9368   -0.6508   18.6793 F       1  UNL1       -0.2041
     31 C           3.4679   -3.1677   19.0445 C.ar    1  UNL1        0.0592
     32 C           3.9613   -4.2766   19.9259 C.ar    1  UNL1        0.1422
     33 F           3.9989   -5.6846   19.4098 F       1  UNL1       -0.2041
     34 C           4.4170   -3.9777   21.3233 C.ar    1  UNL1        0.0293
     35 C           6.0896   -1.5171   26.9258 C.3     1  UNL1        0.1833
     36 N           6.1707   -4.0852   27.3106 N.am    1  UNL1       -0.3029
     37 C           6.0147   -2.6949   27.8516 C.2     1  UNL1        0.2431
     38 O           5.7837   -2.4825   29.3184 O.2     1  UNL1       -0.2732
     39 H           6.3223   -4.2247   26.3479 H       1  UNL1        0.1495
     40 C           7.3106   -5.6914   29.0049 C.3     1  UNL1        0.0230
     41 C           6.0958   -5.2631   28.2364 C.3     1  UNL1        0.0895
@<TRIPOS>BOND
     1    40    41    1
     2    41    36    1
     3    36    37   am
     4    37    38    2
     5    37    35    1
     6    35     1    1
     7     1     2   am
     8     2     3    2
     9     2     4    1
    10     4     5    1
    11     4    27    1
    12    27    28   ar
    13    28    29   ar
    14    29    30    1
    15    29    31   ar
    16    31    32   ar
    17    32    33    1
    18    32    34   ar
    19     4     6    1
    20     6     7    1
    21     7     8   ar
    22     8     9   ar
    23     9    10   ar
    24    10    13    1
    25    13    14   ar
    26    14    15    1
    27    14    16   ar
    28    16    17   ar
    29    17    18    1
    30    17    19   ar
    31    19    20   ar
    32    20    25    1
    33    25    26    1
    34    10    11   ar
    35    11    12   ar
    36    12     1    1
    37    34    27   ar
    38    12     7   ar
    39    20    13   ar
    40    36    39    1
    41    15    21    1
    42    15    22    1
    43    18    23    1
    44    18    24    1
@<TRIPOS>MOLECULE
*****
 41 44 0 0 0
SMALL
GASTEIGER

@<TRIPOS>ATOM
      1 N           0.4212    2.5245   23.1693 N.am    1  UNL1       -0.2439
      2 C           0.6264    2.1613   21.7285 C.2     1  UNL1        0.2701
      3 O          -0.0870    2.9262   20.6533 O.2     1  UNL1       -0.2704
      4 C           1.5449    1.0331   21.3629 C.3     1  UNL1        0.2199
      5 C           1.0964    1.4575   19.9958 C.3     1  UNL1        0.0579
      6 O           2.2582    0.2682   22.4381 O.3     1  UNL1       -0.4686
      7 C           2.0530    0.6314   23.8789 C.ar    1  UNL1        0.1529
      8 C           2.7663   -0.1335   24.9541 C.ar    1  UNL1        0.0382
      9 C           2.5612    0.2297   26.3949 C.ar    1  UNL1        0.0033
     10 C           1.6427    1.3578   26.7605 C.ar    1  UNL1        0.0053
     11 C           0.9294    2.1228   25.6854 C.ar    1  UNL1        0.0181
     12 C           1.1345    1.7595   24.2446 C.ar    1  UNL1        0.0885
     13 C           1.4375    1.7210   28.2014 C.ar    1  UNL1        0.0449
     14 C           2.3141    2.7529   28.8469 C.ar    1  UNL1        0.1293
     15 N           3.3960    3.4216   28.0516 N.pl3   1  UNL1       -0.3425
     16 N           2.1090    3.1161   30.2878 N.ar    1  UNL1       -0.1995
     17 C           1.0272    2.4474   31.0831 C.ar    1  UNL1        0.2145
     18 N           0.8220    2.8105   32.5239 N.pl3   1  UNL1       -0.3274
     19 N           0.1505    1.4154   30.4375 N.ar    1  UNL1       -0.2183
     20 C           0.3557    1.0523   28.9967 C.ar    1  UNL1        0.0645
     21 H           3.5306    3.1832   27.1060 H       1  UNL1        0.1437
     22 H           3.9713    4.0988   28.4753 H       1  UNL1        0.1437
     23 H           1.3974    3.4877   32.9476 H       1  UNL1        0.1452
     24 H           0.1120    2.3716   33.0459 H       1  UNL1        0.1452
     25 C          -0.5210    0.0204   28.3511 C.3     1  UNL1        0.0460
     26 C          -1.7393   -0.4827   29.0670 C.3     1  UNL1        0.0067
     27 C           2.3076    0.0524   20.5225 C.ar    1  UNL1        0.0264
     28 C           2.5547    0.3409   19.0713 C.ar    1  UNL1        0.0293
     29 C           3.3175   -0.6399   18.2309 C.ar    1  UNL1        0.1422
     30 F           3.5646   -0.3513   16.7799 F       1  UNL1       -0.2041
     31 C           3.8331   -1.9092   18.8417 C.ar    1  UNL1        0.0592
     32 C           3.5860   -2.1977   20.2928 C.ar    1  UNL1        0.1422
     33 F           4.1017   -3.4670   20.9035 F       1  UNL1       -0.2041
     34 C           2.8233   -1.2169   21.1331 C.ar    1  UNL1        0.0293
     35 C          -0.4973    3.6526   23.5350 C.3     1  UNL1        0.1833
     36 N          -2.6959    3.4904   22.1602 N.am    1  UNL1       -0.3029
     37 C          -1.9836    3.4576   23.4799 C.2     1  UNL1        0.2431
     38 O          -2.7575    3.2297   24.7445 O.2     1  UNL1       -0.2732
     39 H          -2.1880    3.6400   21.3303 H       1  UNL1        0.1495
     40 C          -4.8926    3.3140   20.7842 C.3     1  UNL1        0.0230
     41 C          -4.1821    3.2954   22.1052 C.3     1  UNL1        0.0895
@<TRIPOS>BOND
     1    40    41    1
     2    41    36    1
     3    36    37   am
     4    37    38    2
     5    37    35    1
     6    35     1    1
     7     1     2   am
     8     2     3    2
     9     2     4    1
    10     4     5    1
    11     4    27    1
    12    27    28   ar
    13    28    29   ar
    14    29    30    1
    15    29    31   ar
    16    31    32   ar
    17    32    33    1
    18    32    34   ar
    19     4     6    1
    20     6     7    1
    21     7     8   ar
    22     8     9   ar
    23     9    10   ar
    24    10    13    1
    25    13    14   ar
    26    14    15    1
    27    14    16   ar
    28    16    17   ar
    29    17    18    1
    30    17    19   ar
    31    19    20   ar
    32    20    25    1
    33    25    26    1
    34    10    11   ar
    35    11    12   ar
    36    12     1    1
    37    34    27   ar
    38    12     7   ar
    39    20    13   ar
    40    36    39    1
    41    15    21    1
    42    15    22    1
    43    18    23    1
    44    18    24    1
@<TRIPOS>MOLECULE
*****
 41 44 0 0 0
SMALL
GASTEIGER

@<TRIPOS>ATOM
      1 N          -0.1300    2.7203   21.0764 N.am    1  UNL1       -0.2439
      2 C           0.7395    1.8274   20.2418 C.2     1  UNL1        0.2701
      3 O           0.8563    2.0617   18.7648 O.2     1  UNL1       -0.2704
      4 C           1.4923    0.7001   20.8842 C.3     1  UNL1        0.2199
      5 C           1.9224    0.5214   19.4583 C.3     1  UNL1        0.0579
      6 O           1.3756    0.4658   22.3611 O.3     1  UNL1       -0.4686
      7 C           0.5060    1.3587   23.1958 C.ar    1  UNL1        0.1529
      8 C           0.3892    1.1244   24.6727 C.ar    1  UNL1        0.0382
      9 C          -0.4803    2.0173   25.5073 C.ar    1  UNL1        0.0033
     10 C          -1.2331    3.1445   24.8649 C.ar    1  UNL1        0.0053
     11 C          -1.1163    3.3789   23.3880 C.ar    1  UNL1        0.0181
     12 C          -0.2468    2.4859   22.5534 C.ar    1  UNL1        0.0885
     13 C          -2.1027    4.0374   25.6996 C.ar    1  UNL1        0.0449
     14 C          -1.4829    4.9554   26.7112 C.ar    1  UNL1        0.1293
     15 N           0.0064    4.9804   26.8881 N.pl3   1  UNL1       -0.3425
     16 N          -2.3525    5.8483   27.5458 N.ar    1  UNL1       -0.1995
     17 C          -3.8418    5.8232   27.3689 C.ar    1  UNL1        0.2145
     18 N          -4.7114    6.7161   28.2035 N.pl3   1  UNL1       -0.3274
     19 N          -4.4615    4.9052   26.3572 N.ar    1  UNL1       -0.2183
     20 C          -3.5920    4.0124   25.5226 C.ar    1  UNL1        0.0645
     21 H           0.5771    4.3944   26.3403 H       1  UNL1        0.1437
     22 H           0.4132    5.5829   27.5521 H       1  UNL1        0.1437
     23 H          -4.3046    7.3186   28.8674 H       1  UNL1        0.1452
     24 H          -5.6889    6.6996   28.0873 H       1  UNL1        0.1452
     25 C          -4.2117    3.0944   24.5110 C.3     1  UNL1        0.0460
     26 C          -5.2389    3.6191   23.5521 C.3     1  UNL1        0.0067
     27 C           2.3945   -0.4892   21.0313 C.ar    1  UNL1        0.0264
     28 C           2.6965   -1.3531   19.8428 C.ar    1  UNL1        0.0293
     29 C           3.5987   -2.5424   19.9900 C.ar    1  UNL1        0.1422
     30 F           3.9007   -3.4062   18.8015 F       1  UNL1       -0.2041
     31 C           4.1988   -2.8678   21.3256 C.ar    1  UNL1        0.0592
     32 C           3.8967   -2.0039   22.5141 C.ar    1  UNL1        0.1422
     33 F           4.4968   -2.3294   23.8498 F       1  UNL1       -0.2041
     34 C           2.9946   -0.8147   22.3669 C.ar    1  UNL1        0.0293
     35 C          -0.8828    3.8475   20.4340 C.3     1  UNL1        0.1833
     36 N          -2.5782    4.1401   18.4872 N.am    1  UNL1       -0.3029
     37 C          -2.2414    3.6036   19.8469 C.2     1  UNL1        0.2431
     38 O          -3.2633    2.8233   20.6195 O.2     1  UNL1       -0.2732
     39 H          -1.9075    4.6522   17.9801 H       1  UNL1        0.1495
     40 C          -4.1111    3.8386   16.4113 C.3     1  UNL1        0.0230
     41 C          -3.9368    3.8962   17.9001 C.3     1  UNL1        0.0895
@<TRIPOS>BOND
     1    40    41    1
     2    41    36    1
     3    36    37   am
     4    37    38    2
     5    37    35    1
     6    35     1    1
     7     1     2   am
     8     2     3    2
     9     2     4    1
    10     4     5    1
    11     4    27    1
    12    27    28   ar
    13    28    29   ar
    14    29    30    1
    15    29    31   ar
    16    31    32   ar
    17    32    33    1
    18    32    34   ar
    19     4     6    1
    20     6     7    1
    21     7     8   ar
    22     8     9   ar
    23     9    10   ar
    24    10    13    1
    25    13    14   ar
    26    14    15    1
    27    14    16   ar
    28    16    17   ar
    29    17    18    1
    30    17    19   ar
    31    19    20   ar
    32    20    25    1
    33    25    26    1
    34    10    11   ar
    35    11    12   ar
    36    12     1    1
    37    34    27   ar
    38    12     7   ar
    39    20    13   ar
    40    36    39    1
    41    15    21    1
    42    15    22    1
    43    18    23    1
    44    18    24    1
@<TRIPOS>MOLECULE
*****
 41 44 0 0 0
SMALL
GASTEIGER

@<TRIPOS>ATOM
      1 N           1.8660    1.9394   23.5110 N.am    1  UNL1       -0.2439
      2 C           2.1875    1.5666   22.0941 C.2     1  UNL1        0.2701
      3 O           1.7106    2.4307   20.9645 O.2     1  UNL1       -0.2704
      4 C           2.9860    0.3297   21.8067 C.3     1  UNL1        0.2199
      5 C           2.7590    0.8239   20.4088 C.3     1  UNL1        0.0579
      6 O           3.4630   -0.5344   22.9362 O.3     1  UNL1       -0.4686
      7 C           3.1415   -0.1616   24.3532 C.ar    1  UNL1        0.1529
      8 C           3.6184   -1.0257   25.4827 C.ar    1  UNL1        0.0382
      9 C           3.2969   -0.6530   26.8995 C.ar    1  UNL1        0.0033
     10 C           2.4984    0.5839   27.1870 C.ar    1  UNL1        0.0053
     11 C           2.0215    1.4480   26.0575 C.ar    1  UNL1        0.0181
     12 C           2.3430    1.0753   24.6406 C.ar    1  UNL1        0.0885
     13 C           2.1769    0.9567   28.6039 C.ar    1  UNL1        0.0449
     14 C           3.1809    1.7065   29.4284 C.ar    1  UNL1        0.1293
     15 N           4.5063    2.0836   28.8360 N.pl3   1  UNL1       -0.3425
     16 N           2.8594    2.0792   30.8454 N.ar    1  UNL1       -0.1995
     17 C           1.5339    1.7021   31.4378 C.ar    1  UNL1        0.2145
     18 N           1.2124    2.0748   32.8547 N.pl3   1  UNL1       -0.3274
     19 N           0.5300    0.9522   30.6133 N.ar    1  UNL1       -0.2183
     20 C           0.8515    0.5795   29.1964 C.ar    1  UNL1        0.0645
     21 H           4.7174    1.8390   27.9060 H       1  UNL1        0.1437
     22 H           5.1652    2.5758   29.3772 H       1  UNL1        0.1437
     23 H           1.8713    2.5670   33.3959 H       1  UNL1        0.1452
     24 H           0.3425    1.8273   33.2435 H       1  UNL1        0.1452
     25 C          -0.1525   -0.1703   28.3718 C.3     1  UNL1        0.0460
     26 C          -1.5124   -0.4654   28.9316 C.3     1  UNL1        0.0067
     27 C           3.7056   -0.7355   21.0338 C.ar    1  UNL1        0.0264
     28 C           5.1984   -0.6831   20.8959 C.ar    1  UNL1        0.0293
     29 C           5.9180   -1.7484   20.1230 C.ar    1  UNL1        0.1422
     30 F           7.4107   -1.6959   19.9851 F       1  UNL1       -0.2041
     31 C           5.1449   -2.8660   19.4880 C.ar    1  UNL1        0.0592
     32 C           3.6522   -2.9184   19.6260 C.ar    1  UNL1        0.1422
     33 F           2.8791   -4.0360   18.9910 F       1  UNL1       -0.2041
     34 C           2.9326   -1.8531   20.3988 C.ar    1  UNL1        0.0293
     35 C           1.0676    3.1763   23.7984 C.3     1  UNL1        0.1833
     36 N          -0.9700    3.5460   22.2294 N.am    1  UNL1       -0.3029
     37 C          -0.4157    3.1804   23.5744 C.2     1  UNL1        0.2431
     38 O          -1.3444    2.8188   24.6954 O.2     1  UNL1       -0.2732
     39 H          -0.3604    3.7833   21.4937 H       1  UNL1        0.1495
     40 C          -3.0053    3.2943   20.6344 C.3     1  UNL1        0.0230
     41 C          -2.4531    3.5501   22.0054 C.3     1  UNL1        0.0895
@<TRIPOS>BOND
     1    40    41    1
     2    41    36    1
     3    36    37   am
     4    37    38    2
     5    37    35    1
     6    35     1    1
     7     1     2   am
     8     2     3    2
     9     2     4    1
    10     4     5    1
    11     4    27    1
    12    27    28   ar
    13    28    29   ar
    14    29    30    1
    15    29    31   ar
    16    31    32   ar
    17    32    33    1
    18    32    34   ar
    19     4     6    1
    20     6     7    1
    21     7     8   ar
    22     8     9   ar
    23     9    10   ar
    24    10    13    1
    25    13    14   ar
    26    14    15    1
    27    14    16   ar
    28    16    17   ar
    29    17    18    1
    30    17    19   ar
    31    19    20   ar
    32    20    25    1
    33    25    26    1
    34    10    11   ar
    35    11    12   ar
    36    12     1    1
    37    34    27   ar
    38    12     7   ar
    39    20    13   ar
    40    36    39    1
    41    15    21    1
    42    15    22    1
    43    18    23    1
    44    18    24    1
@<TRIPOS>MOLECULE
*****
 41 44 0 0 0
SMALL
GASTEIGER

@<TRIPOS>ATOM
      1 N           5.7541   -1.7618   27.6798 N.am    1  UNL1       -0.2439
      2 C           5.9556   -2.4586   26.3669 C.2     1  UNL1        0.2701
      3 O           5.5336   -1.7916   25.0913 O.2     1  UNL1       -0.2704
      4 C           6.5790   -3.8224   26.3295 C.3     1  UNL1        0.2199
      5 C           6.3454   -3.6025   24.8642 C.3     1  UNL1        0.0579
      6 O           7.0009   -4.4894   27.6051 O.3     1  UNL1       -0.4686
      7 C           6.7994   -3.7926   28.9181 C.ar    1  UNL1        0.1529
      8 C           7.2214   -4.4596   30.1936 C.ar    1  UNL1        0.0382
      9 C           7.0199   -3.7628   31.5065 C.ar    1  UNL1        0.0033
     10 C           6.3965   -2.3990   31.5439 C.ar    1  UNL1        0.0053
     11 C           5.9745   -1.7320   30.2684 C.ar    1  UNL1        0.0181
     12 C           6.1760   -2.4288   28.9555 C.ar    1  UNL1        0.0885
     13 C           6.1950   -1.7022   32.8570 C.ar    1  UNL1        0.0449
     14 C           4.9332   -1.9231   33.6374 C.ar    1  UNL1        0.1293
     15 N           3.8728   -2.8407   33.1048 N.pl3   1  UNL1       -0.3425
     16 N           4.7317   -1.2263   34.9504 N.ar    1  UNL1       -0.1995
     17 C           5.7920   -0.3086   35.4829 C.ar    1  UNL1        0.2145
     18 N           5.5906    0.3882   36.7959 N.pl3   1  UNL1       -0.3274
     19 N           7.0539   -0.0878   34.7024 N.ar    1  UNL1       -0.2183
     20 C           7.2553   -0.7846   33.3895 C.ar    1  UNL1        0.0645
     21 H           4.0050   -3.2980   32.2431 H       1  UNL1        0.1437
     22 H           3.0447   -2.9856   33.6170 H       1  UNL1        0.1437
     23 H           4.7625    0.2432   37.3081 H       1  UNL1        0.1452
     24 H           6.2866    0.9904   37.1454 H       1  UNL1        0.1452
     25 C           8.5172   -0.5638   32.6090 C.3     1  UNL1        0.0460
     26 C           8.6563    0.6475   31.7353 C.3     1  UNL1        0.0067
     27 C           7.1213   -5.1098   25.7833 C.ar    1  UNL1        0.0264
     28 C           7.7242   -5.1471   24.4102 C.ar    1  UNL1        0.0293
     29 C           8.2665   -6.4346   23.8639 C.ar    1  UNL1        0.1422
     30 F           8.8694   -6.4718   22.4910 F       1  UNL1       -0.2041
     31 C           8.2059   -7.6847   24.6907 C.ar    1  UNL1        0.0592
     32 C           7.6030   -7.6474   26.0637 C.ar    1  UNL1        0.1422
     33 F           7.5424   -8.8976   26.8904 F       1  UNL1       -0.2041
     34 C           7.0607   -6.3600   26.6099 C.ar    1  UNL1        0.0293
     35 C           5.1307   -0.3980   27.7172 C.3     1  UNL1        0.1833
     36 N           2.8181   -0.3908   28.9013 N.am    1  UNL1       -0.3029
     37 C           3.6390   -0.2533   27.6534 C.2     1  UNL1        0.2431
     38 O           2.9683    0.0290   26.3418 O.2     1  UNL1       -0.2732
     39 H           3.2583   -0.5761   29.7621 H       1  UNL1        0.1495
     40 C           0.6511    0.8835   29.5573 C.3     1  UNL1        0.0230
     41 C           1.3265   -0.2460   28.8375 C.3     1  UNL1        0.0895
@<TRIPOS>BOND
     1    40    41    1
     2    41    36    1
     3    36    37   am
     4    37    38    2
     5    37    35    1
     6    35     1    1
     7     1     2   am
     8     2     3    2
     9     2     4    1
    10     4     5    1
    11     4    27    1
    12    27    28   ar
    13    28    29   ar
    14    29    30    1
    15    29    31   ar
    16    31    32   ar
    17    32    33    1
    18    32    34   ar
    19     4     6    1
    20     6     7    1
    21     7     8   ar
    22     8     9   ar
    23     9    10   ar
    24    10    13    1
    25    13    14   ar
    26    14    15    1
    27    14    16   ar
    28    16    17   ar
    29    17    18    1
    30    17    19   ar
    31    19    20   ar
    32    20    25    1
    33    25    26    1
    34    10    11   ar
    35    11    12   ar
    36    12     1    1
    37    34    27   ar
    38    12     7   ar
    39    20    13   ar
    40    36    39    1
    41    15    21    1
    42    15    22    1
    43    18    23    1
    44    18    24    1
@<TRIPOS>MOLECULE
*****
 41 44 0 0 0
SMALL
GASTEIGER

@<TRIPOS>ATOM
      1 N          -3.4452    3.5029   24.6713 N.am    1  UNL1       -0.2439
      2 C          -3.7914    3.6998   23.2252 C.2     1  UNL1        0.2701
      3 O          -5.2083    3.9882   22.8257 O.2     1  UNL1       -0.2704
      4 C          -2.7209    3.6084   22.1784 C.3     1  UNL1        0.2199
      5 C          -3.9092    3.9003   21.3109 C.3     1  UNL1        0.0579
      6 O          -1.3041    3.3201   22.5779 O.3     1  UNL1       -0.4686
      7 C          -0.9578    3.1231   24.0240 C.ar    1  UNL1        0.1529
      8 C           0.4589    2.8348   24.4234 C.ar    1  UNL1        0.0382
      9 C           0.8052    2.6378   25.8696 C.ar    1  UNL1        0.0033
     10 C          -0.2654    2.7292   26.9163 C.ar    1  UNL1        0.0053
     11 C          -1.6821    3.0176   26.5168 C.ar    1  UNL1        0.0181
     12 C          -2.0284    3.2145   25.0707 C.ar    1  UNL1        0.0885
     13 C           0.0809    2.5322   28.3624 C.ar    1  UNL1        0.0449
     14 C           0.0287    1.1600   28.9660 C.ar    1  UNL1        0.1293
     15 N          -0.3697   -0.0153   28.1234 N.pl3   1  UNL1       -0.3425
     16 N           0.3750    0.9630   30.4121 N.ar    1  UNL1       -0.1995
     17 C           0.7735    2.1383   31.2547 C.ar    1  UNL1        0.2145
     18 N           1.1198    1.9414   32.7008 N.pl3   1  UNL1       -0.3274
     19 N           0.8257    3.5106   30.6511 N.ar    1  UNL1       -0.2183
     20 C           0.4794    3.7075   29.2050 C.ar    1  UNL1        0.0645
     21 H          -0.5970    0.1140   27.1742 H       1  UNL1        0.1437
     22 H          -0.4040   -0.9159   28.5195 H       1  UNL1        0.1437
     23 H           1.0855    1.0408   33.0970 H       1  UNL1        0.1452
     24 H           1.3813    2.7128   33.2538 H       1  UNL1        0.1452
     25 C           0.5316    5.0798   28.6014 C.3     1  UNL1        0.0460
     26 C          -0.6456    6.0006   28.7294 C.3     1  UNL1        0.0067
     27 C          -2.0631    3.6184   20.8305 C.ar    1  UNL1        0.0264
     28 C          -2.6742    4.3971   19.7034 C.ar    1  UNL1        0.0293
     29 C          -2.0163    4.4070   18.3553 C.ar    1  UNL1        0.1422
     30 F          -2.6275    5.1857   17.2283 F       1  UNL1       -0.2041
     31 C          -0.7474    3.6383   18.1344 C.ar    1  UNL1        0.0592
     32 C          -0.1363    2.8597   19.2615 C.ar    1  UNL1        0.1422
     33 F           1.1327    2.0910   19.0405 F       1  UNL1       -0.2041
     34 C          -0.7941    2.8497   20.6094 C.ar    1  UNL1        0.0293
     35 C          -4.5157    3.5943   25.7180 C.3     1  UNL1        0.1833
     36 N          -5.8378    5.8069   25.3911 N.am    1  UNL1       -0.3029
     37 C          -4.9512    4.9352   26.2303 C.2     1  UNL1        0.2431
     38 O          -4.5001    5.4044   27.5817 O.2     1  UNL1       -0.2732
     39 H          -6.1338    5.4989   24.5041 H       1  UNL1        0.1495
     40 C          -7.5214    7.2668   26.7268 C.3     1  UNL1        0.0230
     41 C          -6.2733    7.1477   25.9033 C.3     1  UNL1        0.0895
@<TRIPOS>BOND
     1    40    41    1
     2    41    36    1
     3    36    37   am
     4    37    38    2
     5    37    35    1
     6    35     1    1
     7     1     2   am
     8     2     3    2
     9     2     4    1
    10     4     5    1
    11     4    27    1
    12    27    28   ar
    13    28    29   ar
    14    29    30    1
    15    29    31   ar
    16    31    32   ar
    17    32    33    1
    18    32    34   ar
    19     4     6    1
    20     6     7    1
    21     7     8   ar
    22     8     9   ar
    23     9    10   ar
    24    10    13    1
    25    13    14   ar
    26    14    15    1
    27    14    16   ar
    28    16    17   ar
    29    17    18    1
    30    17    19   ar
    31    19    20   ar
    32    20    25    1
    33    25    26    1
    34    10    11   ar
    35    11    12   ar
    36    12     1    1
    37    34    27   ar
    38    12     7   ar
    39    20    13   ar
    40    36    39    1
    41    15    21    1
    42    15    22    1
    43    18    23    1
    44    18    24    1
