@<TRIPOS>MOLECULE
*****
 19 20 0 0 0
SMALL
GASTEIGER

@<TRIPOS>ATOM
      1 N         -10.1450  -18.5355   22.6900 N.3     1  UNL1       -0.2665
      2 C         -11.2939  -18.6900   21.7379 C.3     1  UNL1        0.0986
      3 C         -11.2651  -19.1069   20.2974 C.2     1  UNL1       -0.0134
      4 C         -10.0805  -19.4724   19.4530 C.2     1  UNL1       -0.0289
      5 C          -8.6319  -19.5113   19.8406 C.3     1  UNL1        0.0315
      6 C          -8.0104  -19.1942   21.1684 C.3     1  UNL1        0.0427
      7 C          -8.6836  -18.7599   22.4365 C.3     1  UNL1        0.0771
      8 C          -6.5180  -19.3292   21.2372 C.ar    1  UNL1       -0.0199
      9 C          -5.7949  -20.1805   20.2359 C.ar    1  UNL1       -0.0033
     10 C          -4.3026  -20.3155   20.3047 C.ar    1  UNL1        0.0119
     11 C          -3.5333  -19.5992   21.3748 C.ar    1  UNL1        0.0682
     12 CL         -2.0410  -19.7342   21.4436 Cl      1  UNL1       -0.0814
     13 C          -4.2563  -18.7479   22.3761 C.ar    1  UNL1        0.0679
     14 CL         -3.4871  -18.0316   23.4462 Cl      1  UNL1       -0.0814
     15 C          -5.7487  -18.6129   22.3073 C.ar    1  UNL1        0.0080
     16 C         -10.5050  -18.0990   24.0792 C.3     1  UNL1        0.1045
     17 O         -10.2005  -20.2508   25.5028 O.3     1  UNL1       -0.3805
     18 C          -9.9081  -18.7991   25.2638 C.3     1  UNL1        0.1544
     19 H          -9.7403  -20.5456   26.3042 H       1  UNL1        0.2105
@<TRIPOS>BOND
     1    17    18    1
     2    18    16    1
     3    16     1    1
     4     1     2    1
     5     2     3    1
     6     3     4    2
     7     4     5    1
     8     5     6    1
     9     6     8    1
    10     8     9   ar
    11     9    10   ar
    12    10    11   ar
    13    11    12    1
    14    11    13   ar
    15    13    14    1
    16    13    15   ar
    17     6     7    1
    18     7     1    1
    19    15     8   ar
    20    17    19    1
@<TRIPOS>MOLECULE
*****
 19 20 0 0 0
SMALL
GASTEIGER

@<TRIPOS>ATOM
      1 N         -10.5165  -18.3084   20.9410 N.3     1  UNL1       -0.2665
      2 C         -11.5469  -18.7123   21.9536 C.3     1  UNL1        0.0986
      3 C         -11.3593  -19.5019   23.2149 C.2     1  UNL1       -0.0134
      4 C         -10.0951  -20.0829   23.7754 C.2     1  UNL1       -0.0289
      5 C          -8.7061  -20.0177   23.2128 C.3     1  UNL1        0.0315
      6 C          -8.2384  -19.3553   21.9509 C.3     1  UNL1        0.0427
      7 C          -9.0439  -18.5946   20.9399 C.3     1  UNL1        0.0771
      8 C          -6.7708  -19.4686   21.6618 C.ar    1  UNL1       -0.0199
      9 C          -6.2885  -20.3874   20.5786 C.ar    1  UNL1       -0.0033
     10 C          -4.8209  -20.5007   20.2895 C.ar    1  UNL1        0.0119
     11 C          -3.8358  -19.6952   21.0836 C.ar    1  UNL1        0.0682
     12 CL         -2.3683  -19.8085   20.7945 Cl      1  UNL1       -0.0814
     13 C          -4.3181  -18.7764   22.1668 C.ar    1  UNL1        0.0679
     14 CL         -3.3329  -17.9710   22.9609 Cl      1  UNL1       -0.0814
     15 C          -5.7856  -18.6631   22.4559 C.ar    1  UNL1        0.0080
     16 C         -11.0258  -17.5132   19.7756 C.3     1  UNL1        0.1045
     17 O         -12.3398  -15.4275   18.9552 O.3     1  UNL1       -0.3805
     18 C         -11.4544  -16.0889   19.9693 C.3     1  UNL1        0.1544
     19 H         -12.5207  -14.5150   19.2300 H       1  UNL1        0.2105
@<TRIPOS>BOND
     1    17    18    1
     2    18    16    1
     3    16     1    1
     4     1     2    1
     5     2     3    1
     6     3     4    2
     7     4     5    1
     8     5     6    1
     9     6     8    1
    10     8     9   ar
    11     9    10   ar
    12    10    11   ar
    13    11    12    1
    14    11    13   ar
    15    13    14    1
    16    13    15   ar
    17     6     7    1
    18     7     1    1
    19    15     8   ar
    20    17    19    1
@<TRIPOS>MOLECULE
*****
 19 20 0 0 0
SMALL
GASTEIGER

@<TRIPOS>ATOM
      1 N          -4.8087  -18.0792   22.4563 N.3     1  UNL1       -0.2665
      2 C          -3.9567  -18.9236   21.5556 C.3     1  UNL1        0.0986
      3 C          -4.3823  -20.0143   20.6181 C.2     1  UNL1       -0.0134
      4 C          -5.7650  -20.5300   20.3494 C.2     1  UNL1       -0.0289
      5 C          -7.0636  -20.0823   20.9520 C.3     1  UNL1        0.0315
      6 C          -7.3002  -19.0084   21.9722 C.3     1  UNL1        0.0427
      7 C          -6.2968  -18.1169   22.6416 C.3     1  UNL1        0.0771
      8 C          -8.7294  -18.7981   22.3763 C.ar    1  UNL1       -0.0199
      9 C          -9.4580  -19.8649   23.1387 C.ar    1  UNL1       -0.0033
     10 C         -10.8872  -19.6547   23.5428 C.ar    1  UNL1        0.0119
     11 C         -11.5877  -18.3777   23.1846 C.ar    1  UNL1        0.0682
     12 CL        -13.0169  -18.1674   23.5887 Cl      1  UNL1       -0.0814
     13 C         -10.8592  -17.3108   22.4222 C.ar    1  UNL1        0.0679
     14 CL        -11.5598  -16.0339   22.0640 Cl      1  UNL1       -0.0814
     15 C          -9.4300  -17.5211   22.0181 C.ar    1  UNL1        0.0080
     16 C          -4.0757  -17.0626   23.2805 C.3     1  UNL1        0.1045
     17 O          -5.1631  -14.7046   23.1936 O.3     1  UNL1       -0.3805
     18 C          -4.8323  -15.9554   23.9526 C.3     1  UNL1        0.1544
     19 H          -5.6505  -14.0958   23.7703 H       1  UNL1        0.2105
@<TRIPOS>BOND
     1    17    18    1
     2    18    16    1
     3    16     1    1
     4     1     2    1
     5     2     3    1
     6     3     4    2
     7     4     5    1
     8     5     6    1
     9     6     8    1
    10     8     9   ar
    11     9    10   ar
    12    10    11   ar
    13    11    12    1
    14    11    13   ar
    15    13    14    1
    16    13    15   ar
    17     6     7    1
    18     7     1    1
    19    15     8   ar
    20    17    19    1
@<TRIPOS>MOLECULE
*****
 19 20 0 0 0
SMALL
GASTEIGER

@<TRIPOS>ATOM
      1 N          -9.5526  -18.5609   20.4765 N.3     1  UNL1       -0.2665
      2 C         -10.9913  -18.4543   20.0654 C.3     1  UNL1        0.0986
      3 C         -12.0830  -17.6343   20.6862 C.2     1  UNL1       -0.0134
      4 C         -12.0058  -16.7182   21.8715 C.2     1  UNL1       -0.0289
      5 C         -10.8178  -16.3959   22.7286 C.3     1  UNL1        0.0315
      6 C          -9.4135  -16.9101   22.6122 C.3     1  UNL1        0.0427
      7 C          -8.8504  -17.8736   21.6100 C.3     1  UNL1        0.0771
      8 C          -8.4441  -16.3924   23.6330 C.ar    1  UNL1       -0.0199
      9 C          -7.0137  -16.1479   23.2530 C.ar    1  UNL1       -0.0033
     10 C          -6.0443  -15.6302   24.2739 C.ar    1  UNL1        0.0119
     11 C          -6.5053  -15.3568   25.6748 C.ar    1  UNL1        0.0682
     12 CL         -5.5359  -14.8391   26.6957 Cl      1  UNL1       -0.0814
     13 C          -7.9356  -15.6012   26.0550 C.ar    1  UNL1        0.0679
     14 CL         -8.3965  -15.3279   27.4559 Cl      1  UNL1       -0.0814
     15 C          -8.9050  -16.1190   25.0341 C.ar    1  UNL1        0.0080
     16 C          -8.7038  -19.4756   19.6440 C.3     1  UNL1        0.1045
     17 O          -6.2631  -18.5853   19.6321 O.3     1  UNL1       -0.3805
     18 C          -7.2524  -19.6596   19.9746 C.3     1  UNL1        0.1544
     19 H          -5.3762  -18.8614   19.9115 H       1  UNL1        0.2105
@<TRIPOS>BOND
     1    17    18    1
     2    18    16    1
     3    16     1    1
     4     1     2    1
     5     2     3    1
     6     3     4    2
     7     4     5    1
     8     5     6    1
     9     6     8    1
    10     8     9   ar
    11     9    10   ar
    12    10    11   ar
    13    11    12    1
    14    11    13   ar
    15    13    14    1
    16    13    15   ar
    17     6     7    1
    18     7     1    1
    19    15     8   ar
    20    17    19    1
@<TRIPOS>MOLECULE
*****
 19 20 0 0 0
SMALL
GASTEIGER

@<TRIPOS>ATOM
      1 N         -10.9433  -17.6190   21.2482 N.3     1  UNL1       -0.2665
      2 C         -12.1097  -17.9445   22.1335 C.3     1  UNL1        0.0986
      3 C         -12.1049  -18.3249   23.5844 C.2     1  UNL1       -0.0134
      4 C         -10.9328  -18.4737   24.5085 C.2     1  UNL1       -0.0289
      5 C          -9.4758  -18.2789   24.2098 C.3     1  UNL1        0.0315
      6 C          -8.8312  -17.8871   22.9133 C.3     1  UNL1        0.0427
      7 C          -9.4842  -17.5934   21.5953 C.3     1  UNL1        0.0771
      8 C          -7.3356  -17.7741   22.9381 C.ar    1  UNL1       -0.0199
      9 C          -6.6819  -16.6243   23.6458 C.ar    1  UNL1       -0.0033
     10 C          -5.1864  -16.5113   23.6706 C.ar    1  UNL1        0.0119
     11 C          -4.3445  -17.5481   22.9877 C.ar    1  UNL1        0.0682
     12 CL         -2.8490  -17.4351   23.0126 Cl      1  UNL1       -0.0814
     13 C          -4.9981  -18.6979   22.2800 C.ar    1  UNL1        0.0679
     14 CL         -4.1563  -19.7346   21.5972 Cl      1  UNL1       -0.0814
     15 C          -6.4937  -18.8109   22.2552 C.ar    1  UNL1        0.0080
     16 C         -11.2806  -17.2732   19.8281 C.3     1  UNL1        0.1045
     17 O         -12.7007  -15.2885   18.9368 O.3     1  UNL1       -0.3805
     18 C         -11.3873  -15.8364   19.4110 C.3     1  UNL1        0.1544
     19 H         -12.5965  -14.3517   18.7079 H       1  UNL1        0.2105
@<TRIPOS>BOND
     1    17    18    1
     2    18    16    1
     3    16     1    1
     4     1     2    1
     5     2     3    1
     6     3     4    2
     7     4     5    1
     8     5     6    1
     9     6     8    1
    10     8     9   ar
    11     9    10   ar
    12    10    11   ar
    13    11    12    1
    14    11    13   ar
    15    13    14    1
    16    13    15   ar
    17     6     7    1
    18     7     1    1
    19    15     8   ar
    20    17    19    1
@<TRIPOS>MOLECULE
*****
 19 20 0 0 0
SMALL
GASTEIGER

@<TRIPOS>ATOM
      1 N         -10.9490  -17.7296   20.9475 N.3     1  UNL1       -0.2665
      2 C         -11.5542  -19.1016   20.9075 C.3     1  UNL1        0.0986
      3 C         -11.3026  -20.2618   21.8243 C.2     1  UNL1       -0.0134
      4 C         -10.3837  -20.3367   23.0076 C.2     1  UNL1       -0.0289
      5 C          -9.4895  -19.2698   23.5663 C.3     1  UNL1        0.0315
      6 C          -9.2933  -17.8646   23.0797 C.3     1  UNL1        0.0427
      7 C          -9.9428  -17.1791   21.9143 C.3     1  UNL1        0.0771
      8 C          -8.3187  -17.0351   23.8620 C.ar    1  UNL1       -0.0199
      9 C          -6.9684  -16.7236   23.2878 C.ar    1  UNL1       -0.0033
     10 C          -5.9937  -15.8941   24.0701 C.ar    1  UNL1        0.0119
     11 C          -6.3694  -15.3761   25.4267 C.ar    1  UNL1        0.0682
     12 CL         -5.3948  -14.5466   26.2091 Cl      1  UNL1       -0.0814
     13 C          -7.7197  -15.6875   26.0011 C.ar    1  UNL1        0.0679
     14 CL         -8.0953  -15.1694   27.3576 Cl      1  UNL1       -0.0814
     15 C          -8.6943  -16.5170   25.2187 C.ar    1  UNL1        0.0080
     16 C         -11.4112  -16.7830   19.8797 C.3     1  UNL1        0.1045
     17 O         -10.4675  -14.6722   18.6948 O.3     1  UNL1       -0.3805
     18 C         -11.0010  -15.3410   19.9269 C.3     1  UNL1        0.1544
     19 H         -10.2516  -13.7482   18.8962 H       1  UNL1        0.2105
@<TRIPOS>BOND
     1    17    18    1
     2    18    16    1
     3    16     1    1
     4     1     2    1
     5     2     3    1
     6     3     4    2
     7     4     5    1
     8     5     6    1
     9     6     8    1
    10     8     9   ar
    11     9    10   ar
    12    10    11   ar
    13    11    12    1
    14    11    13   ar
    15    13    14    1
    16    13    15   ar
    17     6     7    1
    18     7     1    1
    19    15     8   ar
    20    17    19    1
@<TRIPOS>MOLECULE
*****
 19 20 0 0 0
SMALL
GASTEIGER

@<TRIPOS>ATOM
      1 N          -5.5017  -16.9547   23.3246 N.3     1  UNL1       -0.2665
      2 C          -4.3411  -17.8537   23.0167 C.3     1  UNL1        0.0986
      3 C          -4.3495  -19.1950   22.3454 C.2     1  UNL1       -0.0134
      4 C          -5.5205  -19.9687   21.8161 C.2     1  UNL1       -0.0289
      5 C          -6.9724  -19.5921   21.8275 C.3     1  UNL1        0.0315
      6 C          -7.6118  -18.3487   22.3709 C.3     1  UNL1        0.0427
      7 C          -6.9574  -17.1750   23.0372 C.3     1  UNL1        0.0771
      8 C          -9.1030  -18.2686   22.2294 C.ar    1  UNL1       -0.0199
      9 C          -9.7165  -18.0234   20.8826 C.ar    1  UNL1       -0.0033
     10 C         -11.2076  -17.9432   20.7410 C.ar    1  UNL1        0.0119
     11 C         -12.0853  -18.1083   21.9462 C.ar    1  UNL1        0.0682
     12 CL        -13.5765  -18.0281   21.8046 Cl      1  UNL1       -0.0814
     13 C         -11.4719  -18.3535   23.2929 C.ar    1  UNL1        0.0679
     14 CL        -12.3496  -18.5185   24.4980 Cl      1  UNL1       -0.0814
     15 C          -9.9808  -18.4336   23.4345 C.ar    1  UNL1        0.0080
     16 C          -5.1617  -15.6648   24.0106 C.3     1  UNL1        0.1045
     17 O          -5.6174  -14.1597   26.0787 O.3     1  UNL1       -0.3805
     18 C          -5.3863  -15.5183   25.4864 C.3     1  UNL1        0.1544
     19 H          -5.7439  -14.2420   27.0369 H       1  UNL1        0.2105
@<TRIPOS>BOND
     1    17    18    1
     2    18    16    1
     3    16     1    1
     4     1     2    1
     5     2     3    1
     6     3     4    2
     7     4     5    1
     8     5     6    1
     9     6     8    1
    10     8     9   ar
    11     9    10   ar
    12    10    11   ar
    13    11    12    1
    14    11    13   ar
    15    13    14    1
    16    13    15   ar
    17     6     7    1
    18     7     1    1
    19    15     8   ar
    20    17    19    1
@<TRIPOS>MOLECULE
*****
 19 20 0 0 0
SMALL
GASTEIGER

@<TRIPOS>ATOM
      1 N          -9.3587  -16.9089   23.7983 N.3     1  UNL1       -0.2665
      2 C         -10.7611  -17.4049   23.6049 C.3     1  UNL1        0.0986
      3 C         -11.2349  -18.5809   22.8034 C.2     1  UNL1       -0.0134
      4 C         -10.4234  -19.5515   21.9975 C.2     1  UNL1       -0.0289
      5 C          -8.9377  -19.5856   21.7939 C.3     1  UNL1        0.0315
      6 C          -7.8965  -18.6577   22.3461 C.3     1  UNL1        0.0427
      7 C          -8.0838  -17.4665   23.2381 C.3     1  UNL1        0.0771
      8 C          -6.4807  -18.9612   21.9543 C.ar    1  UNL1       -0.0199
      9 C          -6.2009  -19.9324   20.8459 C.ar    1  UNL1       -0.0033
     10 C          -4.7851  -20.2359   20.4542 C.ar    1  UNL1        0.0119
     11 C          -3.6491  -19.5682   21.1709 C.ar    1  UNL1        0.0682
     12 CL         -2.2333  -19.8716   20.7791 Cl      1  UNL1       -0.0814
     13 C          -3.9289  -18.5969   22.2793 C.ar    1  UNL1        0.0679
     14 CL         -2.7929  -17.9293   22.9959 Cl      1  UNL1       -0.0814
     15 C          -5.3447  -18.2934   22.6710 C.ar    1  UNL1        0.0080
     16 C          -9.2118  -15.6947   24.6669 C.3     1  UNL1        0.1045
     17 O          -8.1860  -14.9711   26.9415 O.3     1  UNL1       -0.3805
     18 C          -8.0228  -15.5589   25.5712 C.3     1  UNL1        0.1544
     19 H          -7.3267  -14.9557   27.3912 H       1  UNL1        0.2105
@<TRIPOS>BOND
     1    17    18    1
     2    18    16    1
     3    16     1    1
     4     1     2    1
     5     2     3    1
     6     3     4    2
     7     4     5    1
     8     5     6    1
     9     6     8    1
    10     8     9   ar
    11     9    10   ar
    12    10    11   ar
    13    11    12    1
    14    11    13   ar
    15    13    14    1
    16    13    15   ar
    17     6     7    1
    18     7     1    1
    19    15     8   ar
    20    17    19    1
@<TRIPOS>MOLECULE
*****
 19 20 0 0 0
SMALL
GASTEIGER

@<TRIPOS>ATOM
      1 N         -11.1668   -5.6732   18.7072 N.3     1  UNL1       -0.2665
      2 C         -11.1389   -4.2074   19.0248 C.3     1  UNL1        0.0986
      3 C         -12.2806   -3.3102   19.4007 C.2     1  UNL1       -0.0134
      4 C         -13.7322   -3.6569   19.5519 C.2     1  UNL1       -0.0289
      5 C         -14.4005   -4.9866   19.3645 C.3     1  UNL1        0.0315
      6 C         -13.7823   -6.2980   18.9796 C.3     1  UNL1        0.0427
      7 C         -12.3433   -6.6036   18.6871 C.3     1  UNL1        0.0771
      8 C         -14.7284   -7.4572   18.8731 C.ar    1  UNL1       -0.0199
      9 C         -14.3443   -8.6681   18.0754 C.ar    1  UNL1       -0.0033
     10 C         -15.2904   -9.8272   17.9690 C.ar    1  UNL1        0.0119
     11 C         -16.6206   -9.7754   18.6603 C.ar    1  UNL1        0.0682
     12 CL        -17.5667  -10.9345   18.5538 Cl      1  UNL1       -0.0814
     13 C         -17.0048   -8.5646   19.4580 C.ar    1  UNL1        0.0679
     14 CL        -18.3349   -8.5128   20.1492 Cl      1  UNL1       -0.0814
     15 C         -16.0586   -7.4054   19.5644 C.ar    1  UNL1        0.0080
     16 C          -9.8432   -6.2901   18.3644 C.3     1  UNL1        0.1045
     17 O          -9.7197   -8.8428   17.8968 O.3     1  UNL1       -0.3805
     18 C          -9.5222   -7.6811   18.8250 C.3     1  UNL1        0.1544
     19 H          -9.4669   -9.6635   18.3477 H       1  UNL1        0.2105
@<TRIPOS>BOND
     1    17    18    1
     2    18    16    1
     3    16     1    1
     4     1     2    1
     5     2     3    1
     6     3     4    2
     7     4     5    1
     8     5     6    1
     9     6     8    1
    10     8     9   ar
    11     9    10   ar
    12    10    11   ar
    13    11    12    1
    14    11    13   ar
    15    13    14    1
    16    13    15   ar
    17     6     7    1
    18     7     1    1
    19    15     8   ar
    20    17    19    1
