@<TRIPOS>MOLECULE
*****
 12 13 0 0 0
SMALL
GASTEIGER

@<TRIPOS>ATOM
      1 C         -10.1854  -19.3405   24.9329 C.3     1  UNL1        0.0316
      2 C         -10.8504  -18.3224   24.0547 C.ar    1  UNL1       -0.0148
      3 C         -12.2367  -18.4164   23.4897 C.ar    1  UNL1        0.0312
      4 S         -12.4890  -17.1837   22.6730 S.2     1  UNL1       -0.0863
      5 C         -11.2586  -16.3279   22.7334 C.ar    1  UNL1        0.0352
      6 C         -10.2459  -17.0317   23.5873 C.ar    1  UNL1        0.0045
      7 C          -8.8701  -16.5323   23.9161 C.ar    1  UNL1        0.0194
      8 C          -8.6094  -15.8653   25.2341 C.ar    1  UNL1        0.0031
      9 C          -7.2338  -15.3660   25.5628 C.ar    1  UNL1        0.0207
     10 C          -6.1187  -15.5336   24.5735 C.ar    1  UNL1        0.0989
     11 N          -6.3794  -16.2006   23.2555 N.ar    1  UNL1       -0.2423
     12 C          -7.7551  -16.6999   22.9268 C.ar    1  UNL1        0.0988
@<TRIPOS>BOND
     1     1     2    1
     2     2     3   ar
     3     3     4   ar
     4     4     5   ar
     5     5     6   ar
     6     6     7    1
     7     7     8   ar
     8     8     9   ar
     9     9    10   ar
    10    10    11   ar
    11    11    12   ar
    12     6     2   ar
    13    12     7   ar
@<TRIPOS>MOLECULE
*****
 12 13 0 0 0
SMALL
GASTEIGER

@<TRIPOS>ATOM
      1 C         -11.9228  -16.4749   20.3953 C.3     1  UNL1        0.0316
      2 C         -11.9095  -17.3005   21.6476 C.ar    1  UNL1       -0.0148
      3 C         -12.9672  -17.3060   22.7112 C.ar    1  UNL1        0.0312
      4 S         -12.5476  -18.2743   23.7772 S.2     1  UNL1       -0.0863
      5 C         -11.2306  -18.8672   23.3724 C.ar    1  UNL1        0.0352
      6 C         -10.8362  -18.2653   22.0563 C.ar    1  UNL1        0.0045
      7 C          -9.5877  -18.5742   21.2843 C.ar    1  UNL1        0.0194
      8 C          -9.6560  -19.4447   20.0647 C.ar    1  UNL1        0.0031
      9 C          -8.4075  -19.7535   19.2928 C.ar    1  UNL1        0.0207
     10 C          -7.0907  -19.1917   19.7405 C.ar    1  UNL1        0.0989
     11 N          -7.0224  -18.3212   20.9601 N.ar    1  UNL1       -0.2423
     12 C          -8.2709  -18.0124   21.7320 C.ar    1  UNL1        0.0988
@<TRIPOS>BOND
     1     1     2    1
     2     2     3   ar
     3     3     4   ar
     4     4     5   ar
     5     5     6   ar
     6     6     7    1
     7     7     8   ar
     8     8     9   ar
     9     9    10   ar
    10    10    11   ar
    11    11    12   ar
    12     6     2   ar
    13    12     7   ar
@<TRIPOS>MOLECULE
*****
 12 13 0 0 0
SMALL
GASTEIGER

@<TRIPOS>ATOM
      1 C          -7.6397  -17.9390   21.9905 C.3     1  UNL1        0.0316
      2 C          -7.6284  -16.9032   23.0754 C.ar    1  UNL1       -0.0148
      3 C          -6.4310  -16.1315   23.5450 C.ar    1  UNL1        0.0312
      4 S          -6.8750  -15.2086   24.6410 S.2     1  UNL1       -0.0863
      5 C          -8.3469  -15.4100   24.8487 C.ar    1  UNL1        0.0352
      6 C          -8.8125  -16.4573   23.8811 C.ar    1  UNL1        0.0045
      7 C         -10.2159  -16.9689   23.7433 C.ar    1  UNL1        0.0194
      8 C         -11.1843  -16.2676   22.8376 C.ar    1  UNL1        0.0031
      9 C         -12.5876  -16.7792   22.7000 C.ar    1  UNL1        0.0207
     10 C         -13.0224  -17.9921   23.4680 C.ar    1  UNL1        0.0989
     11 N         -12.0540  -18.6934   24.3737 N.ar    1  UNL1       -0.2423
     12 C         -10.6507  -18.1818   24.5113 C.ar    1  UNL1        0.0988
@<TRIPOS>BOND
     1     1     2    1
     2     2     3   ar
     3     3     4   ar
     4     4     5   ar
     5     5     6   ar
     6     6     7    1
     7     7     8   ar
     8     8     9   ar
     9     9    10   ar
    10    10    11   ar
    11    11    12   ar
    12     6     2   ar
    13    12     7   ar
@<TRIPOS>MOLECULE
*****
 12 13 0 0 0
SMALL
GASTEIGER

@<TRIPOS>ATOM
      1 C         -10.8154  -15.9470   21.1971 C.3     1  UNL1        0.0316
      2 C         -11.1159  -16.8894   22.3248 C.ar    1  UNL1       -0.0148
      3 C         -12.3996  -17.6377   22.5301 C.ar    1  UNL1        0.0312
      4 S         -12.2626  -18.4597   23.7773 S.2     1  UNL1       -0.0863
      5 C         -10.8943  -18.2193   24.3429 C.ar    1  UNL1        0.0352
      6 C         -10.1856  -17.2488   23.4452 C.ar    1  UNL1        0.0045
      7 C          -8.7913  -16.7290   23.6347 C.ar    1  UNL1        0.0194
      8 C          -8.5252  -15.6431   24.6346 C.ar    1  UNL1        0.0031
      9 C          -7.1309  -15.1233   24.8240 C.ar    1  UNL1        0.0207
     10 C          -6.0029  -15.6895   24.0135 C.ar    1  UNL1        0.0989
     11 N          -6.2690  -16.7754   23.0136 N.ar    1  UNL1       -0.2423
     12 C          -7.6632  -17.2952   22.8242 C.ar    1  UNL1        0.0988
@<TRIPOS>BOND
     1     1     2    1
     2     2     3   ar
     3     3     4   ar
     4     4     5   ar
     5     5     6   ar
     6     6     7    1
     7     7     8   ar
     8     8     9   ar
     9     9    10   ar
    10    10    11   ar
    11    11    12   ar
    12     6     2   ar
    13    12     7   ar
@<TRIPOS>MOLECULE
*****
 12 13 0 0 0
SMALL
GASTEIGER

@<TRIPOS>ATOM
      1 C         -10.5769  -18.7725   19.6888 C.3     1  UNL1        0.0316
      2 C         -11.0010  -18.3394   21.0608 C.ar    1  UNL1       -0.0148
      3 C         -12.4003  -18.0075   21.4874 C.ar    1  UNL1        0.0312
      4 S         -12.3644  -17.6251   22.9375 S.2     1  UNL1       -0.0863
      5 C         -10.9430  -17.7206   23.4069 C.ar    1  UNL1        0.0352
      6 C         -10.1004  -18.1620   22.2471 C.ar    1  UNL1        0.0045
      7 C          -8.6174  -18.3867   22.2697 C.ar    1  UNL1        0.0194
      8 C          -8.0626  -19.7573   22.0179 C.ar    1  UNL1        0.0031
      9 C          -6.5797  -19.9819   22.0405 C.ar    1  UNL1        0.0207
     10 C          -5.6516  -18.8359   22.3149 C.ar    1  UNL1        0.0989
     11 N          -6.2065  -17.4653   22.5668 N.ar    1  UNL1       -0.2423
     12 C          -7.6894  -17.2407   22.5442 C.ar    1  UNL1        0.0988
@<TRIPOS>BOND
     1     1     2    1
     2     2     3   ar
     3     3     4   ar
     4     4     5   ar
     5     5     6   ar
     6     6     7    1
     7     7     8   ar
     8     8     9   ar
     9     9    10   ar
    10    10    11   ar
    11    11    12   ar
    12     6     2   ar
    13    12     7   ar
@<TRIPOS>MOLECULE
*****
 12 13 0 0 0
SMALL
GASTEIGER

@<TRIPOS>ATOM
      1 C          -9.5984  -19.2552   19.6195 C.3     1  UNL1        0.0316
      2 C          -9.6477  -19.5190   21.0953 C.ar    1  UNL1       -0.0148
      3 C         -10.8896  -19.6567   21.9252 C.ar    1  UNL1        0.0312
      4 S         -10.4733  -19.9142   23.3432 S.2     1  UNL1       -0.0863
      5 C          -8.9742  -19.9356   23.3895 C.ar    1  UNL1        0.0352
      6 C          -8.4640  -19.6913   22.0002 C.ar    1  UNL1        0.0045
      7 C          -7.0229  -19.6302   21.5882 C.ar    1  UNL1        0.0194
      8 C          -6.4842  -20.6170   20.5953 C.ar    1  UNL1        0.0031
      9 C          -5.0432  -20.5558   20.1834 C.ar    1  UNL1        0.0207
     10 C          -4.1409  -19.5078   20.7644 C.ar    1  UNL1        0.0989
     11 N          -4.6796  -18.5209   21.7573 N.ar    1  UNL1       -0.2423
     12 C          -6.1206  -18.5821   22.1692 C.ar    1  UNL1        0.0988
@<TRIPOS>BOND
     1     1     2    1
     2     2     3   ar
     3     3     4   ar
     4     4     5   ar
     5     5     6   ar
     6     6     7    1
     7     7     8   ar
     8     8     9   ar
     9     9    10   ar
    10    10    11   ar
    11    11    12   ar
    12     6     2   ar
    13    12     7   ar
@<TRIPOS>MOLECULE
*****
 12 13 0 0 0
SMALL
GASTEIGER

@<TRIPOS>ATOM
      1 C          -9.5442  -19.7513   19.2346 C.3     1  UNL1        0.0316
      2 C          -8.5081  -19.3530   20.2434 C.ar    1  UNL1       -0.0148
      3 C          -7.0504  -19.7035   20.1955 C.ar    1  UNL1        0.0312
      4 S          -6.3890  -19.1014   21.3997 S.2     1  UNL1       -0.0863
      5 C          -7.4379  -18.3787   22.1918 C.ar    1  UNL1        0.0352
      6 C          -8.7476  -18.5342   21.4771 C.ar    1  UNL1        0.0045
      7 C         -10.0654  -17.9700   21.9188 C.ar    1  UNL1        0.0194
      8 C         -11.0119  -18.8138   22.7201 C.ar    1  UNL1        0.0031
      9 C         -12.3296  -18.2495   23.1617 C.ar    1  UNL1        0.0207
     10 C         -12.7010  -16.8414   22.8020 C.ar    1  UNL1        0.0989
     11 N         -11.7545  -15.9976   22.0007 N.ar    1  UNL1       -0.2423
     12 C         -10.4368  -16.5619   21.5591 C.ar    1  UNL1        0.0988
@<TRIPOS>BOND
     1     1     2    1
     2     2     3   ar
     3     3     4   ar
     4     4     5   ar
     5     5     6   ar
     6     6     7    1
     7     7     8   ar
     8     8     9   ar
     9     9    10   ar
    10    10    11   ar
    11    11    12   ar
    12     6     2   ar
    13    12     7   ar
@<TRIPOS>MOLECULE
*****
 12 13 0 0 0
SMALL
GASTEIGER

@<TRIPOS>ATOM
      1 C          -5.9060  -21.3925   20.1787 C.3     1  UNL1        0.0316
      2 C          -6.2527  -20.2177   21.0446 C.ar    1  UNL1       -0.0148
      3 C          -7.5744  -19.9727   21.7102 C.ar    1  UNL1        0.0312
      4 S          -7.4772  -18.6852   22.4738 S.2     1  UNL1       -0.0863
      5 C          -6.0954  -18.1346   22.2801 C.ar    1  UNL1        0.0352
      6 C          -5.3386  -19.0818   21.3968 C.ar    1  UNL1        0.0045
      7 C          -3.9173  -18.9211   20.9450 C.ar    1  UNL1        0.0194
      8 C          -3.6205  -18.5296   19.5278 C.ar    1  UNL1        0.0031
      9 C          -2.1992  -18.3690   19.0760 C.ar    1  UNL1        0.0207
     10 C          -1.0747  -18.5998   20.0416 C.ar    1  UNL1        0.0989
     11 N          -1.3715  -18.9913   21.4588 N.ar    1  UNL1       -0.2423
     12 C          -2.7928  -19.1519   21.9105 C.ar    1  UNL1        0.0988
@<TRIPOS>BOND
     1     1     2    1
     2     2     3   ar
     3     3     4   ar
     4     4     5   ar
     5     5     6   ar
     6     6     7    1
     7     7     8   ar
     8     8     9   ar
     9     9    10   ar
    10    10    11   ar
    11    11    12   ar
    12     6     2   ar
    13    12     7   ar
@<TRIPOS>MOLECULE
*****
 12 13 0 0 0
SMALL
GASTEIGER

@<TRIPOS>ATOM
      1 C         -13.7176   -4.9435   20.2986 C.3     1  UNL1        0.0316
      2 C         -12.8381   -3.9277   19.6319 C.ar    1  UNL1       -0.0148
      3 C         -13.0014   -2.4383   19.7020 C.ar    1  UNL1        0.0312
      4 S         -11.9051   -1.8130   18.8913 S.2     1  UNL1       -0.0863
      5 C         -11.0642   -2.9161   18.3202 C.ar    1  UNL1        0.0352
      6 C         -11.6408   -4.2230   18.7779 C.ar    1  UNL1        0.0045
      7 C         -11.1128   -5.5860   18.4407 C.ar    1  UNL1        0.0194
      8 C          -9.8794   -6.1018   19.1208 C.ar    1  UNL1        0.0031
      9 C          -9.3514   -7.4647   18.7836 C.ar    1  UNL1        0.0207
     10 C         -10.0568   -8.3118   17.7664 C.ar    1  UNL1        0.0989
     11 N         -11.2902   -7.7959   17.0863 N.ar    1  UNL1       -0.2423
     12 C         -11.8182   -6.4330   17.4234 C.ar    1  UNL1        0.0988
@<TRIPOS>BOND
     1     1     2    1
     2     2     3   ar
     3     3     4   ar
     4     4     5   ar
     5     5     6   ar
     6     6     7    1
     7     7     8   ar
     8     8     9   ar
     9     9    10   ar
    10    10    11   ar
    11    11    12   ar
    12     6     2   ar
    13    12     7   ar
