@<TRIPOS>MOLECULE
*****
 32 36 0 0 0
SMALL
GASTEIGER

@<TRIPOS>ATOM
      1 N         -15.9553   -2.9359   20.1036 N.pl3   1  UNL1       -0.2927
      2 H         -16.2940   -2.3235   20.7960 H       1  UNL1        0.1541
      3 C         -14.6717   -2.6269   19.3917 C.ar    1  UNL1        0.1629
      4 N         -13.5503   -3.5903   19.1377 N.ar    1  UNL1       -0.2284
      5 C         -12.4696   -2.8591   18.3979 C.ar    1  UNL1        0.0666
      6 C         -12.9229   -1.4438   18.1947 C.ar    1  UNL1        0.0237
      7 S         -14.2839   -1.3003   18.8089 S.2     1  UNL1       -0.0561
      8 C         -12.0380   -0.4685   17.4767 C.3     1  UNL1        0.0343
      9 C         -10.6996   -0.9086   16.9618 C.3     1  UNL1        0.0060
     10 C         -10.2462   -2.3239   17.1650 C.3     1  UNL1        0.0107
     11 C         -11.1312   -3.2992   17.8831 C.3     1  UNL1        0.0627
     12 C         -10.6779   -4.7145   18.0863 C.ar    1  UNL1       -0.0169
     13 C          -9.6709   -5.0339   19.1511 C.ar    1  UNL1       -0.0039
     14 C          -9.2175   -6.4493   19.3544 C.ar    1  UNL1       -0.0003
     15 C          -9.7711   -7.5452   18.4927 C.ar    1  UNL1       -0.0000
     16 C         -10.7781   -7.2258   17.4279 C.ar    1  UNL1       -0.0003
     17 C         -11.2315   -5.8104   17.2247 C.ar    1  UNL1       -0.0039
     18 C         -16.7943   -6.7483   19.3880 C.ar    1  UNL1        0.1404
     19 C         -16.0265   -5.5062   19.7311 C.ar    1  UNL1        0.0515
     20 C         -16.7231   -4.1780   19.7604 C.ar    1  UNL1        0.0528
     21 C         -18.1873   -4.0919   19.4464 C.ar    1  UNL1        0.0149
     22 C         -18.9550   -5.3341   19.1032 C.ar    1  UNL1        0.0048
     23 C         -18.2585   -6.6622   19.0740 C.ar    1  UNL1        0.0412
     24 C         -19.0262   -7.9044   18.7308 C.ar    1  UNL1        0.0470
     25 S         -19.0647   -8.5746   17.3894 S.2     1  UNL1       -0.0710
     26 C         -19.9525   -9.7788   17.4982 C.ar    1  UNL1        0.0882
     27 C         -20.2737  -10.7402   16.3926 C.3     1  UNL1        0.0594
     28 N         -20.4627   -9.8527   18.9069 N.ar    1  UNL1       -0.2470
     29 C         -19.8902   -8.6943   19.6686 C.ar    1  UNL1        0.0656
     30 C         -20.1381   -8.3807   21.1144 C.3     1  UNL1        0.0526
     31 C         -15.2844   -8.4706   18.1616 C.3     1  UNL1        0.2525
     32 O         -16.0978   -8.0765   19.3587 O.3     1  UNL1       -0.4714
@<TRIPOS>BOND
     1    31    32    1
     2    32    18    1
     3    18    19   ar
     4    19    20   ar
     5    20     1    1
     6     1     3    1
     7     3     4   ar
     8     4     5   ar
     9     5     6   ar
    10     6     7   ar
    11     6     8    1
    12     8     9    1
    13     9    10    1
    14    10    11    1
    15    11    12    1
    16    12    13   ar
    17    13    14   ar
    18    14    15   ar
    19    15    16   ar
    20    16    17   ar
    21    20    21   ar
    22    21    22   ar
    23    22    23   ar
    24    23    24    1
    25    24    25   ar
    26    25    26   ar
    27    26    27    1
    28    26    28   ar
    29    28    29   ar
    30    29    30    1
    31    23    18   ar
    32    29    24   ar
    33     7     3   ar
    34    17    12   ar
    35    11     5    1
    36     1     2    1
@<TRIPOS>MOLECULE
*****
 32 36 0 0 0
SMALL
GASTEIGER

@<TRIPOS>ATOM
      1 N           0.4449    3.8233   20.0186 N.pl3   1  UNL1       -0.2927
      2 H           0.7062    4.6991   19.6525 H       1  UNL1        0.1541
      3 C          -0.7648    3.7088   20.8981 C.ar    1  UNL1        0.1629
      4 N          -0.7690    3.7233   22.3980 N.ar    1  UNL1       -0.2284
      5 C          -2.1895    3.5832   22.8590 C.ar    1  UNL1        0.0666
      6 C          -3.0633    3.4821   21.6440 C.ar    1  UNL1        0.0237
      7 S          -2.1828    3.5598   20.4321 S.2     1  UNL1       -0.0561
      8 C          -4.5478    3.3325   21.7981 C.3     1  UNL1        0.0343
      9 C          -5.1585    3.2838   23.1672 C.3     1  UNL1        0.0060
     10 C          -4.2847    3.3849   24.3823 C.3     1  UNL1        0.0107
     11 C          -2.8002    3.5345   24.2282 C.3     1  UNL1        0.0627
     12 C          -1.9265    3.6355   25.4432 C.ar    1  UNL1       -0.0169
     13 C          -1.8606    4.9201   26.2149 C.ar    1  UNL1       -0.0039
     14 C          -0.9868    5.0211   27.4299 C.ar    1  UNL1       -0.0003
     15 C          -0.1789    3.8376   27.8733 C.ar    1  UNL1       -0.0000
     16 C          -0.2448    2.5531   27.1015 C.ar    1  UNL1       -0.0003
     17 C          -1.1186    2.4520   25.8865 C.ar    1  UNL1       -0.0039
     18 C           3.2688    1.0413   20.2065 C.ar    1  UNL1        0.1404
     19 C           2.4573    2.2610   20.5282 C.ar    1  UNL1        0.0515
     20 C           1.2565    2.6036   19.6970 C.ar    1  UNL1        0.0528
     21 C           0.8673    1.7263   18.5442 C.ar    1  UNL1        0.0149
     22 C           1.6790    0.5065   18.2225 C.ar    1  UNL1        0.0048
     23 C           2.8797    0.1640   19.0537 C.ar    1  UNL1        0.0412
     24 C           3.6913   -1.0558   18.7321 C.ar    1  UNL1        0.0470
     25 S           3.4798   -2.4294   19.2963 S.2     1  UNL1       -0.0710
     26 C           4.5147   -3.3388   18.7027 C.ar    1  UNL1        0.0882
     27 C           4.6711   -4.8027   18.9898 C.3     1  UNL1        0.0594
     28 N           5.3658   -2.5270   17.7717 N.ar    1  UNL1       -0.2470
     29 C           4.8569   -1.1161   17.7898 C.ar    1  UNL1        0.0656
     30 C           5.4154    0.0329   17.0038 C.3     1  UNL1        0.0526
     31 C           4.2990   -0.0315   22.3369 C.3     1  UNL1        0.2525
     32 O           4.4696    0.6987   21.0377 O.3     1  UNL1       -0.4714
@<TRIPOS>BOND
     1    31    32    1
     2    32    18    1
     3    18    19   ar
     4    19    20   ar
     5    20     1    1
     6     1     3    1
     7     3     4   ar
     8     4     5   ar
     9     5     6   ar
    10     6     7   ar
    11     6     8    1
    12     8     9    1
    13     9    10    1
    14    10    11    1
    15    11    12    1
    16    12    13   ar
    17    13    14   ar
    18    14    15   ar
    19    15    16   ar
    20    16    17   ar
    21    20    21   ar
    22    21    22   ar
    23    22    23   ar
    24    23    24    1
    25    24    25   ar
    26    25    26   ar
    27    26    27    1
    28    26    28   ar
    29    28    29   ar
    30    29    30    1
    31    23    18   ar
    32    29    24   ar
    33     7     3   ar
    34    17    12   ar
    35    11     5    1
    36     1     2    1
@<TRIPOS>MOLECULE
*****
 32 36 0 0 0
SMALL
GASTEIGER

@<TRIPOS>ATOM
      1 N           0.2171    3.2710   20.5266 N.pl3   1  UNL1       -0.2927
      2 H           0.5005    4.0277   19.9641 H       1  UNL1        0.1541
      3 C          -0.9850    3.4048   21.4137 C.ar    1  UNL1        0.1629
      4 N          -2.3930    3.6522   20.9594 N.ar    1  UNL1       -0.2284
      5 C          -3.2683    3.7151   22.1759 C.ar    1  UNL1        0.0666
      6 C          -2.4013    3.5065   23.3821 C.ar    1  UNL1        0.0237
      7 S          -0.9902    3.3148   22.9110 S.2     1  UNL1       -0.0561
      8 C          -3.0088    3.5182   24.7535 C.3     1  UNL1        0.0343
      9 C          -4.4833    3.7384   24.9187 C.3     1  UNL1        0.0060
     10 C          -5.3503    3.9469   23.7125 C.3     1  UNL1        0.0107
     11 C          -4.7428    3.9352   22.3411 C.3     1  UNL1        0.0627
     12 C          -5.6098    4.1438   21.1350 C.ar    1  UNL1       -0.0169
     13 C          -6.5627    5.3012   21.0873 C.ar    1  UNL1       -0.0039
     14 C          -7.4297    5.5097   19.8811 C.ar    1  UNL1       -0.0003
     15 C          -7.3438    4.5608   18.7226 C.ar    1  UNL1       -0.0000
     16 C          -6.3909    3.4034   18.7703 C.ar    1  UNL1       -0.0003
     17 C          -5.5239    3.1949   19.9765 C.ar    1  UNL1       -0.0039
     18 C           3.2574    0.7208   20.4735 C.ar    1  UNL1        0.1404
     19 C           2.4872    2.0075   20.5038 C.ar    1  UNL1        0.0515
     20 C           0.9873    1.9842   20.4962 C.ar    1  UNL1        0.0528
     21 C           0.2578    0.6741   20.4584 C.ar    1  UNL1        0.0149
     22 C           1.0281   -0.6127   20.4281 C.ar    1  UNL1        0.0048
     23 C           2.5279   -0.5893   20.4356 C.ar    1  UNL1        0.0412
     24 C           3.2982   -1.8761   20.4053 C.ar    1  UNL1        0.0470
     25 S           3.4656   -2.7756   19.2167 S.2     1  UNL1       -0.0710
     26 C           4.3072   -3.9448   19.6350 C.ar    1  UNL1        0.0882
     27 C           4.7231   -5.0898   18.7599 C.3     1  UNL1        0.0594
     28 N           4.6598   -3.7677   21.0822 N.ar    1  UNL1       -0.2470
     29 C           4.0362   -2.4893   21.5583 C.ar    1  UNL1        0.0656
     30 C           4.1336   -1.9233   22.9439 C.3     1  UNL1        0.0526
     31 C           5.5095    1.0119   19.2112 C.3     1  UNL1        0.2525
     32 O           4.7573    0.7441   20.4810 O.3     1  UNL1       -0.4714
@<TRIPOS>BOND
     1    31    32    1
     2    32    18    1
     3    18    19   ar
     4    19    20   ar
     5    20     1    1
     6     1     3    1
     7     3     4   ar
     8     4     5   ar
     9     5     6   ar
    10     6     7   ar
    11     6     8    1
    12     8     9    1
    13     9    10    1
    14    10    11    1
    15    11    12    1
    16    12    13   ar
    17    13    14   ar
    18    14    15   ar
    19    15    16   ar
    20    16    17   ar
    21    20    21   ar
    22    21    22   ar
    23    22    23   ar
    24    23    24    1
    25    24    25   ar
    26    25    26   ar
    27    26    27    1
    28    26    28   ar
    29    28    29   ar
    30    29    30    1
    31    23    18   ar
    32    29    24   ar
    33     7     3   ar
    34    17    12   ar
    35    11     5    1
    36     1     2    1
@<TRIPOS>MOLECULE
*****
 32 36 0 0 0
SMALL
GASTEIGER

@<TRIPOS>ATOM
      1 N           0.8139    1.1416   18.2652 N.pl3   1  UNL1       -0.2927
      2 H           0.2743    0.9150   17.4735 H       1  UNL1        0.1541
      3 C           0.5556    2.4187   19.0084 C.ar    1  UNL1        0.1629
      4 N          -0.5572    2.6611   19.9845 N.ar    1  UNL1       -0.2284
      5 C          -0.4358    4.0698   20.4854 C.ar    1  UNL1        0.0666
      6 C           0.7520    4.6980   19.8187 C.ar    1  UNL1        0.0237
      7 S           1.3647    3.6775   18.9059 S.2     1  UNL1       -0.0561
      8 C           1.1223    6.1181   20.1290 C.3     1  UNL1        0.0343
      9 C           0.3047    6.9099   21.1059 C.3     1  UNL1        0.0060
     10 C          -0.8832    6.2817   21.7726 C.3     1  UNL1        0.0107
     11 C          -1.2534    4.8617   21.4623 C.3     1  UNL1        0.0627
     12 C          -2.4412    4.2334   22.1290 C.ar    1  UNL1       -0.0169
     13 C          -3.5930    3.7433   21.3025 C.ar    1  UNL1       -0.0039
     14 C          -4.7808    3.1151   21.9691 C.ar    1  UNL1       -0.0003
     15 C          -4.8168    2.9770   23.4623 C.ar    1  UNL1       -0.0000
     16 C          -3.6651    3.4671   24.2888 C.ar    1  UNL1       -0.0003
     17 C          -2.4772    4.0953   23.6221 C.ar    1  UNL1       -0.0039
     18 C           4.1498   -1.0080   18.3035 C.ar    1  UNL1        0.1404
     19 C           3.0693   -0.0762   17.8405 C.ar    1  UNL1        0.0515
     20 C           1.8944    0.2098   18.7281 C.ar    1  UNL1        0.0528
     21 C           1.7999   -0.4361   20.0786 C.ar    1  UNL1        0.0149
     22 C           2.8804   -1.3680   20.5416 C.ar    1  UNL1        0.0048
     23 C           4.0553   -1.6539   19.6540 C.ar    1  UNL1        0.0412
     24 C           5.1358   -2.5857   20.1169 C.ar    1  UNL1        0.0470
     25 S           6.2902   -2.2254   21.0044 S.2     1  UNL1       -0.0710
     26 C           7.1195   -3.4585   21.2096 C.ar    1  UNL1        0.0882
     27 C           8.3709   -3.5527   22.0312 C.3     1  UNL1        0.0594
     28 N           6.4775   -4.5807   20.4490 N.ar    1  UNL1       -0.2470
     29 C           5.2516   -4.0413   19.7737 C.ar    1  UNL1        0.0656
     30 C           4.3072   -4.8206   18.9073 C.3     1  UNL1        0.0526
     31 C           6.5103   -0.3751   17.4218 C.3     1  UNL1        0.2525
     32 O           5.3247   -1.2940   17.4159 O.3     1  UNL1       -0.4714
@<TRIPOS>BOND
     1    31    32    1
     2    32    18    1
     3    18    19   ar
     4    19    20   ar
     5    20     1    1
     6     1     3    1
     7     3     4   ar
     8     4     5   ar
     9     5     6   ar
    10     6     7   ar
    11     6     8    1
    12     8     9    1
    13     9    10    1
    14    10    11    1
    15    11    12    1
    16    12    13   ar
    17    13    14   ar
    18    14    15   ar
    19    15    16   ar
    20    16    17   ar
    21    20    21   ar
    22    21    22   ar
    23    22    23   ar
    24    23    24    1
    25    24    25   ar
    26    25    26   ar
    27    26    27    1
    28    26    28   ar
    29    28    29   ar
    30    29    30    1
    31    23    18   ar
    32    29    24   ar
    33     7     3   ar
    34    17    12   ar
    35    11     5    1
    36     1     2    1
@<TRIPOS>MOLECULE
*****
 32 36 0 0 0
SMALL
GASTEIGER

@<TRIPOS>ATOM
      1 N         -13.2997   -1.0771   17.4402 N.pl3   1  UNL1       -0.2927
      2 H         -13.0590   -0.6095   16.6080 H       1  UNL1        0.1541
      3 C         -12.6006   -2.3504   17.8143 C.ar    1  UNL1        0.1629
      4 N         -13.2392   -3.7013   17.9453 N.ar    1  UNL1       -0.2284
      5 C         -12.1734   -4.6822   18.3350 C.ar    1  UNL1        0.0666
      6 C         -10.8759   -3.9375   18.4448 C.ar    1  UNL1        0.0237
      7 S         -11.1400   -2.4964   18.1231 S.2     1  UNL1       -0.0561
      8 C          -9.6217   -4.6678   18.8237 C.3     1  UNL1        0.0343
      9 C          -9.6650   -6.1428   19.0927 C.3     1  UNL1        0.0060
     10 C         -10.9624   -6.8875   18.9828 C.3     1  UNL1        0.0107
     11 C         -12.2166   -6.1572   18.6040 C.3     1  UNL1        0.0627
     12 C         -13.5140   -6.9019   18.4941 C.ar    1  UNL1       -0.0169
     13 C         -14.6689   -6.5306   19.3763 C.ar    1  UNL1       -0.0039
     14 C         -15.9664   -7.2753   19.2664 C.ar    1  UNL1       -0.0003
     15 C         -16.1089   -8.3913   18.2743 C.ar    1  UNL1       -0.0000
     16 C         -14.9540   -8.7626   17.3921 C.ar    1  UNL1       -0.0003
     17 C         -13.6565   -8.0179   17.5020 C.ar    1  UNL1       -0.0039
     18 C         -15.8904    1.4617   19.0505 C.ar    1  UNL1        0.1404
     19 C         -14.8244    0.9008   18.1566 C.ar    1  UNL1        0.0515
     20 C         -14.3657   -0.5163   18.3342 C.ar    1  UNL1        0.0528
     21 C         -14.9729   -1.3724   19.4058 C.ar    1  UNL1        0.0149
     22 C         -16.0388   -0.8115   20.2997 C.ar    1  UNL1        0.0048
     23 C         -16.4976    0.6055   20.1221 C.ar    1  UNL1        0.0412
     24 C         -17.5636    1.1664   21.0161 C.ar    1  UNL1        0.0470
     25 S         -17.3373    2.0056   22.2386 S.2     1  UNL1       -0.0710
     26 C         -18.6768    2.3445   22.8226 C.ar    1  UNL1        0.0882
     27 C         -18.9196    3.1684   24.0523 C.3     1  UNL1        0.0594
     28 N         -19.7309    1.7147   21.9609 N.ar    1  UNL1       -0.2470
     29 C         -19.0428    0.9867   20.8444 C.ar    1  UNL1        0.0656
     30 C         -19.7158    0.2145   19.7487 C.3     1  UNL1        0.0526
     31 C         -15.4979    4.0103   19.3679 C.3     1  UNL1        0.2525
     32 O         -16.3492    2.8787   18.8729 O.3     1  UNL1       -0.4714
@<TRIPOS>BOND
     1    31    32    1
     2    32    18    1
     3    18    19   ar
     4    19    20   ar
     5    20     1    1
     6     1     3    1
     7     3     4   ar
     8     4     5   ar
     9     5     6   ar
    10     6     7   ar
    11     6     8    1
    12     8     9    1
    13     9    10    1
    14    10    11    1
    15    11    12    1
    16    12    13   ar
    17    13    14   ar
    18    14    15   ar
    19    15    16   ar
    20    16    17   ar
    21    20    21   ar
    22    21    22   ar
    23    22    23   ar
    24    23    24    1
    25    24    25   ar
    26    25    26   ar
    27    26    27    1
    28    26    28   ar
    29    28    29   ar
    30    29    30    1
    31    23    18   ar
    32    29    24   ar
    33     7     3   ar
    34    17    12   ar
    35    11     5    1
    36     1     2    1
@<TRIPOS>MOLECULE
*****
 32 36 0 0 0
SMALL
GASTEIGER

@<TRIPOS>ATOM
      1 N           4.0118   -0.3947   25.5465 N.pl3   1  UNL1       -0.2927
      2 H           4.8489   -0.9123   25.5721 H       1  UNL1        0.1541
      3 C           3.2736   -0.2261   24.2516 C.ar    1  UNL1        0.1629
      4 N           3.6478   -0.8432   22.9366 N.ar    1  UNL1       -0.2284
      5 C           2.6370   -0.4094   21.9167 C.ar    1  UNL1        0.0666
      6 C           1.6382    0.4758   22.6013 C.ar    1  UNL1        0.0237
      7 S           2.0316    0.5890   24.0444 S.2     1  UNL1       -0.0561
      8 C           0.4995    1.0643   21.8223 C.3     1  UNL1        0.0343
      9 C           0.3596    0.7677   20.3586 C.3     1  UNL1        0.0060
     10 C           1.3585   -0.1174   19.6740 C.3     1  UNL1        0.0107
     11 C           2.4972   -0.7060   20.4530 C.3     1  UNL1        0.0627
     12 C           3.4961   -1.5912   19.7683 C.ar    1  UNL1       -0.0169
     13 C           4.7444   -1.0006   19.1829 C.ar    1  UNL1       -0.0039
     14 C           5.7433   -1.8857   18.4982 C.ar    1  UNL1       -0.0003
     15 C           5.4938   -3.3615   18.3990 C.ar    1  UNL1       -0.0000
     16 C           4.2455   -3.9521   18.9845 C.ar    1  UNL1       -0.0003
     17 C           3.2466   -3.0669   19.6692 C.ar    1  UNL1       -0.0039
     18 C           1.7729    0.2181   28.7654 C.ar    1  UNL1        0.1404
     19 C           2.3100   -0.4019   27.5097 C.ar    1  UNL1        0.0515
     20 C           3.4746    0.2254   26.8022 C.ar    1  UNL1        0.0528
     21 C           4.1020    1.4726   27.3506 C.ar    1  UNL1        0.0149
     22 C           3.5647    2.0927   28.6065 C.ar    1  UNL1        0.0048
     23 C           2.4002    1.4654   29.3138 C.ar    1  UNL1        0.0412
     24 C           1.8630    2.0854   30.5697 C.ar    1  UNL1        0.0470
     25 S           0.9098    3.2413   30.6443 S.2     1  UNL1       -0.0710
     26 C           0.6423    3.5287   32.0921 C.ar    1  UNL1        0.0882
     27 C          -0.2554    4.6053   32.6260 C.3     1  UNL1        0.0594
     28 N           1.4302    2.5505   32.9121 N.ar    1  UNL1       -0.2470
     29 C           2.1846    1.6585   31.9712 C.ar    1  UNL1        0.0656
     30 C           3.0999    0.5366   32.3629 C.3     1  UNL1        0.0526
     31 C          -0.7819   -0.2198   28.9424 C.3     1  UNL1        0.2525
     32 O           0.6083   -0.4091   29.4729 O.3     1  UNL1       -0.4714
@<TRIPOS>BOND
     1    31    32    1
     2    32    18    1
     3    18    19   ar
     4    19    20   ar
     5    20     1    1
     6     1     3    1
     7     3     4   ar
     8     4     5   ar
     9     5     6   ar
    10     6     7   ar
    11     6     8    1
    12     8     9    1
    13     9    10    1
    14    10    11    1
    15    11    12    1
    16    12    13   ar
    17    13    14   ar
    18    14    15   ar
    19    15    16   ar
    20    16    17   ar
    21    20    21   ar
    22    21    22   ar
    23    22    23   ar
    24    23    24    1
    25    24    25   ar
    26    25    26   ar
    27    26    27    1
    28    26    28   ar
    29    28    29   ar
    30    29    30    1
    31    23    18   ar
    32    29    24   ar
    33     7     3   ar
    34    17    12   ar
    35    11     5    1
    36     1     2    1
@<TRIPOS>MOLECULE
*****
 32 36 0 0 0
SMALL
GASTEIGER

@<TRIPOS>ATOM
      1 N           3.4791    0.6657   26.0500 N.pl3   1  UNL1       -0.2927
      2 H           4.1756    0.7734   26.7374 H       1  UNL1        0.1541
      3 C           3.6933   -0.2822   24.9073 C.ar    1  UNL1        0.1629
      4 N           3.1906   -0.1015   23.5057 N.ar    1  UNL1       -0.2284
      5 C           3.6344   -1.2849   22.6978 C.ar    1  UNL1        0.0666
      6 C           4.4114   -2.1970   23.6002 C.ar    1  UNL1        0.0237
      7 S           4.4477   -1.5773   24.9658 S.2     1  UNL1       -0.0561
      8 C           4.9853   -3.4740   23.0619 C.3     1  UNL1        0.0343
      9 C           4.7824   -3.8389   21.6212 C.3     1  UNL1        0.0060
     10 C           4.0054   -2.9267   20.7188 C.3     1  UNL1        0.0107
     11 C           3.4314   -1.6497   21.2571 C.3     1  UNL1        0.0627
     12 C           2.6545   -0.7376   20.3547 C.ar    1  UNL1       -0.0169
     13 C           1.2226   -0.4164   20.6655 C.ar    1  UNL1       -0.0039
     14 C           0.4457    0.4958   19.7631 C.ar    1  UNL1       -0.0003
     15 C           1.1006    1.0868   18.5500 C.ar    1  UNL1       -0.0000
     16 C           2.5324    0.7656   18.2392 C.ar    1  UNL1       -0.0003
     17 C           3.3094   -0.1466   19.1416 C.ar    1  UNL1       -0.0039
     18 C          -0.1897    1.7435   27.1122 C.ar    1  UNL1        0.1404
     19 C           1.0856    0.9597   27.0170 C.ar    1  UNL1        0.0515
     20 C           2.2038    1.4495   26.1452 C.ar    1  UNL1        0.0528
     21 C           2.0465    2.7232   25.3687 C.ar    1  UNL1        0.0149
     22 C           0.7710    3.5071   25.4640 C.ar    1  UNL1        0.0048
     23 C          -0.3470    3.0172   26.3357 C.ar    1  UNL1        0.0412
     24 C          -1.6224    3.8010   26.4310 C.ar    1  UNL1        0.0470
     25 S          -2.9022    3.4931   25.7117 S.2     1  UNL1       -0.0710
     26 C          -3.9127    4.5322   26.0984 C.ar    1  UNL1        0.0882
     27 C          -5.3297    4.6079   25.6123 C.3     1  UNL1        0.0594
     28 N          -3.2573    5.4821   27.0567 N.ar    1  UNL1       -0.2470
     29 C          -1.8419    5.0302   27.2622 C.ar    1  UNL1        0.0656
     30 C          -0.8245    5.6914   28.1441 C.3     1  UNL1        0.0526
     31 C          -1.1442   -0.0113   28.7735 C.3     1  UNL1        0.2525
     32 O          -1.3078    1.2536   27.9840 O.3     1  UNL1       -0.4714
@<TRIPOS>BOND
     1    31    32    1
     2    32    18    1
     3    18    19   ar
     4    19    20   ar
     5    20     1    1
     6     1     3    1
     7     3     4   ar
     8     4     5   ar
     9     5     6   ar
    10     6     7   ar
    11     6     8    1
    12     8     9    1
    13     9    10    1
    14    10    11    1
    15    11    12    1
    16    12    13   ar
    17    13    14   ar
    18    14    15   ar
    19    15    16   ar
    20    16    17   ar
    21    20    21   ar
    22    21    22   ar
    23    22    23   ar
    24    23    24    1
    25    24    25   ar
    26    25    26   ar
    27    26    27    1
    28    26    28   ar
    29    28    29   ar
    30    29    30    1
    31    23    18   ar
    32    29    24   ar
    33     7     3   ar
    34    17    12   ar
    35    11     5    1
    36     1     2    1
@<TRIPOS>MOLECULE
*****
 32 36 0 0 0
SMALL
GASTEIGER

@<TRIPOS>ATOM
      1 N          -0.5752    3.1166   24.2600 N.pl3   1  UNL1       -0.2927
      2 H          -1.2572    3.8157   24.1362 H       1  UNL1        0.1541
      3 C          -0.0167    2.3944   23.0698 C.ar    1  UNL1        0.1629
      4 N           1.0066    1.2982   23.1039 N.ar    1  UNL1       -0.2284
      5 C           1.2723    0.8679   21.6917 C.ar    1  UNL1        0.0666
      6 C           0.4132    1.6983   20.7848 C.ar    1  UNL1        0.0237
      7 S          -0.3834    2.6417   21.6365 S.2     1  UNL1       -0.0561
      8 C           0.4673    1.4881   19.3006 C.3     1  UNL1        0.0343
      9 C           1.3804    0.4475   18.7233 C.3     1  UNL1        0.0060
     10 C           2.2395   -0.3828   19.6302 C.3     1  UNL1        0.0107
     11 C           2.1854   -0.1726   21.1144 C.3     1  UNL1        0.0627
     12 C           3.0445   -1.0030   22.0213 C.ar    1  UNL1       -0.0169
     13 C           3.7487   -2.2142   21.4857 C.ar    1  UNL1       -0.0039
     14 C           4.6078   -3.0446   22.3926 C.ar    1  UNL1       -0.0003
     15 C           4.7627   -2.6637   23.8351 C.ar    1  UNL1       -0.0000
     16 C           4.0585   -1.4524   24.3707 C.ar    1  UNL1       -0.0003
     17 C           3.1994   -0.6221   23.4638 C.ar    1  UNL1       -0.0039
     18 C          -0.4823    1.6219   27.9352 C.ar    1  UNL1        0.1404
     19 C          -0.9630    1.9649   26.5564 C.ar    1  UNL1        0.0515
     20 C          -0.0945    2.7736   25.6389 C.ar    1  UNL1        0.0528
     21 C           1.2547    3.2393   26.1003 C.ar    1  UNL1        0.0149
     22 C           1.7353    2.8963   27.4792 C.ar    1  UNL1        0.0048
     23 C           0.8668    2.0876   28.3966 C.ar    1  UNL1        0.0412
     24 C           1.3475    1.7446   29.7756 C.ar    1  UNL1        0.0470
     25 S           1.1609    2.5799   31.0074 S.2     1  UNL1       -0.0710
     26 C           1.7972    1.8576   32.1579 C.ar    1  UNL1        0.0882
     27 C           1.8452    2.3334   33.5797 C.3     1  UNL1        0.0594
     28 N           2.3770    0.5760   31.6370 N.ar    1  UNL1       -0.2470
     29 C           2.0991    0.5062   30.1647 C.ar    1  UNL1        0.0656
     30 C           2.5020   -0.6067   29.2431 C.3     1  UNL1        0.0526
     31 C          -1.3595   -0.6834   28.7515 C.3     1  UNL1        0.2525
     32 O          -1.3508    0.8132   28.8527 O.3     1  UNL1       -0.4714
@<TRIPOS>BOND
     1    31    32    1
     2    32    18    1
     3    18    19   ar
     4    19    20   ar
     5    20     1    1
     6     1     3    1
     7     3     4   ar
     8     4     5   ar
     9     5     6   ar
    10     6     7   ar
    11     6     8    1
    12     8     9    1
    13     9    10    1
    14    10    11    1
    15    11    12    1
    16    12    13   ar
    17    13    14   ar
    18    14    15   ar
    19    15    16   ar
    20    16    17   ar
    21    20    21   ar
    22    21    22   ar
    23    22    23   ar
    24    23    24    1
    25    24    25   ar
    26    25    26   ar
    27    26    27    1
    28    26    28   ar
    29    28    29   ar
    30    29    30    1
    31    23    18   ar
    32    29    24   ar
    33     7     3   ar
    34    17    12   ar
    35    11     5    1
    36     1     2    1
@<TRIPOS>MOLECULE
*****
 32 36 0 0 0
SMALL
GASTEIGER

@<TRIPOS>ATOM
      1 N           0.1033    3.8851   19.7601 N.pl3   1  UNL1       -0.2927
      2 H           0.5978    4.7354   19.8004 H       1  UNL1        0.1541
      3 C          -1.3842    3.8910   19.5665 C.ar    1  UNL1        0.1629
      4 N          -2.4148    3.9447   20.6550 N.ar    1  UNL1       -0.2284
      5 C          -3.7698    3.9311   20.0117 C.ar    1  UNL1        0.0666
      6 C          -3.5766    3.8690   18.5255 C.ar    1  UNL1        0.0237
      7 S          -2.1022    3.8442   18.2504 S.2     1  UNL1       -0.0561
      8 C          -4.7681    3.8431   17.6147 C.3     1  UNL1        0.0343
      9 C          -6.1528    3.8793   18.1902 C.3     1  UNL1        0.0060
     10 C          -6.3460    3.9414   19.6764 C.3     1  UNL1        0.0107
     11 C          -5.1545    3.9673   20.5871 C.3     1  UNL1        0.0627
     12 C          -5.3477    4.0294   22.0734 C.ar    1  UNL1       -0.0169
     13 C          -4.4825    3.2022   22.9773 C.ar    1  UNL1       -0.0039
     14 C          -4.6757    3.2643   24.4635 C.ar    1  UNL1       -0.0003
     15 C          -5.7340    4.1536   25.0458 C.ar    1  UNL1       -0.0000
     16 C          -6.5991    4.9808   24.1418 C.ar    1  UNL1       -0.0003
     17 C          -6.4060    4.9187   22.6556 C.ar    1  UNL1       -0.0039
     18 C           2.9987    1.1772   19.5755 C.ar    1  UNL1        0.1404
     19 C           2.2647    2.4787   19.4434 C.ar    1  UNL1        0.0515
     20 C           0.8372    2.5836   19.8922 C.ar    1  UNL1        0.0528
     21 C           0.1438    1.3871   20.4732 C.ar    1  UNL1        0.0149
     22 C           0.8778    0.0856   20.6053 C.ar    1  UNL1        0.0048
     23 C           2.3052   -0.0193   20.1565 C.ar    1  UNL1        0.0412
     24 C           3.0393   -1.3208   20.2886 C.ar    1  UNL1        0.0470
     25 S           3.2777   -2.3139   19.1900 S.2     1  UNL1       -0.0710
     26 C           4.0495   -3.4646   19.7649 C.ar    1  UNL1        0.0882
     27 C           4.5032   -4.6833   19.0172 C.3     1  UNL1        0.0594
     28 N           4.2881   -3.1824   21.2187 N.ar    1  UNL1       -0.2470
     29 C           3.6637   -1.8575   21.5424 C.ar    1  UNL1        0.0656
     30 C           3.6637   -1.1870   22.8841 C.3     1  UNL1        0.0526
     31 C           5.5388    1.3455   20.0948 C.3     1  UNL1        0.2525
     32 O           4.4261    1.0722   19.1266 O.3     1  UNL1       -0.4714
@<TRIPOS>BOND
     1    31    32    1
     2    32    18    1
     3    18    19   ar
     4    19    20   ar
     5    20     1    1
     6     1     3    1
     7     3     4   ar
     8     4     5   ar
     9     5     6   ar
    10     6     7   ar
    11     6     8    1
    12     8     9    1
    13     9    10    1
    14    10    11    1
    15    11    12    1
    16    12    13   ar
    17    13    14   ar
    18    14    15   ar
    19    15    16   ar
    20    16    17   ar
    21    20    21   ar
    22    21    22   ar
    23    22    23   ar
    24    23    24    1
    25    24    25   ar
    26    25    26   ar
    27    26    27    1
    28    26    28   ar
    29    28    29   ar
    30    29    30    1
    31    23    18   ar
    32    29    24   ar
    33     7     3   ar
    34    17    12   ar
    35    11     5    1
    36     1     2    1
