@<TRIPOS>MOLECULE
*****
 37 40 0 0 0
SMALL
GASTEIGER

@<TRIPOS>ATOM
      1 C          -7.1932  -19.5900   20.7704 C.ar    1  UNL1        0.0611
      2 C          -6.8253  -19.5731   19.3163 C.ar    1  UNL1        0.1037
      3 N          -8.0596  -19.2449   18.5297 N.ar    1  UNL1       -0.2269
      4 C          -9.1904  -19.0590   19.4976 C.ar    1  UNL1        0.1407
      5 N         -10.6384  -18.7231   19.2969 N.ar    1  UNL1       -0.3374
      6 C         -11.5510  -18.6005   20.4810 C.ar    1  UNL1        0.0735
      7 C         -11.0155  -18.8138   21.8658 C.ar    1  UNL1        0.0186
      8 C          -9.5675  -19.1497   22.0666 C.ar    1  UNL1        0.0047
      9 C          -8.6549  -19.2723   20.8824 C.ar    1  UNL1        0.0386
     10 H         -10.9899  -18.5832   18.3880 H       1  UNL1        0.1674
     11 C         -11.9281  -18.6911   23.0500 C.ar    1  UNL1        0.0207
     12 C         -13.3157  -18.1492   22.8745 C.ar    1  UNL1        0.0044
     13 C         -14.2284  -18.0265   24.0586 C.ar    1  UNL1        0.0339
     14 C         -13.7533  -18.4458   25.4182 C.ar    1  UNL1        0.1254
     15 N         -14.6659  -18.3232   26.6023 N.pl3   1  UNL1       -0.3426
     16 N         -12.3656  -18.9878   25.5937 N.ar    1  UNL1       -0.2296
     17 C         -11.4531  -19.1104   24.4096 C.ar    1  UNL1        0.1003
     18 H         -15.5766  -17.9675   26.4872 H       1  UNL1        0.1437
     19 H         -14.3541  -18.5984   27.4947 H       1  UNL1        0.1437
     20 C          -6.2628  -19.8747   21.9120 C.2     1  UNL1        0.2015
     21 O          -6.3688  -21.1699   22.6609 O.2     1  UNL1       -0.2864
     22 C          -4.5995  -16.5934   23.4011 C.ar    1  UNL1        0.0920
     23 C          -3.1534  -16.8425   23.0901 C.ar    1  UNL1        0.0204
     24 C          -2.7437  -18.1023   22.3865 C.ar    1  UNL1        0.0312
     25 C          -3.7801  -19.1130   21.9938 C.ar    1  UNL1        0.1454
     26 F          -3.3705  -20.3729   21.2902 F       1  UNL1       -0.2040
     27 C          -5.2263  -18.8639   22.3047 C.ar    1  UNL1        0.0951
     28 C          -5.6359  -17.6041   23.0083 C.ar    1  UNL1        0.1598
     29 F          -7.0821  -17.3551   23.3192 F       1  UNL1       -0.2026
     30 N          -5.0091  -15.3336   24.1047 N.pl3   1  UNL1       -0.2166
     31 H          -4.7693  -14.4575   23.7251 H       1  UNL1        0.1734
     32 S          -5.7843  -15.4087   25.3866 S.O2    1  UNL1        0.0540
     33 O          -6.9022  -14.6323   24.7562 O.2     1  UNL1       -0.1545
     34 O          -4.6664  -16.1851   26.0171 O.2     1  UNL1       -0.1545
     35 C          -6.5594  -15.4838   26.6686 C.3     1  UNL1        0.1724
     36 C          -8.6925  -16.9493   26.8970 C.3     1  UNL1        0.0019
     37 C          -8.0530  -15.6180   26.6353 C.3     1  UNL1        0.0273
@<TRIPOS>BOND
     1    36    37    1
     2    37    35    1
     3    35    32    1
     4    32    33    2
     5    32    34    2
     6    32    30    1
     7    30    22    1
     8    22    23   ar
     9    23    24   ar
    10    24    25   ar
    11    25    26    1
    12    25    27   ar
    13    27    20    1
    14    20    21    2
    15    20     1    1
    16     1     2   ar
    17     2     3   ar
    18     3     4   ar
    19     4     5   ar
    20     5     6   ar
    21     6     7   ar
    22     7    11    1
    23    11    12   ar
    24    12    13   ar
    25    13    14   ar
    26    14    15    1
    27    14    16   ar
    28    16    17   ar
    29     7     8   ar
    30     8     9   ar
    31    27    28   ar
    32    28    29    1
    33    28    22   ar
    34     9     1   ar
    35     9     4    1
    36    17    11   ar
    37    30    31    1
    38     5    10    1
    39    15    18    1
    40    15    19    1
@<TRIPOS>MOLECULE
*****
 37 40 0 0 0
SMALL
GASTEIGER

@<TRIPOS>ATOM
      1 C         -10.2199   -4.3110   17.7609 C.ar    1  UNL1        0.0611
      2 C          -9.0716   -4.4331   16.8036 C.ar    1  UNL1        0.1037
      3 N          -9.0172   -3.1789   15.9827 N.ar    1  UNL1       -0.2269
      4 C         -10.1318   -2.2816   16.4327 C.ar    1  UNL1        0.1407
      5 N         -10.5659   -0.9178   15.9837 N.ar    1  UNL1       -0.3374
      6 C         -11.7434   -0.2538   16.6337 C.ar    1  UNL1        0.0735
      7 C         -12.4867   -0.9535   17.7327 C.ar    1  UNL1        0.0186
      8 C         -12.0526   -2.3172   18.1817 C.ar    1  UNL1        0.0047
      9 C         -10.8751   -2.9813   17.5317 C.ar    1  UNL1        0.0386
     10 H         -10.0780   -0.4586   15.2624 H       1  UNL1        0.1674
     11 C         -13.6642   -0.2894   18.3828 C.ar    1  UNL1        0.0207
     12 C         -14.6456   -1.1060   19.1702 C.ar    1  UNL1        0.0044
     13 C         -15.8231   -0.4418   19.8202 C.ar    1  UNL1        0.0339
     14 C         -16.0192    1.0389   19.6828 C.ar    1  UNL1        0.1254
     15 N         -17.1966    1.7031   20.3327 N.pl3   1  UNL1       -0.3426
     16 N         -15.0378    1.8555   18.8953 N.ar    1  UNL1       -0.2296
     17 C         -13.8604    1.1914   18.2453 C.ar    1  UNL1        0.1003
     18 H         -17.8407    1.1671   20.8496 H       1  UNL1        0.1437
     19 H         -17.3253    2.6749   20.2425 H       1  UNL1        0.1437
     20 C         -10.6394   -5.3382   18.7703 C.2     1  UNL1        0.2015
     21 O          -9.6195   -5.9552   19.6809 O.2     1  UNL1       -0.2864
     22 C         -14.0197   -7.3317   18.1786 C.ar    1  UNL1        0.0920
     23 C         -14.9576   -6.5692   19.0668 C.ar    1  UNL1        0.0204
     24 C         -14.4561   -5.3964   19.8561 C.ar    1  UNL1        0.0312
     25 C         -13.0168   -4.9860   19.7573 C.ar    1  UNL1        0.1454
     26 F         -12.5153   -3.8132   20.5467 F       1  UNL1       -0.2040
     27 C         -12.0788   -5.7486   18.8692 C.ar    1  UNL1        0.0951
     28 C         -12.5803   -6.9214   18.0798 C.ar    1  UNL1        0.1598
     29 F         -11.6423   -7.6839   17.1917 F       1  UNL1       -0.2026
     30 N         -14.5211   -8.5045   17.3893 N.pl3   1  UNL1       -0.2166
     31 H         -14.0008   -8.8420   16.6248 H       1  UNL1        0.1734
     32 S         -15.8155   -9.1630   17.7648 S.O2    1  UNL1        0.0540
     33 O         -15.0986   -9.9845   18.7950 O.2     1  UNL1       -0.1545
     34 O         -16.5323   -8.3415   16.7347 O.2     1  UNL1       -0.1545
     35 C         -17.1098   -9.8215   18.1403 C.3     1  UNL1        0.1724
     36 C         -18.3431   -8.5548   20.0442 C.3     1  UNL1        0.0019
     37 C         -17.5981   -9.7622   19.5574 C.3     1  UNL1        0.0273
@<TRIPOS>BOND
     1    36    37    1
     2    37    35    1
     3    35    32    1
     4    32    33    2
     5    32    34    2
     6    32    30    1
     7    30    22    1
     8    22    23   ar
     9    23    24   ar
    10    24    25   ar
    11    25    26    1
    12    25    27   ar
    13    27    20    1
    14    20    21    2
    15    20     1    1
    16     1     2   ar
    17     2     3   ar
    18     3     4   ar
    19     4     5   ar
    20     5     6   ar
    21     6     7   ar
    22     7    11    1
    23    11    12   ar
    24    12    13   ar
    25    13    14   ar
    26    14    15    1
    27    14    16   ar
    28    16    17   ar
    29     7     8   ar
    30     8     9   ar
    31    27    28   ar
    32    28    29    1
    33    28    22   ar
    34     9     1   ar
    35     9     4    1
    36    17    11   ar
    37    30    31    1
    38     5    10    1
    39    15    18    1
    40    15    19    1
@<TRIPOS>MOLECULE
*****
 37 40 0 0 0
SMALL
GASTEIGER

@<TRIPOS>ATOM
      1 C         -10.5265   -5.1022   17.8366 C.ar    1  UNL1        0.0611
      2 C          -9.2349   -4.8995   17.1014 C.ar    1  UNL1        0.1037
      3 N          -9.1733   -3.4676   16.6587 N.ar    1  UNL1       -0.2269
      4 C         -10.4269   -2.7854   17.1203 C.ar    1  UNL1        0.1407
      5 N         -10.9149   -1.3748   16.9718 N.ar    1  UNL1       -0.3374
      6 C         -12.2392   -0.9745   17.5513 C.ar    1  UNL1        0.0735
      7 C         -13.0756   -1.9847   18.2793 C.ar    1  UNL1        0.0186
      8 C         -12.5876   -3.3953   18.4278 C.ar    1  UNL1        0.0047
      9 C         -11.2633   -3.7956   17.8483 C.ar    1  UNL1        0.0386
     10 H         -10.3660   -0.7118   16.4940 H       1  UNL1        0.1674
     11 C         -14.4000   -1.5843   18.8588 C.ar    1  UNL1        0.0207
     12 C         -14.7907   -0.1369   18.9069 C.ar    1  UNL1        0.0044
     13 C         -16.1151    0.2635   19.4864 C.ar    1  UNL1        0.0339
     14 C         -17.0487   -0.7835   20.0177 C.ar    1  UNL1        0.1254
     15 N         -18.3730   -0.3831   20.5972 N.pl3   1  UNL1       -0.3426
     16 N         -16.6578   -2.2309   19.9695 N.ar    1  UNL1       -0.2296
     17 C         -15.3335   -2.6313   19.3901 C.ar    1  UNL1        0.1003
     18 H         -18.6295    0.5668   20.6288 H       1  UNL1        0.1437
     19 H         -18.9857   -1.0703   20.9459 H       1  UNL1        0.1437
     20 C         -10.9986   -6.3861   18.4521 C.2     1  UNL1        0.2015
     21 O         -10.1020   -7.1450   19.3847 O.2     1  UNL1       -0.2864
     22 C         -14.8850   -7.1385   18.7354 C.ar    1  UNL1        0.0920
     23 C         -15.1053   -7.9610   17.5004 C.ar    1  UNL1        0.0204
     24 C         -13.9567   -8.2585   16.5828 C.ar    1  UNL1        0.0312
     25 C         -12.5878   -7.7336   16.8999 C.ar    1  UNL1        0.1454
     26 F         -11.4392   -8.0311   15.9822 F       1  UNL1       -0.2040
     27 C         -12.3676   -6.9111   18.1348 C.ar    1  UNL1        0.0951
     28 C         -13.5162   -6.6136   19.0525 C.ar    1  UNL1        0.1598
     29 F         -13.2959   -5.7910   20.2874 F       1  UNL1       -0.2026
     30 N         -16.0337   -6.8410   19.6531 N.pl3   1  UNL1       -0.2166
     31 H         -15.9972   -6.0586   20.2496 H       1  UNL1        0.1734
     32 S         -17.2378   -7.7354   19.6618 S.O2    1  UNL1        0.0540
     33 O         -18.0112   -6.7016   18.8983 O.2     1  UNL1       -0.1545
     34 O         -16.4643   -8.7692   20.4253 O.2     1  UNL1       -0.1545
     35 C         -18.4418   -8.6299   19.6706 C.3     1  UNL1        0.1724
     36 C         -18.5127  -10.0145   17.4733 C.3     1  UNL1        0.0019
     37 C         -19.1204   -8.9868   18.3813 C.3     1  UNL1        0.0273
@<TRIPOS>BOND
     1    36    37    1
     2    37    35    1
     3    35    32    1
     4    32    33    2
     5    32    34    2
     6    32    30    1
     7    30    22    1
     8    22    23   ar
     9    23    24   ar
    10    24    25   ar
    11    25    26    1
    12    25    27   ar
    13    27    20    1
    14    20    21    2
    15    20     1    1
    16     1     2   ar
    17     2     3   ar
    18     3     4   ar
    19     4     5   ar
    20     5     6   ar
    21     6     7   ar
    22     7    11    1
    23    11    12   ar
    24    12    13   ar
    25    13    14   ar
    26    14    15    1
    27    14    16   ar
    28    16    17   ar
    29     7     8   ar
    30     8     9   ar
    31    27    28   ar
    32    28    29    1
    33    28    22   ar
    34     9     1   ar
    35     9     4    1
    36    17    11   ar
    37    30    31    1
    38     5    10    1
    39    15    18    1
    40    15    19    1
@<TRIPOS>MOLECULE
*****
 37 40 0 0 0
SMALL
GASTEIGER

@<TRIPOS>ATOM
      1 C         -12.3691   -2.8430   18.8040 C.ar    1  UNL1        0.0611
      2 C         -11.1424   -2.5492   17.9923 C.ar    1  UNL1        0.1037
      3 N         -11.2376   -1.1340   17.5043 N.ar    1  UNL1       -0.2269
      4 C         -12.5231   -0.5532   18.0143 C.ar    1  UNL1        0.1407
      5 N         -13.1473    0.8010   17.8511 N.ar    1  UNL1       -0.3374
      6 C         -14.4707    1.0989   18.4911 C.ar    1  UNL1        0.0735
      7 C         -15.1700    0.0426   19.2944 C.ar    1  UNL1        0.0186
      8 C         -14.5459   -1.3115   19.4577 C.ar    1  UNL1        0.0047
      9 C         -13.2225   -1.6094   18.8176 C.ar    1  UNL1        0.0386
     10 H         -12.6883    1.4942   17.3238 H       1  UNL1        0.1674
     11 C         -16.4935    0.3406   19.9345 C.ar    1  UNL1        0.0207
     12 C         -16.7894    1.7226   20.4371 C.ar    1  UNL1        0.0044
     13 C         -18.1129    2.0205   21.0771 C.ar    1  UNL1        0.0339
     14 C         -19.1405    0.9365   21.2146 C.ar    1  UNL1        0.1254
     15 N         -20.4639    1.2344   21.8546 N.pl3   1  UNL1       -0.3426
     16 N         -18.8446   -0.4455   20.7120 N.ar    1  UNL1       -0.2296
     17 C         -17.5211   -0.7435   20.0720 C.ar    1  UNL1        0.1003
     18 H         -20.6582    2.1414   22.1845 H       1  UNL1        0.1437
     19 H         -21.1384    0.5229   21.9448 H       1  UNL1        0.1437
     20 C         -12.6868   -4.1423   19.4830 C.2     1  UNL1        0.2015
     21 O         -13.3819   -4.1437   20.8121 O.2     1  UNL1       -0.2864
     22 C         -12.9793   -7.5688   17.5021 C.ar    1  UNL1        0.0920
     23 C         -11.5542   -8.0361   17.5321 C.ar    1  UNL1        0.0204
     24 C         -10.5067   -7.2055   18.2124 C.ar    1  UNL1        0.0312
     25 C         -10.8842   -5.9076   18.8627 C.ar    1  UNL1        0.1454
     26 F          -9.8367   -5.0769   19.5429 F       1  UNL1       -0.2040
     27 C         -12.3092   -5.4403   18.8327 C.ar    1  UNL1        0.0951
     28 C         -13.3567   -6.2709   18.1524 C.ar    1  UNL1        0.1598
     29 F         -14.7818   -5.8035   18.1225 F       1  UNL1       -0.2026
     30 N         -14.0268   -8.3995   16.8219 N.pl3   1  UNL1       -0.2166
     31 H         -13.8918   -8.6984   15.8936 H       1  UNL1        0.1734
     32 S         -15.2799   -8.7746   17.5559 S.O2    1  UNL1        0.0540
     33 O         -14.4640   -9.5300   18.5627 O.2     1  UNL1       -0.1545
     34 O         -16.0958   -8.0193   16.5491 O.2     1  UNL1       -0.1545
     35 C         -16.5331   -9.1498   18.2899 C.3     1  UNL1        0.1724
     36 C         -17.4300   -7.1790   19.7259 C.3     1  UNL1        0.0019
     37 C         -16.8244   -8.5482   19.6328 C.3     1  UNL1        0.0273
@<TRIPOS>BOND
     1    36    37    1
     2    37    35    1
     3    35    32    1
     4    32    33    2
     5    32    34    2
     6    32    30    1
     7    30    22    1
     8    22    23   ar
     9    23    24   ar
    10    24    25   ar
    11    25    26    1
    12    25    27   ar
    13    27    20    1
    14    20    21    2
    15    20     1    1
    16     1     2   ar
    17     2     3   ar
    18     3     4   ar
    19     4     5   ar
    20     5     6   ar
    21     6     7   ar
    22     7    11    1
    23    11    12   ar
    24    12    13   ar
    25    13    14   ar
    26    14    15    1
    27    14    16   ar
    28    16    17   ar
    29     7     8   ar
    30     8     9   ar
    31    27    28   ar
    32    28    29    1
    33    28    22   ar
    34     9     1   ar
    35     9     4    1
    36    17    11   ar
    37    30    31    1
    38     5    10    1
    39    15    18    1
    40    15    19    1
@<TRIPOS>MOLECULE
*****
 37 40 0 0 0
SMALL
GASTEIGER

@<TRIPOS>ATOM
      1 C           5.0718   -3.4182   22.4065 C.ar    1  UNL1        0.0611
      2 C           6.1735   -4.0994   23.1627 C.ar    1  UNL1        0.1037
      3 N           6.2798   -3.4511   24.5112 N.ar    1  UNL1       -0.2269
      4 C           5.2437   -2.3692   24.5884 C.ar    1  UNL1        0.1407
      5 N           4.8836   -1.4000   25.6751 N.ar    1  UNL1       -0.3374
      6 C           3.7769   -0.4104   25.4610 C.ar    1  UNL1        0.0735
      7 C           3.0303   -0.3900   24.1601 C.ar    1  UNL1        0.0186
      8 C           3.3904   -1.3592   23.0734 C.ar    1  UNL1        0.0047
      9 C           4.4971   -2.3488   23.2876 C.ar    1  UNL1        0.0386
     10 H           5.3736   -1.4134   26.5289 H       1  UNL1        0.1674
     11 C           1.9236    0.5997   23.9460 C.ar    1  UNL1        0.0207
     12 C           1.4297    0.8840   22.5585 C.ar    1  UNL1        0.0044
     13 C           0.3230    1.8736   22.3444 C.ar    1  UNL1        0.0339
     14 C          -0.2898    2.5790   23.5179 C.ar    1  UNL1        0.1254
     15 N          -1.3965    3.5686   23.3038 N.pl3   1  UNL1       -0.3426
     16 N           0.2041    2.2946   24.9054 N.ar    1  UNL1       -0.2296
     17 C           1.3108    1.3050   25.1195 C.ar    1  UNL1        0.1003
     18 H          -1.7207    3.7552   22.3932 H       1  UNL1        0.1437
     19 H          -1.7987    4.0315   24.0740 H       1  UNL1        0.1437
     20 C           4.6233   -3.7482   21.0137 C.2     1  UNL1        0.2015
     21 O           3.8660   -5.0158   20.7501 O.2     1  UNL1       -0.2864
     22 C           4.1498   -1.0385   18.1529 C.ar    1  UNL1        0.0920
     23 C           5.5503   -0.9354   17.6256 C.ar    1  UNL1        0.0204
     24 C           6.6417   -1.7699   18.2276 C.ar    1  UNL1        0.0312
     25 C           6.3328   -2.7075   19.3569 C.ar    1  UNL1        0.1454
     26 F           7.4243   -3.5419   19.9589 F       1  UNL1       -0.2040
     27 C           4.9324   -2.8106   19.8842 C.ar    1  UNL1        0.0951
     28 C           3.8409   -1.9761   19.2823 C.ar    1  UNL1        0.1598
     29 F           2.4405   -2.0793   19.8097 F       1  UNL1       -0.2026
     30 N           3.0584   -0.2041   17.5509 N.pl3   1  UNL1       -0.2166
     31 H           2.7107   -0.4199   16.6555 H       1  UNL1        0.1734
     32 S           2.4967    0.9593   18.3132 S.O2    1  UNL1        0.0540
     33 O           1.1249    0.3601   18.2168 O.2     1  UNL1       -0.1545
     34 O           3.8684    1.5584   18.4096 O.2     1  UNL1       -0.1545
     35 C           1.9351    2.1226   19.0755 C.3     1  UNL1        0.1724
     36 C           0.5042    4.0037   17.9964 C.3     1  UNL1        0.0019
     37 C           0.5946    2.6850   18.7055 C.3     1  UNL1        0.0273
@<TRIPOS>BOND
     1    36    37    1
     2    37    35    1
     3    35    32    1
     4    32    33    2
     5    32    34    2
     6    32    30    1
     7    30    22    1
     8    22    23   ar
     9    23    24   ar
    10    24    25   ar
    11    25    26    1
    12    25    27   ar
    13    27    20    1
    14    20    21    2
    15    20     1    1
    16     1     2   ar
    17     2     3   ar
    18     3     4   ar
    19     4     5   ar
    20     5     6   ar
    21     6     7   ar
    22     7    11    1
    23    11    12   ar
    24    12    13   ar
    25    13    14   ar
    26    14    15    1
    27    14    16   ar
    28    16    17   ar
    29     7     8   ar
    30     8     9   ar
    31    27    28   ar
    32    28    29    1
    33    28    22   ar
    34     9     1   ar
    35     9     4    1
    36    17    11   ar
    37    30    31    1
    38     5    10    1
    39    15    18    1
    40    15    19    1
@<TRIPOS>MOLECULE
*****
 37 40 0 0 0
SMALL
GASTEIGER

@<TRIPOS>ATOM
      1 C          -8.3486  -19.7893   19.8588 C.ar    1  UNL1        0.0611
      2 C          -9.4305  -20.0374   18.8499 C.ar    1  UNL1        0.1037
      3 N         -10.5884  -19.1439   19.1829 N.ar    1  UNL1       -0.2269
      4 C         -10.2221  -18.3436   20.3976 C.ar    1  UNL1        0.1407
      5 N         -10.9702  -17.3032   21.1772 N.ar    1  UNL1       -0.3374
      6 C         -10.3340  -16.6617   22.3746 C.ar    1  UNL1        0.0735
      7 C          -8.9496  -17.0607   22.7923 C.ar    1  UNL1        0.0186
      8 C          -8.2015  -18.1010   22.0126 C.ar    1  UNL1        0.0047
      9 C          -8.8377  -18.7425   20.8153 C.ar    1  UNL1        0.0386
     10 H         -11.8788  -17.0414   20.9031 H       1  UNL1        0.1674
     11 C          -8.3134  -16.4191   23.9897 C.ar    1  UNL1        0.0207
     12 C          -8.9508  -16.5549   25.3407 C.ar    1  UNL1        0.0044
     13 C          -8.3146  -15.9134   26.5381 C.ar    1  UNL1        0.0339
     14 C          -7.0409  -15.1361   26.3844 C.ar    1  UNL1        0.1254
     15 N          -6.4047  -14.4945   27.5817 N.pl3   1  UNL1       -0.3426
     16 N          -6.4035  -15.0003   25.0333 N.ar    1  UNL1       -0.2296
     17 C          -7.0397  -15.6418   23.8360 C.ar    1  UNL1        0.1003
     18 H          -6.8231  -14.5837   28.4685 H       1  UNL1        0.1437
     19 H          -5.5688  -13.9844   27.4809 H       1  UNL1        0.1437
     20 C          -7.0120  -20.4687   19.9033 C.2     1  UNL1        0.2015
     21 O          -6.8218  -21.7947   19.2285 O.2     1  UNL1       -0.2864
     22 C          -3.8082  -18.2356   20.6097 C.ar    1  UNL1        0.0920
     23 C          -3.5727  -18.5290   22.0618 C.ar    1  UNL1        0.0204
     24 C          -4.4837  -19.4689   22.7944 C.ar    1  UNL1        0.0312
     25 C          -5.6301  -20.1155   22.0749 C.ar    1  UNL1        0.1454
     26 F          -6.5410  -21.0554   22.8075 F       1  UNL1       -0.2040
     27 C          -5.8655  -19.8221   20.6229 C.ar    1  UNL1        0.0951
     28 C          -4.9546  -18.8822   19.8903 C.ar    1  UNL1        0.1598
     29 F          -5.1901  -18.5889   18.4382 F       1  UNL1       -0.2026
     30 N          -2.8972  -17.2957   19.8771 N.pl3   1  UNL1       -0.2166
     31 H          -3.2585  -16.4720   19.4768 H       1  UNL1        0.1734
     32 S          -1.4358  -17.6107   19.7545 S.O2    1  UNL1        0.0540
     33 O          -1.1292  -16.6049   20.8242 O.2     1  UNL1       -0.1545
     34 O          -1.7424  -18.6165   18.6848 O.2     1  UNL1       -0.1545
     35 C           0.0255  -17.9258   19.6318 C.3     1  UNL1        0.1724
     36 C           2.2806  -17.7381   20.9085 C.3     1  UNL1        0.0019
     37 C           1.0358  -17.0979   20.3693 C.3     1  UNL1        0.0273
@<TRIPOS>BOND
     1    36    37    1
     2    37    35    1
     3    35    32    1
     4    32    33    2
     5    32    34    2
     6    32    30    1
     7    30    22    1
     8    22    23   ar
     9    23    24   ar
    10    24    25   ar
    11    25    26    1
    12    25    27   ar
    13    27    20    1
    14    20    21    2
    15    20     1    1
    16     1     2   ar
    17     2     3   ar
    18     3     4   ar
    19     4     5   ar
    20     5     6   ar
    21     6     7   ar
    22     7    11    1
    23    11    12   ar
    24    12    13   ar
    25    13    14   ar
    26    14    15    1
    27    14    16   ar
    28    16    17   ar
    29     7     8   ar
    30     8     9   ar
    31    27    28   ar
    32    28    29    1
    33    28    22   ar
    34     9     1   ar
    35     9     4    1
    36    17    11   ar
    37    30    31    1
    38     5    10    1
    39    15    18    1
    40    15    19    1
@<TRIPOS>MOLECULE
*****
 37 40 0 0 0
SMALL
GASTEIGER

@<TRIPOS>ATOM
      1 C           5.7394   -2.7054   19.6666 C.ar    1  UNL1        0.0611
      2 C           6.4453   -2.0047   18.5438 C.ar    1  UNL1        0.1037
      3 N           7.9215   -2.1805   18.7431 N.ar    1  UNL1       -0.2269
      4 C           8.1280   -2.9899   19.9890 C.ar    1  UNL1        0.1407
      5 N           9.3699   -3.4734   20.6774 N.ar    1  UNL1       -0.3374
      6 C           9.2631   -4.2813   21.9367 C.ar    1  UNL1        0.0735
      7 C           7.9144   -4.6057   22.5075 C.ar    1  UNL1        0.0186
      8 C           6.6725   -4.1222   21.8190 C.ar    1  UNL1        0.0047
      9 C           6.7794   -3.3143   20.5598 C.ar    1  UNL1        0.0386
     10 H          10.2551   -3.2604   20.3028 H       1  UNL1        0.1674
     11 C           7.8076   -5.4137   23.7668 C.ar    1  UNL1        0.0207
     12 C           8.3927   -6.7936   23.8244 C.ar    1  UNL1        0.0044
     13 C           8.2859   -7.6016   25.0838 C.ar    1  UNL1        0.0339
     14 C           7.5940   -7.0296   26.2854 C.ar    1  UNL1        0.1254
     15 N           7.4872   -7.8375   27.5447 N.pl3   1  UNL1       -0.3426
     16 N           7.0089   -5.6495   26.2278 N.ar    1  UNL1       -0.2296
     17 C           7.1157   -4.8416   24.9685 C.ar    1  UNL1        0.1003
     18 H           7.8712   -8.7432   27.5826 H       1  UNL1        0.1437
     19 H           7.0331   -7.4620   28.3334 H       1  UNL1        0.1437
     20 C           4.2542   -2.7835   19.8620 C.2     1  UNL1        0.2015
     21 O           3.4960   -3.9834   19.3771 O.2     1  UNL1       -0.2864
     22 C           2.7427   -0.4828   22.7208 C.ar    1  UNL1        0.0920
     23 C           2.0732    0.5820   21.9034 C.ar    1  UNL1        0.0204
     24 C           2.1307    0.5249   20.4056 C.ar    1  UNL1        0.0312
     25 C           2.8577   -0.5969   19.7251 C.ar    1  UNL1        0.1454
     26 F           2.9151   -0.6540   18.2273 F       1  UNL1       -0.2040
     27 C           3.5272   -1.6616   20.5425 C.ar    1  UNL1        0.0951
     28 C           3.4697   -1.6045   22.0403 C.ar    1  UNL1        0.1598
     29 F           4.1393   -2.6693   22.8576 F       1  UNL1       -0.2026
     30 N           2.6853   -0.4256   24.2186 N.pl3   1  UNL1       -0.2166
     31 H           1.8207   -0.5113   24.6816 H       1  UNL1        0.1734
     32 S           3.9451   -0.2380   25.0108 S.O2    1  UNL1        0.0540
     33 O           3.7507   -1.5861   25.6391 O.2     1  UNL1       -0.1545
     34 O           4.1394    1.1101   24.3825 O.2     1  UNL1       -0.1545
     35 C           5.2048   -0.0502   25.8030 C.3     1  UNL1        0.1724
     36 C           7.2672   -1.1720   24.6901 C.3     1  UNL1        0.0019
     37 C           6.2591   -1.1173   25.7994 C.3     1  UNL1        0.0273
@<TRIPOS>BOND
     1    36    37    1
     2    37    35    1
     3    35    32    1
     4    32    33    2
     5    32    34    2
     6    32    30    1
     7    30    22    1
     8    22    23   ar
     9    23    24   ar
    10    24    25   ar
    11    25    26    1
    12    25    27   ar
    13    27    20    1
    14    20    21    2
    15    20     1    1
    16     1     2   ar
    17     2     3   ar
    18     3     4   ar
    19     4     5   ar
    20     5     6   ar
    21     6     7   ar
    22     7    11    1
    23    11    12   ar
    24    12    13   ar
    25    13    14   ar
    26    14    15    1
    27    14    16   ar
    28    16    17   ar
    29     7     8   ar
    30     8     9   ar
    31    27    28   ar
    32    28    29    1
    33    28    22   ar
    34     9     1   ar
    35     9     4    1
    36    17    11   ar
    37    30    31    1
    38     5    10    1
    39    15    18    1
    40    15    19    1
@<TRIPOS>MOLECULE
*****
 37 40 0 0 0
SMALL
GASTEIGER

@<TRIPOS>ATOM
      1 C           6.6369   -3.2970   29.9119 C.ar    1  UNL1        0.0611
      2 C           6.7308   -4.1844   31.1176 C.ar    1  UNL1        0.1037
      3 N           6.9167   -5.5947   30.6418 N.ar    1  UNL1       -0.2269
      4 C           6.9378   -5.5789   29.1420 C.ar    1  UNL1        0.1407
      5 N           7.0921   -6.6742   28.1288 N.ar    1  UNL1       -0.3374
      6 C           7.0735   -6.3494   26.6646 C.ar    1  UNL1        0.0735
      7 C           6.9006   -4.9293   26.2135 C.ar    1  UNL1        0.0186
      8 C           6.7463   -3.8340   27.2267 C.ar    1  UNL1        0.0047
      9 C           6.7649   -4.1589   28.6909 C.ar    1  UNL1        0.0386
     10 H           7.2056   -7.6062   28.4249 H       1  UNL1        0.1674
     11 C           6.8820   -4.6045   24.7492 C.ar    1  UNL1        0.0207
     12 C           5.9878   -3.5161   24.2336 C.ar    1  UNL1        0.0044
     13 C           5.9692   -3.1913   22.7693 C.ar    1  UNL1        0.0339
     14 C           6.8448   -3.9550   21.8205 C.ar    1  UNL1        0.1254
     15 N           6.8262   -3.6302   20.3563 N.pl3   1  UNL1       -0.3426
     16 N           7.7391   -5.0434   22.3361 N.ar    1  UNL1       -0.2296
     17 C           7.7576   -5.3681   23.8004 C.ar    1  UNL1        0.1003
     18 H           6.2393   -2.9159   20.0179 H       1  UNL1        0.1437
     19 H           7.4010   -4.1314   19.7336 H       1  UNL1        0.1437
     20 C           6.4483   -1.8090   29.9249 C.2     1  UNL1        0.2015
     21 O           7.6184   -0.9024   29.6827 O.2     1  UNL1       -0.2864
     22 C           2.7510   -0.5051   29.3079 C.ar    1  UNL1        0.0920
     23 C           2.3714   -0.0645   30.6905 C.ar    1  UNL1        0.0204
     24 C           3.3507   -0.2054   31.8180 C.ar    1  UNL1        0.0312
     25 C           4.7096   -0.7869   31.5628 C.ar    1  UNL1        0.1454
     26 F           5.6889   -0.9278   32.6903 F       1  UNL1       -0.2040
     27 C           5.0892   -1.2275   30.1801 C.ar    1  UNL1        0.0951
     28 C           4.1100   -1.0866   29.0527 C.ar    1  UNL1        0.1598
     29 F           4.4897   -1.5272   27.6700 F       1  UNL1       -0.2026
     30 N           1.7717   -0.3642   28.1804 N.pl3   1  UNL1       -0.2166
     31 H           1.7655   -1.0227   27.4486 H       1  UNL1        0.1734
     32 S           0.8020    0.7801   28.1680 S.O2    1  UNL1        0.0540
     33 O          -0.3185   -0.1661   28.4830 O.2     1  UNL1       -0.1545
     34 O           1.9224    1.7263   27.8530 O.2     1  UNL1       -0.1545
     35 C          -0.1677    1.9244   28.1555 C.3     1  UNL1        0.1724
     36 C          -0.5189    1.8102   25.5837 C.3     1  UNL1        0.0019
     37 C          -1.0261    2.1670   26.9495 C.3     1  UNL1        0.0273
@<TRIPOS>BOND
     1    36    37    1
     2    37    35    1
     3    35    32    1
     4    32    33    2
     5    32    34    2
     6    32    30    1
     7    30    22    1
     8    22    23   ar
     9    23    24   ar
    10    24    25   ar
    11    25    26    1
    12    25    27   ar
    13    27    20    1
    14    20    21    2
    15    20     1    1
    16     1     2   ar
    17     2     3   ar
    18     3     4   ar
    19     4     5   ar
    20     5     6   ar
    21     6     7   ar
    22     7    11    1
    23    11    12   ar
    24    12    13   ar
    25    13    14   ar
    26    14    15    1
    27    14    16   ar
    28    16    17   ar
    29     7     8   ar
    30     8     9   ar
    31    27    28   ar
    32    28    29    1
    33    28    22   ar
    34     9     1   ar
    35     9     4    1
    36    17    11   ar
    37    30    31    1
    38     5    10    1
    39    15    18    1
    40    15    19    1
@<TRIPOS>MOLECULE
*****
 37 40 0 0 0
SMALL
GASTEIGER

@<TRIPOS>ATOM
      1 C           1.0395    1.5256   20.5197 C.ar    1  UNL1        0.0611
      2 C          -0.0289    2.5259   20.8482 C.ar    1  UNL1        0.1037
      3 N          -0.1695    2.5807   22.3406 N.ar    1  UNL1       -0.2269
      4 C           0.8120    1.6142   22.9345 C.ar    1  UNL1        0.1407
      5 N           1.1218    1.2437   24.3545 N.ar    1  UNL1       -0.3374
      6 C           2.1789    0.2211   24.6492 C.ar    1  UNL1        0.0735
      7 C           2.9261   -0.4309   23.5239 C.ar    1  UNL1        0.0186
      8 C           2.6163   -0.0604   22.1038 C.ar    1  UNL1        0.0047
      9 C           1.5592    0.9621   21.8091 C.ar    1  UNL1        0.0386
     10 H           0.6314    1.6717   25.0932 H       1  UNL1        0.1674
     11 C           3.9832   -1.4535   23.8186 C.ar    1  UNL1        0.0207
     12 C           4.2877   -2.5277   22.8170 C.ar    1  UNL1        0.0044
     13 C           5.3448   -3.5503   23.1117 C.ar    1  UNL1        0.0339
     14 C           6.0974   -3.4987   24.4082 C.ar    1  UNL1        0.1254
     15 N           7.1545   -4.5213   24.7030 N.pl3   1  UNL1       -0.3426
     16 N           5.7929   -2.4245   25.4099 N.ar    1  UNL1       -0.2296
     17 C           4.7359   -1.4019   25.1151 C.ar    1  UNL1        0.1003
     18 H           7.3543   -5.2263   24.0456 H       1  UNL1        0.1437
     19 H           7.6485   -4.4874   25.5540 H       1  UNL1        0.1437
     20 C           1.5063    1.1540   19.1435 C.2     1  UNL1        0.2015
     21 O           0.5353    0.5907   18.1488 O.2     1  UNL1       -0.2864
     22 C           5.2639    0.3449   18.1554 C.ar    1  UNL1        0.0920
     23 C           5.8202    1.7292   17.9990 C.ar    1  UNL1        0.0204
     24 C           4.9386    2.9216   18.2241 C.ar    1  UNL1        0.0312
     25 C           3.5006    2.7300   18.6056 C.ar    1  UNL1        0.1454
     26 F           2.6190    3.9225   18.8307 F       1  UNL1       -0.2040
     27 C           2.9443    1.3457   18.7620 C.ar    1  UNL1        0.0951
     28 C           3.8260    0.1533   18.5369 C.ar    1  UNL1        0.1598
     29 F           3.2696   -1.2310   18.6933 F       1  UNL1       -0.2026
     30 N           6.1456   -0.8476   17.9303 N.pl3   1  UNL1       -0.2166
     31 H           6.8681   -0.8065   17.2629 H       1  UNL1        0.1734
     32 S           5.9263   -2.1025   18.7221 S.O2    1  UNL1        0.0540
     33 O           6.3989   -1.4029   19.9619 O.2     1  UNL1       -0.1545
     34 O           5.4537   -2.8022   17.4823 O.2     1  UNL1       -0.1545
     35 C           5.7070   -3.3575   19.5138 C.3     1  UNL1        0.1724
     36 C           3.5470   -4.7960   19.6393 C.3     1  UNL1        0.0019
     37 C           4.8402   -4.4504   18.9623 C.3     1  UNL1        0.0273
@<TRIPOS>BOND
     1    36    37    1
     2    37    35    1
     3    35    32    1
     4    32    33    2
     5    32    34    2
     6    32    30    1
     7    30    22    1
     8    22    23   ar
     9    23    24   ar
    10    24    25   ar
    11    25    26    1
    12    25    27   ar
    13    27    20    1
    14    20    21    2
    15    20     1    1
    16     1     2   ar
    17     2     3   ar
    18     3     4   ar
    19     4     5   ar
    20     5     6   ar
    21     6     7   ar
    22     7    11    1
    23    11    12   ar
    24    12    13   ar
    25    13    14   ar
    26    14    15    1
    27    14    16   ar
    28    16    17   ar
    29     7     8   ar
    30     8     9   ar
    31    27    28   ar
    32    28    29    1
    33    28    22   ar
    34     9     1   ar
    35     9     4    1
    36    17    11   ar
    37    30    31    1
    38     5    10    1
    39    15    18    1
    40    15    19    1
