@<TRIPOS>MOLECULE
*****
 36 39 0 0 0
SMALL
GASTEIGER

@<TRIPOS>ATOM
      1 C           7.6671   -2.5458   27.7391 C.ar    1  UNL1        0.0528
      2 C           7.3545   -1.3646   26.8688 C.ar    1  UNL1        0.0161
      3 C           6.9152   -1.5738   25.4500 C.ar    1  UNL1        0.0181
      4 C           6.7885   -2.9640   24.9012 C.ar    1  UNL1        0.0757
      5 C           7.1011   -4.1451   25.7714 C.ar    1  UNL1        0.1545
      6 F           6.9744   -5.5354   25.2226 F       1  UNL1       -0.2028
      7 C           7.5404   -3.9360   27.1903 C.ar    1  UNL1        0.0456
      8 N           6.3492   -3.1731   23.4823 N.pl3   1  UNL1       -0.3057
      9 C           7.3686   -3.4223   22.4105 C.3     1  UNL1        0.0922
     10 C           6.9293   -3.6314   20.9917 C.3     1  UNL1        0.0374
     11 C           5.4706   -3.5913   20.6445 C.3     1  UNL1        0.0610
     12 C           4.4512   -3.3421   21.7163 C.3     1  UNL1        0.0374
     13 C           4.8905   -3.1330   23.1351 C.3     1  UNL1        0.0922
     14 N           5.0313   -3.8004   19.2256 N.3     1  UNL1       -0.2706
     15 C           4.2382   -5.0192   18.8579 C.3     1  UNL1        0.0897
     16 C           5.3852   -2.7905   18.1744 C.3     1  UNL1        0.1042
     17 C           4.4167   -1.6992   17.8266 C.3     1  UNL1        0.1544
     18 O           3.9470   -1.5362   16.4114 O.3     1  UNL1       -0.3805
     19 H           4.6942   -1.2749   15.8507 H       1  UNL1        0.2105
     20 N           8.1063   -2.3367   29.1580 N.pl3   1  UNL1       -0.2825
     21 H           9.0522   -2.1508   29.3581 H       1  UNL1        0.1551
     22 C           4.0991   -2.6329   33.6137 C.3     1  UNL1        0.0342
     23 C           5.1009   -2.5588   32.4998 C.ar    1  UNL1        0.0152
     24 C           6.2712   -3.4969   32.4800 C.ar    1  UNL1        0.0990
     25 N           7.2730   -3.4229   31.3660 N.ar    1  UNL1       -0.2123
     26 C           7.1045   -2.4107   30.2719 C.ar    1  UNL1        0.2207
     27 N           5.9343   -1.4726   30.2917 N.ar    1  UNL1       -0.2138
     28 C           4.9324   -1.5467   31.4057 C.ar    1  UNL1        0.0847
     29 C           3.7621   -0.6086   31.4255 C.ar    1  UNL1        0.0571
     30 C           2.5876   -0.6443   30.4932 C.ar    1  UNL1        0.1231
     31 N           1.6605    0.4722   30.8725 N.ar    1  UNL1       -0.1677
     32 N           2.2621    1.1980   32.0394 N.ar    1  UNL1       -0.2513
     33 C           3.5609    0.5300   32.3811 C.ar    1  UNL1        0.0980
     34 C           1.6689    2.3835   32.7412 C.3     1  UNL1        0.1054
     35 C           0.6412    3.2284   32.0484 C.3     1  UNL1        0.0263
     36 C           2.1034    2.7243   34.1359 C.3     1  UNL1        0.0263
@<TRIPOS>BOND
     1    22    23    1
     2    23    24   ar
     3    24    25   ar
     4    25    26   ar
     5    26    20    1
     6    20     1    1
     7     1     2   ar
     8     2     3   ar
     9     3     4   ar
    10     4     8    1
    11     8     9    1
    12     9    10    1
    13    10    11    1
    14    11    14    1
    15    14    15    1
    16    14    16    1
    17    16    17    1
    18    17    18    1
    19    11    12    1
    20    12    13    1
    21     4     5   ar
    22     5     6    1
    23     5     7   ar
    24    26    27   ar
    25    27    28   ar
    26    28    29    1
    27    29    30   ar
    28    30    31   ar
    29    31    32   ar
    30    32    34    1
    31    34    35    1
    32    34    36    1
    33    32    33   ar
    34    28    23   ar
    35    33    29   ar
    36     7     1   ar
    37    13     8    1
    38    20    21    1
    39    18    19    1
@<TRIPOS>MOLECULE
*****
 36 39 0 0 0
SMALL
GASTEIGER

@<TRIPOS>ATOM
      1 C           7.7869   -2.6793   27.6753 C.ar    1  UNL1        0.0528
      2 C           7.2517   -4.0080   27.2301 C.ar    1  UNL1        0.0161
      3 C           6.8116   -4.2014   25.8093 C.ar    1  UNL1        0.0181
      4 C           6.9068   -3.0661   24.8335 C.ar    1  UNL1        0.0757
      5 C           7.4420   -1.7375   25.2787 C.ar    1  UNL1        0.1545
      6 F           7.5371   -0.6022   24.3029 F       1  UNL1       -0.2028
      7 C           7.8821   -1.5440   26.6996 C.ar    1  UNL1        0.0456
      8 N           6.4667   -3.2595   23.4126 N.pl3   1  UNL1       -0.3057
      9 C           5.0049   -3.2922   23.0781 C.3     1  UNL1        0.0922
     10 C           4.5648   -3.4856   21.6572 C.3     1  UNL1        0.0374
     11 C           5.5866   -3.6464   20.5709 C.3     1  UNL1        0.0610
     12 C           7.0485   -3.6137   20.9054 C.3     1  UNL1        0.0374
     13 C           7.4885   -3.4203   22.3263 C.3     1  UNL1        0.0922
     14 N           5.1465   -3.8398   19.1499 N.3     1  UNL1       -0.2706
     15 C           4.4297   -5.0956   18.7511 C.3     1  UNL1        0.0897
     16 C           5.4234   -2.7774   18.1278 C.3     1  UNL1        0.1042
     17 C           4.3863   -1.7356   17.8291 C.3     1  UNL1        0.1544
     18 O           3.8840   -1.5578   16.4270 O.3     1  UNL1       -0.3805
     19 H           4.6049   -1.2354   15.8637 H       1  UNL1        0.2105
     20 N           8.2270   -2.4859   29.0962 N.pl3   1  UNL1       -0.2825
     21 H           9.1756   -2.3178   29.2992 H       1  UNL1        0.1551
     22 C           4.2064   -2.7371   33.5427 C.3     1  UNL1        0.0342
     23 C           5.2115   -2.6743   32.4311 C.ar    1  UNL1        0.0152
     24 C           6.3771   -3.6184   32.4196 C.ar    1  UNL1        0.0990
     25 N           7.3822   -3.5556   31.3080 N.ar    1  UNL1       -0.2123
     26 C           7.2218   -2.5487   30.2078 C.ar    1  UNL1        0.2207
     27 N           6.0563   -1.6047   30.2193 N.ar    1  UNL1       -0.2138
     28 C           5.0511   -1.6675   31.3309 C.ar    1  UNL1        0.0847
     29 C           3.8855   -0.7234   31.3423 C.ar    1  UNL1        0.0571
     30 C           2.7470   -0.7163   30.3657 C.ar    1  UNL1        0.1231
     31 N           1.8117    0.3909   30.7521 N.ar    1  UNL1       -0.1677
     32 N           2.3721    1.0681   31.9676 N.ar    1  UNL1       -0.2513
     33 C           3.6538    0.3794   32.3323 C.ar    1  UNL1        0.0980
     34 C           1.7586    2.2299   32.6913 C.3     1  UNL1        0.1054
     35 C           0.7871    3.1265   31.9826 C.3     1  UNL1        0.0263
     36 C           2.1165    2.4951   34.1236 C.3     1  UNL1        0.0263
@<TRIPOS>BOND
     1    22    23    1
     2    23    24   ar
     3    24    25   ar
     4    25    26   ar
     5    26    20    1
     6    20     1    1
     7     1     2   ar
     8     2     3   ar
     9     3     4   ar
    10     4     8    1
    11     8     9    1
    12     9    10    1
    13    10    11    1
    14    11    14    1
    15    14    15    1
    16    14    16    1
    17    16    17    1
    18    17    18    1
    19    11    12    1
    20    12    13    1
    21     4     5   ar
    22     5     6    1
    23     5     7   ar
    24    26    27   ar
    25    27    28   ar
    26    28    29    1
    27    29    30   ar
    28    30    31   ar
    29    31    32   ar
    30    32    34    1
    31    34    35    1
    32    34    36    1
    33    32    33   ar
    34    28    23   ar
    35    33    29   ar
    36     7     1   ar
    37    13     8    1
    38    20    21    1
    39    18    19    1
@<TRIPOS>MOLECULE
*****
 36 39 0 0 0
SMALL
GASTEIGER

@<TRIPOS>ATOM
      1 C           6.0160   -3.5112   20.3159 C.ar    1  UNL1        0.0528
      2 C           4.9247   -3.5102   21.3450 C.ar    1  UNL1        0.0161
      3 C           5.2352   -3.8697   22.7678 C.ar    1  UNL1        0.0181
      4 C           6.6370   -4.2302   23.1615 C.ar    1  UNL1        0.0757
      5 C           7.7283   -4.2312   22.1324 C.ar    1  UNL1        0.1545
      6 F           9.1301   -4.5917   22.5261 F       1  UNL1       -0.2028
      7 C           7.4178   -3.8716   20.7095 C.ar    1  UNL1        0.0456
      8 N           6.9475   -4.5897   24.5843 N.pl3   1  UNL1       -0.3057
      9 C           6.6235   -3.6278   25.6887 C.3     1  UNL1        0.0922
     10 C           6.9340   -3.9874   27.1115 C.3     1  UNL1        0.0374
     11 C           7.5685   -5.3088   27.4298 C.3     1  UNL1        0.0610
     12 C           7.8925   -6.2706   26.3254 C.3     1  UNL1        0.0374
     13 C           7.5820   -5.9111   24.9026 C.3     1  UNL1        0.0922
     14 N           7.8789   -5.6683   28.8527 N.3     1  UNL1       -0.2706
     15 C           9.1729   -6.3482   29.1892 C.3     1  UNL1        0.0897
     16 C           6.8954   -5.3479   29.9389 C.3     1  UNL1        0.1042
     17 C           7.1761   -5.7656   31.3519 C.3     1  UNL1        0.1544
     18 O           6.3126   -5.2595   32.4692 O.3     1  UNL1       -0.3805
     19 H           6.4275   -4.3004   32.5576 H       1  UNL1        0.2105
     20 N           5.7055   -3.1516   18.8931 N.pl3   1  UNL1       -0.2825
     21 H           5.5092   -3.8599   18.2380 H       1  UNL1        0.1551
     22 C           5.6597    2.6026   17.1942 C.3     1  UNL1        0.0342
     23 C           5.6711    1.1641   17.6189 C.ar    1  UNL1        0.0152
     24 C           6.7517    0.2461   17.1294 C.ar    1  UNL1        0.0990
     25 N           6.7632   -1.1924   17.5542 N.ar    1  UNL1       -0.2123
     26 C           5.6940   -1.7131   18.4684 C.ar    1  UNL1        0.2207
     27 N           4.6135   -0.7951   18.9579 N.ar    1  UNL1       -0.2138
     28 C           4.6020    0.6434   18.5332 C.ar    1  UNL1        0.0847
     29 C           3.5213    1.5614   19.0227 C.ar    1  UNL1        0.0571
     30 C           3.6396    2.5371   20.1559 C.ar    1  UNL1        0.1231
     31 N           2.3241    3.2435   20.2985 N.ar    1  UNL1       -0.1677
     32 N           1.3927    2.7043   19.2535 N.ar    1  UNL1       -0.2513
     33 C           2.1327    1.6648   18.4650 C.ar    1  UNL1        0.0980
     34 C          -0.0290    3.1301   19.0353 C.3     1  UNL1        0.1054
     35 C          -1.0205    3.0361   20.1569 C.3     1  UNL1        0.0263
     36 C          -0.4590    3.6498   17.6955 C.3     1  UNL1        0.0263
@<TRIPOS>BOND
     1    22    23    1
     2    23    24   ar
     3    24    25   ar
     4    25    26   ar
     5    26    20    1
     6    20     1    1
     7     1     2   ar
     8     2     3   ar
     9     3     4   ar
    10     4     8    1
    11     8     9    1
    12     9    10    1
    13    10    11    1
    14    11    14    1
    15    14    15    1
    16    14    16    1
    17    16    17    1
    18    17    18    1
    19    11    12    1
    20    12    13    1
    21     4     5   ar
    22     5     6    1
    23     5     7   ar
    24    26    27   ar
    25    27    28   ar
    26    28    29    1
    27    29    30   ar
    28    30    31   ar
    29    31    32   ar
    30    32    34    1
    31    34    35    1
    32    34    36    1
    33    32    33   ar
    34    28    23   ar
    35    33    29   ar
    36     7     1   ar
    37    13     8    1
    38    20    21    1
    39    18    19    1
@<TRIPOS>MOLECULE
*****
 36 39 0 0 0
SMALL
GASTEIGER

@<TRIPOS>ATOM
      1 C           7.7990   -2.1789   32.4910 C.ar    1  UNL1        0.0528
      2 C           8.3064   -1.0029   33.2719 C.ar    1  UNL1        0.0161
      3 C           7.3715   -0.2269   34.1515 C.ar    1  UNL1        0.0181
      4 C           5.9292   -0.6268   34.2503 C.ar    1  UNL1        0.0757
      5 C           5.4217   -1.8028   33.4695 C.ar    1  UNL1        0.1545
      6 F           3.9794   -2.2027   33.5683 F       1  UNL1       -0.2028
      7 C           6.3566   -2.5788   32.5898 C.ar    1  UNL1        0.0456
      8 N           4.9942    0.1492   35.1300 N.pl3   1  UNL1       -0.3057
      9 C           4.0527    1.1487   34.5264 C.3     1  UNL1        0.0922
     10 C           3.1178    1.9247   35.4061 C.3     1  UNL1        0.0374
     11 C           3.1246    1.7012   36.8893 C.3     1  UNL1        0.0610
     12 C           4.0661    0.7017   37.4929 C.3     1  UNL1        0.0374
     13 C           5.0010   -0.0743   36.6132 C.3     1  UNL1        0.0922
     14 N           2.1896    2.4772   37.7690 N.3     1  UNL1       -0.2706
     15 C           1.6205    3.7809   37.2930 C.3     1  UNL1        0.0897
     16 C           1.8239    1.9496   39.1247 C.3     1  UNL1        0.1042
     17 C           0.8428    0.8220   39.2510 C.3     1  UNL1        0.1544
     18 O           1.3297   -0.5671   39.5393 O.3     1  UNL1       -0.3805
     19 H           1.8515   -0.8894   38.7877 H       1  UNL1        0.2105
     20 N           8.7339   -2.9549   31.6114 N.pl3   1  UNL1       -0.2825
     21 H           9.6989   -2.9640   31.8058 H       1  UNL1        0.1551
     22 C           6.5920   -6.0030   26.9081 C.3     1  UNL1        0.0342
     23 C           7.1275   -5.2410   28.0839 C.ar    1  UNL1        0.0152
     24 C           7.5710   -5.9751   29.3145 C.ar    1  UNL1        0.0990
     25 N           8.1064   -5.2130   30.4903 N.ar    1  UNL1       -0.2123
     26 C           8.1984   -3.7169   30.4356 C.ar    1  UNL1        0.2207
     27 N           7.7549   -2.9828   29.2050 N.ar    1  UNL1       -0.2138
     28 C           7.2195   -3.7448   28.0292 C.ar    1  UNL1        0.0847
     29 C           6.7760   -3.0106   26.7985 C.ar    1  UNL1        0.0571
     30 C           7.6235   -2.7092   25.5982 C.ar    1  UNL1        0.1231
     31 N           6.7784   -1.9613   24.6101 N.ar    1  UNL1       -0.1677
     32 N           5.4085   -1.8005   25.1997 N.ar    1  UNL1       -0.2513
     33 C           5.4070   -2.4490   26.5522 C.ar    1  UNL1        0.0980
     34 C           4.2446   -1.1120   24.5507 C.3     1  UNL1        0.1054
     35 C           3.8767   -1.4362   23.1331 C.3     1  UNL1        0.0263
     36 C           3.4485   -0.0993   25.3194 C.3     1  UNL1        0.0263
@<TRIPOS>BOND
     1    22    23    1
     2    23    24   ar
     3    24    25   ar
     4    25    26   ar
     5    26    20    1
     6    20     1    1
     7     1     2   ar
     8     2     3   ar
     9     3     4   ar
    10     4     8    1
    11     8     9    1
    12     9    10    1
    13    10    11    1
    14    11    14    1
    15    14    15    1
    16    14    16    1
    17    16    17    1
    18    17    18    1
    19    11    12    1
    20    12    13    1
    21     4     5   ar
    22     5     6    1
    23     5     7   ar
    24    26    27   ar
    25    27    28   ar
    26    28    29    1
    27    29    30   ar
    28    30    31   ar
    29    31    32   ar
    30    32    34    1
    31    34    35    1
    32    34    36    1
    33    32    33   ar
    34    28    23   ar
    35    33    29   ar
    36     7     1   ar
    37    13     8    1
    38    20    21    1
    39    18    19    1
@<TRIPOS>MOLECULE
*****
 36 39 0 0 0
SMALL
GASTEIGER

@<TRIPOS>ATOM
      1 C          -1.4625    3.5858   19.1328 C.ar    1  UNL1        0.0528
      2 C          -1.1744    3.1896   20.5506 C.ar    1  UNL1        0.0161
      3 C          -2.1211    3.5817   21.6460 C.ar    1  UNL1        0.0181
      4 C          -3.3559    4.3700   21.3238 C.ar    1  UNL1        0.0757
      5 C          -3.6439    4.7663   19.9061 C.ar    1  UNL1        0.1545
      6 F          -4.8787    5.5547   19.5838 F       1  UNL1       -0.2028
      7 C          -2.6972    4.3742   18.8105 C.ar    1  UNL1        0.0456
      8 N          -4.3026    4.7621   22.4193 N.pl3   1  UNL1       -0.3057
      9 C          -5.5913    4.0160   22.5996 C.3     1  UNL1        0.0922
     10 C          -6.5379    4.4082   23.6951 C.3     1  UNL1        0.0374
     11 C          -6.1958    5.5463   24.6102 C.3     1  UNL1        0.0610
     12 C          -4.9071    6.2924   24.4299 C.3     1  UNL1        0.0374
     13 C          -3.9605    5.9003   23.3345 C.3     1  UNL1        0.0922
     14 N          -7.1425    5.9384   25.7058 N.3     1  UNL1       -0.2706
     15 C          -8.5806    6.2229   25.3882 C.3     1  UNL1        0.0897
     16 C          -6.6510    6.0460   27.1189 C.3     1  UNL1        0.1042
     17 C          -7.5644    6.5561   28.1938 C.3     1  UNL1        0.1544
     18 O          -7.7029    5.7996   29.4817 O.3     1  UNL1       -0.3805
     19 H          -8.1193    4.9408   29.3090 H       1  UNL1        0.2105
     20 N          -0.5158    3.1937   18.0374 N.pl3   1  UNL1       -0.2825
     21 H          -0.8447    3.0941   17.1148 H       1  UNL1        0.1551
     22 C           5.2753    2.2328   19.2781 C.3     1  UNL1        0.0342
     23 C           3.8275    2.4730   18.9679 C.ar    1  UNL1        0.0152
     24 C           3.2527    3.8528   19.0928 C.ar    1  UNL1        0.0990
     25 N           1.8049    4.0931   18.7827 N.ar    1  UNL1       -0.2123
     26 C           0.9320    2.9535   18.3476 C.ar    1  UNL1        0.2207
     27 N           1.5068    1.5737   18.2226 N.ar    1  UNL1       -0.2138
     28 C           2.9546    1.3335   18.5328 C.ar    1  UNL1        0.0847
     29 C           3.5294   -0.0464   18.4079 C.ar    1  UNL1        0.0571
     30 C           4.2149   -0.6098   17.1985 C.ar    1  UNL1        0.1231
     31 N           4.6288   -2.0167   17.5136 N.ar    1  UNL1       -0.1677
     32 N           4.1991   -2.3229   18.9178 N.ar    1  UNL1       -0.2513
     33 C           3.5197   -1.1052   19.4704 C.ar    1  UNL1        0.0980
     34 C           4.4116   -3.6191   19.6420 C.3     1  UNL1        0.1054
     35 C           4.3394   -4.9170   18.8936 C.3     1  UNL1        0.0263
     36 C           4.6963   -3.6175   21.1148 C.3     1  UNL1        0.0263
@<TRIPOS>BOND
     1    22    23    1
     2    23    24   ar
     3    24    25   ar
     4    25    26   ar
     5    26    20    1
     6    20     1    1
     7     1     2   ar
     8     2     3   ar
     9     3     4   ar
    10     4     8    1
    11     8     9    1
    12     9    10    1
    13    10    11    1
    14    11    14    1
    15    14    15    1
    16    14    16    1
    17    16    17    1
    18    17    18    1
    19    11    12    1
    20    12    13    1
    21     4     5   ar
    22     5     6    1
    23     5     7   ar
    24    26    27   ar
    25    27    28   ar
    26    28    29    1
    27    29    30   ar
    28    30    31   ar
    29    31    32   ar
    30    32    34    1
    31    34    35    1
    32    34    36    1
    33    32    33   ar
    34    28    23   ar
    35    33    29   ar
    36     7     1   ar
    37    13     8    1
    38    20    21    1
    39    18    19    1
@<TRIPOS>MOLECULE
*****
 36 39 0 0 0
SMALL
GASTEIGER

@<TRIPOS>ATOM
      1 C         -18.0682   -1.1028   20.3345 C.ar    1  UNL1        0.0528
      2 C         -16.7102   -0.5174   20.0826 C.ar    1  UNL1        0.0161
      3 C         -15.5805   -1.4032   19.6479 C.ar    1  UNL1        0.0181
      4 C         -15.8087   -2.8745   19.4650 C.ar    1  UNL1        0.0757
      5 C         -17.1665   -3.4599   19.7170 C.ar    1  UNL1        0.1545
      6 F         -17.3946   -4.9311   19.5341 F       1  UNL1       -0.2028
      7 C         -18.2963   -2.5741   20.1517 C.ar    1  UNL1        0.0456
      8 N         -14.6789   -3.7603   19.0303 N.pl3   1  UNL1       -0.3057
      9 C         -14.2072   -4.8679   19.9251 C.3     1  UNL1        0.0922
     10 C         -13.0774   -5.7537   19.4903 C.3     1  UNL1        0.0374
     11 C         -12.4194   -5.5318   18.1607 C.3     1  UNL1        0.0610
     12 C         -12.8911   -4.4242   17.2659 C.3     1  UNL1        0.0374
     13 C         -14.0208   -3.5385   17.7007 C.3     1  UNL1        0.0922
     14 N         -11.2896   -6.4176   17.7260 N.3     1  UNL1       -0.2706
     15 C         -11.5784   -7.7128   17.0267 C.3     1  UNL1        0.0897
     16 C          -9.8710   -6.0082   17.9905 C.3     1  UNL1        0.1042
     17 C          -9.5245   -5.2774   19.2538 C.3     1  UNL1        0.1544
     18 O          -9.5438   -3.7778   19.2821 O.3     1  UNL1       -0.3805
     19 H          -8.8482   -3.4344   18.6998 H       1  UNL1        0.2105
     20 N         -19.1979   -0.2170   20.7693 N.pl3   1  UNL1       -0.2825
     21 H         -20.0642   -0.6116   21.0204 H       1  UNL1        0.1551
     22 C         -18.4371    5.7309   20.9779 C.3     1  UNL1        0.0342
     23 C         -18.6273    4.2439   20.9257 C.ar    1  UNL1        0.0152
     24 C         -19.8975    3.6692   20.3725 C.ar    1  UNL1        0.0990
     25 N         -20.0877    2.1823   20.3203 N.ar    1  UNL1       -0.2123
     26 C         -19.0077    1.2700   20.8214 C.ar    1  UNL1        0.2207
     27 N         -17.7374    1.8447   21.3746 N.ar    1  UNL1       -0.2138
     28 C         -17.5472    3.3316   21.4268 C.ar    1  UNL1        0.0847
     29 C         -16.2769    3.9063   21.9801 C.ar    1  UNL1        0.0571
     30 C         -15.1055    4.3906   21.1780 C.ar    1  UNL1        0.1231
     31 N         -14.0596    4.8811   22.1348 N.ar    1  UNL1       -0.1677
     32 N         -14.5846    4.7001   23.5282 N.ar    1  UNL1       -0.2513
     33 C         -15.9549    4.0976   23.4326 C.ar    1  UNL1        0.0980
     34 C         -13.8655    5.0586   24.7949 C.3     1  UNL1        0.1054
     35 C         -14.5989    5.7560   25.9020 C.3     1  UNL1        0.0263
     36 C         -12.4130    4.7197   24.9544 C.3     1  UNL1        0.0263
@<TRIPOS>BOND
     1    22    23    1
     2    23    24   ar
     3    24    25   ar
     4    25    26   ar
     5    26    20    1
     6    20     1    1
     7     1     2   ar
     8     2     3   ar
     9     3     4   ar
    10     4     8    1
    11     8     9    1
    12     9    10    1
    13    10    11    1
    14    11    14    1
    15    14    15    1
    16    14    16    1
    17    16    17    1
    18    17    18    1
    19    11    12    1
    20    12    13    1
    21     4     5   ar
    22     5     6    1
    23     5     7   ar
    24    26    27   ar
    25    27    28   ar
    26    28    29    1
    27    29    30   ar
    28    30    31   ar
    29    31    32   ar
    30    32    34    1
    31    34    35    1
    32    34    36    1
    33    32    33   ar
    34    28    23   ar
    35    33    29   ar
    36     7     1   ar
    37    13     8    1
    38    20    21    1
    39    18    19    1
@<TRIPOS>MOLECULE
*****
 36 39 0 0 0
SMALL
GASTEIGER

@<TRIPOS>ATOM
      1 C           1.9188   -0.4543   20.5018 C.ar    1  UNL1        0.0528
      2 C           1.9872    0.0629   21.9082 C.ar    1  UNL1        0.0161
      3 C           2.9292   -0.5639   22.8929 C.ar    1  UNL1        0.0181
      4 C           3.8029   -1.7079   22.4712 C.ar    1  UNL1        0.0757
      5 C           3.7346   -2.2251   21.0649 C.ar    1  UNL1        0.1545
      6 F           4.6084   -3.3692   20.6433 F       1  UNL1       -0.2028
      7 C           2.7926   -1.5983   20.0802 C.ar    1  UNL1        0.0456
      8 N           4.7450   -2.3347   23.4560 N.pl3   1  UNL1       -0.3057
      9 C           5.5401   -3.5457   23.0670 C.3     1  UNL1        0.0922
     10 C           6.4821   -4.1724   24.0517 C.3     1  UNL1        0.0374
     11 C           6.6290   -3.5882   25.4255 C.3     1  UNL1        0.0610
     12 C           5.8339   -2.3773   25.8145 C.3     1  UNL1        0.0374
     13 C           4.8919   -1.7505   24.8297 C.3     1  UNL1        0.0922
     14 N           7.5711   -4.2150   26.4102 N.3     1  UNL1       -0.2706
     15 C           8.7907   -4.9405   25.9242 C.3     1  UNL1        0.0897
     16 C           7.2936   -4.1163   27.8810 C.3     1  UNL1        0.1042
     17 C           6.5096   -5.1934   28.5703 C.3     1  UNL1        0.1544
     18 O           5.3959   -5.8904   27.8466 O.3     1  UNL1       -0.3805
     19 H           4.6816   -5.2590   27.6676 H       1  UNL1        0.2105
     20 N           0.9768    0.1725   19.5171 N.pl3   1  UNL1       -0.2825
     21 H           0.6937   -0.3292   18.7187 H       1  UNL1        0.1551
     22 C          -1.0663    5.7373   20.4440 C.3     1  UNL1        0.0342
     23 C          -0.5555    4.3461   20.2123 C.ar    1  UNL1        0.0152
     24 C           0.6912    4.1293   19.4069 C.ar    1  UNL1        0.0990
     25 N           1.2019    2.7381   19.1751 N.ar    1  UNL1       -0.2123
     26 C           0.4660    1.5637   19.7489 C.ar    1  UNL1        0.2207
     27 N          -0.7806    1.7805   20.5543 N.ar    1  UNL1       -0.2138
     28 C          -1.2914    3.1717   20.7860 C.ar    1  UNL1        0.0847
     29 C          -2.5382    3.3885   21.5915 C.ar    1  UNL1        0.0571
     30 C          -3.9416    3.3855   21.0620 C.ar    1  UNL1        0.1231
     31 N          -4.8711    3.6414   22.2111 N.ar    1  UNL1       -0.1677
     32 N          -4.0421    3.8027   23.4509 N.ar    1  UNL1       -0.2513
     33 C          -2.6003    3.6463   23.0679 C.ar    1  UNL1        0.0980
     34 C          -4.5634    4.0728   24.8312 C.3     1  UNL1        0.1054
     35 C          -5.9971    4.4677   25.0274 C.3     1  UNL1        0.0263
     36 C          -3.6510    3.9481   26.0152 C.3     1  UNL1        0.0263
@<TRIPOS>BOND
     1    22    23    1
     2    23    24   ar
     3    24    25   ar
     4    25    26   ar
     5    26    20    1
     6    20     1    1
     7     1     2   ar
     8     2     3   ar
     9     3     4   ar
    10     4     8    1
    11     8     9    1
    12     9    10    1
    13    10    11    1
    14    11    14    1
    15    14    15    1
    16    14    16    1
    17    16    17    1
    18    17    18    1
    19    11    12    1
    20    12    13    1
    21     4     5   ar
    22     5     6    1
    23     5     7   ar
    24    26    27   ar
    25    27    28   ar
    26    28    29    1
    27    29    30   ar
    28    30    31   ar
    29    31    32   ar
    30    32    34    1
    31    34    35    1
    32    34    36    1
    33    32    33   ar
    34    28    23   ar
    35    33    29   ar
    36     7     1   ar
    37    13     8    1
    38    20    21    1
    39    18    19    1
@<TRIPOS>MOLECULE
*****
 36 39 0 0 0
SMALL
GASTEIGER

@<TRIPOS>ATOM
      1 C         -16.9888    0.9933   19.2474 C.ar    1  UNL1        0.0528
      2 C         -16.8125   -0.1957   20.1448 C.ar    1  UNL1        0.0161
      3 C         -15.6484   -1.1202   19.9449 C.ar    1  UNL1        0.0181
      4 C         -14.6604   -0.8557   18.8476 C.ar    1  UNL1        0.0757
      5 C         -14.8366    0.3332   17.9502 C.ar    1  UNL1        0.1545
      6 F         -13.8487    0.5976   16.8529 F       1  UNL1       -0.2028
      7 C         -16.0008    1.2578   18.1501 C.ar    1  UNL1        0.0456
      8 N         -13.4962   -1.7803   18.6477 N.pl3   1  UNL1       -0.3057
      9 C         -13.7324   -3.2143   18.2765 C.3     1  UNL1        0.0922
     10 C         -12.5683   -4.1388   18.0766 C.3     1  UNL1        0.0374
     11 C         -11.1679   -3.6293   18.2479 C.3     1  UNL1        0.0610
     12 C         -10.9317   -2.1953   18.6192 C.3     1  UNL1        0.0374
     13 C         -12.0958   -1.2708   18.8190 C.3     1  UNL1        0.0922
     14 N         -10.0037   -4.5539   18.0481 N.3     1  UNL1       -0.2706
     15 C          -9.2164   -4.5036   16.7723 C.3     1  UNL1        0.0897
     16 C          -9.6269   -5.5288   19.1240 C.3     1  UNL1        0.1042
     17 C          -9.8831   -6.9941   18.9316 C.3     1  UNL1        0.1544
     18 O         -11.2842   -7.4904   18.7298 O.3     1  UNL1       -0.3805
     19 H         -11.7999   -7.3401   19.5375 H       1  UNL1        0.2105
     20 N         -18.1529    1.9178   19.4473 N.pl3   1  UNL1       -0.2825
     21 H         -19.0348    1.6862   19.0761 H       1  UNL1        0.1551
     22 C         -17.4347    7.0276   22.5091 C.3     1  UNL1        0.0342
     23 C         -17.6142    5.7502   21.7436 C.ar    1  UNL1        0.0152
     24 C         -18.6393    5.6679   20.6517 C.ar    1  UNL1        0.0990
     25 N         -18.8189    4.3904   19.8863 N.ar    1  UNL1       -0.2123
     26 C         -17.9733    3.1953   20.2128 C.ar    1  UNL1        0.2207
     27 N         -16.9483    3.2776   21.3047 N.ar    1  UNL1       -0.2138
     28 C         -16.7687    4.5550   22.0701 C.ar    1  UNL1        0.0847
     29 C         -15.7435    4.6373   23.1621 C.ar    1  UNL1        0.0571
     30 C         -15.9884    4.3927   24.6216 C.ar    1  UNL1        0.1231
     31 N         -14.6898    4.5828   25.3478 N.ar    1  UNL1       -0.1677
     32 N         -13.6422    4.9449   24.3371 N.ar    1  UNL1       -0.2513
     33 C         -14.2935    4.9786   22.9863 C.ar    1  UNL1        0.0980
     34 C         -12.1971    5.2243   24.6264 C.3     1  UNL1        0.1054
     35 C         -11.2715    4.0979   24.9790 C.3     1  UNL1        0.0263
     36 C         -11.6777    6.6301   24.5630 C.3     1  UNL1        0.0263
@<TRIPOS>BOND
     1    22    23    1
     2    23    24   ar
     3    24    25   ar
     4    25    26   ar
     5    26    20    1
     6    20     1    1
     7     1     2   ar
     8     2     3   ar
     9     3     4   ar
    10     4     8    1
    11     8     9    1
    12     9    10    1
    13    10    11    1
    14    11    14    1
    15    14    15    1
    16    14    16    1
    17    16    17    1
    18    17    18    1
    19    11    12    1
    20    12    13    1
    21     4     5   ar
    22     5     6    1
    23     5     7   ar
    24    26    27   ar
    25    27    28   ar
    26    28    29    1
    27    29    30   ar
    28    30    31   ar
    29    31    32   ar
    30    32    34    1
    31    34    35    1
    32    34    36    1
    33    32    33   ar
    34    28    23   ar
    35    33    29   ar
    36     7     1   ar
    37    13     8    1
    38    20    21    1
    39    18    19    1
@<TRIPOS>MOLECULE
*****
 36 39 0 0 0
SMALL
GASTEIGER

@<TRIPOS>ATOM
      1 C           0.0685    2.6007   25.6145 C.ar    1  UNL1        0.0528
      2 C           1.4072    3.1283   26.0385 C.ar    1  UNL1        0.0161
      3 C           2.1098    2.5285   27.2201 C.ar    1  UNL1        0.0181
      4 C           1.4738    1.4010   27.9780 C.ar    1  UNL1        0.0757
      5 C           0.1352    0.8734   27.5541 C.ar    1  UNL1        0.1545
      6 F          -0.5008   -0.2541   28.3119 F       1  UNL1       -0.2028
      7 C          -0.5675    1.4733   26.3724 C.ar    1  UNL1        0.0456
      8 N           2.1765    0.8011   29.1597 N.pl3   1  UNL1       -0.3057
      9 C           1.8899    1.3109   30.5409 C.3     1  UNL1        0.0922
     10 C           2.5926    0.7110   31.7226 C.3     1  UNL1        0.0374
     11 C           3.5819   -0.3987   31.5230 C.3     1  UNL1        0.0610
     12 C           3.8685   -0.9085   30.1418 C.3     1  UNL1        0.0374
     13 C           3.1658   -0.3086   28.9601 C.3     1  UNL1        0.0922
     14 N           4.2846   -0.9986   32.7047 N.3     1  UNL1       -0.2706
     15 C           4.7810   -0.1147   33.8102 C.3     1  UNL1        0.0897
     16 C           4.4908   -2.4824   32.7809 C.3     1  UNL1        0.1042
     17 C           5.8474   -3.0656   32.5172 C.3     1  UNL1        0.1544
     18 O           6.0854   -4.5326   32.7201 O.3     1  UNL1       -0.3805
     19 H           5.9967   -4.7474   33.6618 H       1  UNL1        0.2105
     20 N          -0.6341    3.2006   24.4329 N.pl3   1  UNL1       -0.2825
     21 H          -1.3339    3.8797   24.5688 H       1  UNL1        0.1551
     22 C           0.8200    1.4619   18.8775 C.3     1  UNL1        0.0342
     23 C           0.4565    1.8966   20.2663 C.ar    1  UNL1        0.0152
     24 C          -0.6905    2.8391   20.4812 C.ar    1  UNL1        0.0990
     25 N          -1.0540    3.2737   21.8700 N.ar    1  UNL1       -0.2123
     26 C          -0.2706    2.7660   23.0440 C.ar    1  UNL1        0.2207
     27 N           0.8764    1.8235   22.8292 N.ar    1  UNL1       -0.2138
     28 C           1.2399    1.3888   21.4403 C.ar    1  UNL1        0.0847
     29 C           2.3869    0.4463   21.2255 C.ar    1  UNL1        0.0571
     30 C           3.8426    0.8063   21.2618 C.ar    1  UNL1        0.1231
     31 N           4.6349   -0.4392   20.9954 N.ar    1  UNL1       -0.1677
     32 N           3.6689   -1.5690   20.7945 N.ar    1  UNL1       -0.2513
     33 C           2.2796   -1.0218   20.9368 C.ar    1  UNL1        0.0980
     34 C           4.0290   -2.9956   20.5027 C.3     1  UNL1        0.1054
     35 C           3.5487   -3.6471   19.2398 C.3     1  UNL1        0.0263
     36 C           4.8694   -3.7707   21.4738 C.3     1  UNL1        0.0263
@<TRIPOS>BOND
     1    22    23    1
     2    23    24   ar
     3    24    25   ar
     4    25    26   ar
     5    26    20    1
     6    20     1    1
     7     1     2   ar
     8     2     3   ar
     9     3     4   ar
    10     4     8    1
    11     8     9    1
    12     9    10    1
    13    10    11    1
    14    11    14    1
    15    14    15    1
    16    14    16    1
    17    16    17    1
    18    17    18    1
    19    11    12    1
    20    12    13    1
    21     4     5   ar
    22     5     6    1
    23     5     7   ar
    24    26    27   ar
    25    27    28   ar
    26    28    29    1
    27    29    30   ar
    28    30    31   ar
    29    31    32   ar
    30    32    34    1
    31    34    35    1
    32    34    36    1
    33    32    33   ar
    34    28    23   ar
    35    33    29   ar
    36     7     1   ar
    37    13     8    1
    38    20    21    1
    39    18    19    1
