@<TRIPOS>MOLECULE
*****
 35 38 0 0 0
SMALL
GASTEIGER

@<TRIPOS>ATOM
      1 C          -8.1403  -19.3997   20.1158 C.2     1  UNL1        0.2511
      2 O          -8.4608  -19.3823   18.6506 O.2     1  UNL1       -0.2698
      3 N          -6.7270  -19.6107   20.5720 N.am    1  UNL1       -0.2678
      4 N         -12.4934  -15.5096   19.1150 N.pl3   1  UNL1       -0.3375
      5 C         -11.8568  -16.5385   20.0017 C.ar    1  UNL1        0.1568
      6 N         -10.5986  -17.2998   19.7065 N.ar    1  UNL1       -0.2242
      7 C         -10.3308  -18.2185   20.8616 C.ar    1  UNL1        0.0967
      8 C          -9.2331  -19.2062   21.1249 C.ar    1  UNL1        0.0750
      9 C          -9.2282  -20.0006   22.3974 C.ar    1  UNL1        0.0458
     10 C         -10.3210  -19.8071   23.4065 C.ar    1  UNL1        0.1682
     11 O         -10.3162  -20.6013   24.6789 O.3     1  UNL1       -0.5029
     12 C         -11.4188  -18.8193   23.1431 C.ar    1  UNL1        0.1751
     13 O         -12.5116  -18.6258   24.1522 O.3     1  UNL1       -0.5025
     14 C         -11.4236  -18.0250   21.8707 C.ar    1  UNL1        0.0865
     15 S         -12.3668  -16.9867   21.3392 S.2     1  UNL1       -0.0488
     16 H         -12.0812  -15.2819   18.2504 H       1  UNL1        0.1442
     17 H         -13.3235  -15.0620   19.3976 H       1  UNL1        0.1442
     18 H          -9.6305  -21.2183   24.8434 H       1  UNL1        0.2923
     19 H         -12.5085  -19.1219   24.9471 H       1  UNL1        0.2923
     20 C          -5.6341  -19.8042   19.5629 C.3     1  UNL1        0.1208
     21 C          -4.2404  -19.3415   19.8687 C.ar    1  UNL1       -0.0023
     22 C          -3.7233  -18.0692   19.2656 C.ar    1  UNL1       -0.0026
     23 C          -2.3296  -17.6065   19.5714 C.ar    1  UNL1       -0.0003
     24 C          -1.4530  -18.4161   20.4803 C.ar    1  UNL1       -0.0000
     25 C          -1.9701  -19.6885   21.0834 C.ar    1  UNL1       -0.0003
     26 C          -3.3638  -20.1512   20.7775 C.ar    1  UNL1       -0.0026
     27 C          -6.4065  -19.6282   22.0372 C.3     1  UNL1        0.1208
     28 C          -6.0691  -18.3503   22.7464 C.ar    1  UNL1       -0.0014
     29 C          -4.6494  -18.0597   23.1338 C.ar    1  UNL1       -0.0017
     30 C          -4.3121  -16.7817   23.8430 C.ar    1  UNL1        0.0120
     31 C          -5.3944  -15.7943   24.1648 C.ar    1  UNL1        0.0682
     32 CL         -5.0570  -14.5163   24.8740 Cl      1  UNL1       -0.0814
     33 C          -6.8140  -16.0848   23.7774 C.ar    1  UNL1        0.0679
     34 CL         -7.8964  -15.0973   24.0992 Cl      1  UNL1       -0.0814
     35 C          -7.1514  -17.3627   23.0682 C.ar    1  UNL1        0.0096
@<TRIPOS>BOND
     1     4     5    1
     2     5     6   ar
     3     6     7   ar
     4     7     8   ar
     5     8     1    1
     6     1     2    2
     7     1     3   am
     8     3    20    1
     9    20    21    1
    10    21    22   ar
    11    22    23   ar
    12    23    24   ar
    13    24    25   ar
    14    25    26   ar
    15     3    27    1
    16    27    28    1
    17    28    29   ar
    18    29    30   ar
    19    30    31   ar
    20    31    32    1
    21    31    33   ar
    22    33    34    1
    23    33    35   ar
    24     8     9   ar
    25     9    10   ar
    26    10    11    1
    27    10    12   ar
    28    12    13    1
    29    12    14   ar
    30    14    15   ar
    31    15     5   ar
    32    14     7   ar
    33    26    21   ar
    34    35    28   ar
    35     4    16    1
    36     4    17    1
    37    11    18    1
    38    13    19    1
@<TRIPOS>MOLECULE
*****
 35 38 0 0 0
SMALL
GASTEIGER

@<TRIPOS>ATOM
      1 C          -6.1363  -19.7239   21.0701 C.2     1  UNL1        0.2511
      2 O          -6.2067  -21.2044   20.8396 O.2     1  UNL1       -0.2698
      3 N          -7.3758  -18.9617   21.4346 N.am    1  UNL1       -0.2678
      4 N          -3.2125  -17.8937   25.8854 N.pl3   1  UNL1       -0.3375
      5 C          -3.3017  -18.0093   24.3925 C.ar    1  UNL1        0.1568
      6 N          -4.4139  -18.6584   23.6233 N.ar    1  UNL1       -0.2242
      7 C          -4.0940  -18.5463   22.1621 C.ar    1  UNL1        0.0967
      8 C          -4.8263  -19.0055   20.9362 C.ar    1  UNL1        0.0750
      9 C          -4.2486  -18.7464   19.5764 C.ar    1  UNL1        0.0458
     10 C          -2.9386  -18.0280   19.4425 C.ar    1  UNL1        0.1682
     11 O          -2.3609  -17.7689   18.0827 O.3     1  UNL1       -0.5029
     12 C          -2.2064  -17.5687   20.6684 C.ar    1  UNL1        0.1751
     13 O          -0.8964  -16.8504   20.5345 O.3     1  UNL1       -0.5025
     14 C          -2.7841  -17.8279   22.0282 C.ar    1  UNL1        0.0865
     15 S          -2.2944  -17.4960   23.4067 S.2     1  UNL1       -0.0488
     16 H          -3.9278  -18.2641   26.4514 H       1  UNL1        0.1442
     17 H          -2.4386  -17.4475   26.2992 H       1  UNL1        0.1442
     18 H          -2.8184  -18.0558   17.3169 H       1  UNL1        0.2923
     19 H          -0.5356  -16.6885   19.6851 H       1  UNL1        0.2923
     20 C          -8.6857  -19.6801   21.5685 C.3     1  UNL1        0.1208
     21 C          -9.9734  -18.9307   21.3936 C.ar    1  UNL1       -0.0023
     22 C         -10.9936  -18.9260   22.4932 C.ar    1  UNL1       -0.0026
     23 C         -12.2812  -18.1767   22.3184 C.ar    1  UNL1       -0.0003
     24 C         -12.5486  -17.4321   21.0440 C.ar    1  UNL1       -0.0000
     25 C         -11.5284  -17.4368   19.9444 C.ar    1  UNL1       -0.0003
     26 C         -10.2407  -18.1862   20.1193 C.ar    1  UNL1       -0.0026
     27 C          -7.3053  -17.4813   21.6651 C.3     1  UNL1        0.1208
     28 C          -7.4556  -16.9302   23.0521 C.ar    1  UNL1       -0.0014
     29 C          -8.7578  -17.0797   23.7815 C.ar    1  UNL1       -0.0017
     30 C          -8.9080  -16.5286   25.1685 C.ar    1  UNL1        0.0120
     31 C          -7.7561  -15.8282   25.8261 C.ar    1  UNL1        0.0682
     32 CL         -7.9064  -15.2771   27.2132 Cl      1  UNL1       -0.0814
     33 C          -6.4539  -15.6788   25.0967 C.ar    1  UNL1        0.0679
     34 CL         -5.3020  -14.9783   25.7544 Cl      1  UNL1       -0.0814
     35 C          -6.3037  -16.2298   23.7098 C.ar    1  UNL1        0.0096
@<TRIPOS>BOND
     1     4     5    1
     2     5     6   ar
     3     6     7   ar
     4     7     8   ar
     5     8     1    1
     6     1     2    2
     7     1     3   am
     8     3    20    1
     9    20    21    1
    10    21    22   ar
    11    22    23   ar
    12    23    24   ar
    13    24    25   ar
    14    25    26   ar
    15     3    27    1
    16    27    28    1
    17    28    29   ar
    18    29    30   ar
    19    30    31   ar
    20    31    32    1
    21    31    33   ar
    22    33    34    1
    23    33    35   ar
    24     8     9   ar
    25     9    10   ar
    26    10    11    1
    27    10    12   ar
    28    12    13    1
    29    12    14   ar
    30    14    15   ar
    31    15     5   ar
    32    14     7   ar
    33    26    21   ar
    34    35    28   ar
    35     4    16    1
    36     4    17    1
    37    11    18    1
    38    13    19    1
@<TRIPOS>MOLECULE
*****
 35 38 0 0 0
SMALL
GASTEIGER

@<TRIPOS>ATOM
      1 C          -6.3440  -19.4339   20.9878 C.2     1  UNL1        0.2511
      2 O          -6.3909  -20.8460   20.4844 O.2     1  UNL1       -0.2698
      3 N          -7.5582  -18.5593   20.8824 N.am    1  UNL1       -0.2678
      4 N          -1.7929  -17.8417   17.5474 N.pl3   1  UNL1       -0.3375
      5 C          -2.3889  -17.9935   18.9155 C.ar    1  UNL1        0.1568
      6 N          -3.7593  -18.5177   19.2271 N.ar    1  UNL1       -0.2242
      7 C          -3.9365  -18.4959   20.7164 C.ar    1  UNL1        0.0967
      8 C          -5.0831  -18.8962   21.5968 C.ar    1  UNL1        0.0750
      9 C          -4.9687  -18.7588   23.0861 C.ar    1  UNL1        0.0458
     10 C          -3.7077  -18.2211   23.6950 C.ar    1  UNL1        0.1682
     11 O          -3.5933  -18.0837   25.1843 O.3     1  UNL1       -0.5029
     12 C          -2.5611  -17.8208   22.8146 C.ar    1  UNL1        0.1751
     13 O          -1.3001  -17.2831   23.4235 O.3     1  UNL1       -0.5025
     14 C          -2.6755  -17.9582   21.3253 C.ar    1  UNL1        0.0865
     15 S          -1.7190  -17.6477   20.2123 S.2     1  UNL1       -0.0488
     16 H          -2.3141  -18.0976   16.7523 H       1  UNL1        0.1442
     17 H          -0.8806  -17.4863   17.4445 H       1  UNL1        0.1442
     18 H          -4.3096  -18.3337   25.7343 H       1  UNL1        0.2923
     19 H          -1.2286  -17.1973   24.3539 H       1  UNL1        0.2923
     20 C          -8.8192  -19.0970   20.2734 C.3     1  UNL1        0.1208
     21 C         -10.1531  -18.6270   20.7733 C.ar    1  UNL1       -0.0023
     22 C         -10.8366  -19.3600   21.8893 C.ar    1  UNL1       -0.0026
     23 C         -12.1704  -18.8901   22.3892 C.ar    1  UNL1       -0.0003
     24 C         -12.8209  -17.6871   21.7730 C.ar    1  UNL1       -0.0000
     25 C         -12.1375  -16.9540   20.6570 C.ar    1  UNL1       -0.0003
     26 C         -10.8036  -17.4240   20.1571 C.ar    1  UNL1       -0.0026
     27 C          -7.5113  -17.1471   21.3858 C.3     1  UNL1        0.1208
     28 C          -7.7189  -16.8635   22.8441 C.ar    1  UNL1       -0.0014
     29 C          -8.9563  -17.3548   23.5350 C.ar    1  UNL1       -0.0017
     30 C          -9.1638  -17.0712   24.9933 C.ar    1  UNL1        0.0120
     31 C          -8.1339  -16.2963   25.7606 C.ar    1  UNL1        0.0682
     32 CL         -8.3414  -16.0127   27.2189 Cl      1  UNL1       -0.0814
     33 C          -6.8965  -15.8050   25.0697 C.ar    1  UNL1        0.0679
     34 CL         -5.8665  -15.0301   25.8371 Cl      1  UNL1       -0.0814
     35 C          -6.6889  -16.0886   23.6114 C.ar    1  UNL1        0.0096
@<TRIPOS>BOND
     1     4     5    1
     2     5     6   ar
     3     6     7   ar
     4     7     8   ar
     5     8     1    1
     6     1     2    2
     7     1     3   am
     8     3    20    1
     9    20    21    1
    10    21    22   ar
    11    22    23   ar
    12    23    24   ar
    13    24    25   ar
    14    25    26   ar
    15     3    27    1
    16    27    28    1
    17    28    29   ar
    18    29    30   ar
    19    30    31   ar
    20    31    32    1
    21    31    33   ar
    22    33    34    1
    23    33    35   ar
    24     8     9   ar
    25     9    10   ar
    26    10    11    1
    27    10    12   ar
    28    12    13    1
    29    12    14   ar
    30    14    15   ar
    31    15     5   ar
    32    14     7   ar
    33    26    21   ar
    34    35    28   ar
    35     4    16    1
    36     4    17    1
    37    11    18    1
    38    13    19    1
@<TRIPOS>MOLECULE
*****
 35 38 0 0 0
SMALL
GASTEIGER

@<TRIPOS>ATOM
      1 C          -7.5485  -16.1370   23.5838 C.2     1  UNL1        0.2511
      2 O          -7.3310  -14.6812   23.8724 O.2     1  UNL1       -0.2698
      3 N          -6.3730  -17.0596   23.4532 N.am    1  UNL1       -0.2678
      4 N         -10.7338  -14.8263   18.7650 N.pl3   1  UNL1       -0.3375
      5 C         -10.6166  -15.5245   20.0874 C.ar    1  UNL1        0.1568
      6 N          -9.4207  -15.5035   20.9926 N.ar    1  UNL1       -0.2242
      7 C          -9.7396  -16.3323   22.2015 C.ar    1  UNL1        0.0967
      8 C          -8.9416  -16.6703   23.4257 C.ar    1  UNL1        0.0750
      9 C          -9.5366  -17.5416   24.4920 C.ar    1  UNL1        0.0458
     10 C         -10.9297  -18.0749   24.3339 C.ar    1  UNL1        0.1682
     11 O         -11.5247  -18.9461   25.4001 O.3     1  UNL1       -0.5029
     12 C         -11.7277  -17.7368   23.1096 C.ar    1  UNL1        0.1751
     13 O         -13.1208  -18.2701   22.9515 O.3     1  UNL1       -0.5025
     14 C         -11.1327  -16.8656   22.0434 C.ar    1  UNL1        0.0865
     15 S         -11.6746  -16.3663   20.7369 S.2     1  UNL1       -0.0488
     16 H          -9.9804  -14.2941   18.4209 H       1  UNL1        0.1442
     17 H         -11.5641  -14.9003   18.2412 H       1  UNL1        0.1442
     18 H         -11.0262  -19.1573   26.1649 H       1  UNL1        0.2923
     19 H         -13.4925  -18.8144   23.6176 H       1  UNL1        0.2923
     20 C          -4.9799  -16.5263   23.6113 C.3     1  UNL1        0.1208
     21 C          -3.8573  -17.1105   22.8059 C.ar    1  UNL1       -0.0023
     22 C          -2.9202  -16.2074   22.0602 C.ar    1  UNL1       -0.0026
     23 C          -1.7976  -16.7916   21.2548 C.ar    1  UNL1       -0.0003
     24 C          -1.6122  -18.2789   21.1952 C.ar    1  UNL1       -0.0000
     25 C          -2.5493  -19.1820   21.9410 C.ar    1  UNL1       -0.0003
     26 C          -3.6719  -18.5978   22.7464 C.ar    1  UNL1       -0.0026
     27 C          -6.5905  -18.5154   23.1646 C.3     1  UNL1        0.1208
     28 C          -7.2139  -18.9377   21.8674 C.ar    1  UNL1       -0.0014
     29 C          -6.3834  -18.9950   20.6196 C.ar    1  UNL1       -0.0017
     30 C          -7.0069  -19.4174   19.3224 C.ar    1  UNL1        0.0120
     31 C          -8.4609  -19.7825   19.2729 C.ar    1  UNL1        0.0682
     32 CL         -9.0844  -20.2049   17.9756 Cl      1  UNL1       -0.0814
     33 C          -9.2915  -19.7252   20.5206 C.ar    1  UNL1        0.0679
     34 CL        -10.7456  -20.0903   20.4711 Cl      1  UNL1       -0.0814
     35 C          -8.6680  -19.3029   21.8178 C.ar    1  UNL1        0.0096
@<TRIPOS>BOND
     1     4     5    1
     2     5     6   ar
     3     6     7   ar
     4     7     8   ar
     5     8     1    1
     6     1     2    2
     7     1     3   am
     8     3    20    1
     9    20    21    1
    10    21    22   ar
    11    22    23   ar
    12    23    24   ar
    13    24    25   ar
    14    25    26   ar
    15     3    27    1
    16    27    28    1
    17    28    29   ar
    18    29    30   ar
    19    30    31   ar
    20    31    32    1
    21    31    33   ar
    22    33    34    1
    23    33    35   ar
    24     8     9   ar
    25     9    10   ar
    26    10    11    1
    27    10    12   ar
    28    12    13    1
    29    12    14   ar
    30    14    15   ar
    31    15     5   ar
    32    14     7   ar
    33    26    21   ar
    34    35    28   ar
    35     4    16    1
    36     4    17    1
    37    11    18    1
    38    13    19    1
@<TRIPOS>MOLECULE
*****
 35 38 0 0 0
SMALL
GASTEIGER

@<TRIPOS>ATOM
      1 C          -5.6267  -19.9604   20.4809 C.2     1  UNL1        0.2511
      2 O          -5.6090  -21.4526   20.3293 O.2     1  UNL1       -0.2698
      3 N          -6.9328  -19.2363   20.6228 N.am    1  UNL1       -0.2678
      4 N          -3.3800  -17.9350   25.5734 N.pl3   1  UNL1       -0.3375
      5 C          -3.2831  -18.0786   24.0835 C.ar    1  UNL1        0.1568
      6 N          -4.2684  -18.7845   23.1998 N.ar    1  UNL1       -0.2242
      7 C          -3.7782  -18.6837   21.7858 C.ar    1  UNL1        0.0967
      8 C          -4.3384  -19.1921   20.4906 C.ar    1  UNL1        0.0750
      9 C          -3.6104  -18.9324   19.2050 C.ar    1  UNL1        0.0458
     10 C          -2.3221  -18.1642   19.2148 C.ar    1  UNL1        0.1682
     11 O          -1.5940  -17.9044   17.9293 O.3     1  UNL1       -0.5029
     12 C          -1.7618  -17.6557   20.5100 C.ar    1  UNL1        0.1751
     13 O          -0.4735  -16.8874   20.5198 O.3     1  UNL1       -0.5025
     14 C          -2.4899  -17.9154   21.7955 C.ar    1  UNL1        0.0865
     15 S          -2.1839  -17.5415   23.2156 S.2     1  UNL1       -0.0488
     16 H          -4.1441  -18.3245   26.0569 H       1  UNL1        0.1442
     17 H          -2.6795  -17.4512   26.0679 H       1  UNL1        0.1442
     18 H          -1.9440  -18.2220   17.1203 H       1  UNL1        0.2923
     19 H          -0.0187  -16.7252   19.7168 H       1  UNL1        0.2923
     20 C          -8.2211  -20.0046   20.6130 C.3     1  UNL1        0.1208
     21 C          -9.1589  -19.9112   21.7801 C.ar    1  UNL1       -0.0023
     22 C          -8.6632  -20.2025   23.1656 C.ar    1  UNL1       -0.0026
     23 C          -9.6009  -20.1091   24.3326 C.ar    1  UNL1       -0.0003
     24 C         -11.0342  -19.7244   24.1142 C.ar    1  UNL1       -0.0000
     25 C         -11.5298  -19.4331   22.7288 C.ar    1  UNL1       -0.0003
     26 C         -10.5921  -19.5265   21.5617 C.ar    1  UNL1       -0.0026
     27 C          -6.9505  -17.7442   20.7744 C.3     1  UNL1        0.1208
     28 C          -7.4900  -17.1242   22.0292 C.ar    1  UNL1       -0.0014
     29 C          -6.5631  -16.7951   23.1617 C.ar    1  UNL1       -0.0017
     30 C          -7.1027  -16.1751   24.4165 C.ar    1  UNL1        0.0120
     31 C          -8.5691  -15.8842   24.5388 C.ar    1  UNL1        0.0682
     32 CL         -9.1087  -15.2642   25.7936 Cl      1  UNL1       -0.0814
     33 C          -9.4960  -16.2133   23.4063 C.ar    1  UNL1        0.0679
     34 CL        -10.9625  -15.9224   23.5286 Cl      1  UNL1       -0.0814
     35 C          -8.9565  -16.8333   22.1515 C.ar    1  UNL1        0.0096
@<TRIPOS>BOND
     1     4     5    1
     2     5     6   ar
     3     6     7   ar
     4     7     8   ar
     5     8     1    1
     6     1     2    2
     7     1     3   am
     8     3    20    1
     9    20    21    1
    10    21    22   ar
    11    22    23   ar
    12    23    24   ar
    13    24    25   ar
    14    25    26   ar
    15     3    27    1
    16    27    28    1
    17    28    29   ar
    18    29    30   ar
    19    30    31   ar
    20    31    32    1
    21    31    33   ar
    22    33    34    1
    23    33    35   ar
    24     8     9   ar
    25     9    10   ar
    26    10    11    1
    27    10    12   ar
    28    12    13    1
    29    12    14   ar
    30    14    15   ar
    31    15     5   ar
    32    14     7   ar
    33    26    21   ar
    34    35    28   ar
    35     4    16    1
    36     4    17    1
    37    11    18    1
    38    13    19    1
@<TRIPOS>MOLECULE
*****
 35 38 0 0 0
SMALL
GASTEIGER

@<TRIPOS>ATOM
      1 C           7.3694   -2.9946   21.9367 C.2     1  UNL1        0.2511
      2 O           8.8670   -2.9123   21.9228 O.2     1  UNL1       -0.2698
      3 N           6.6504   -3.3670   23.1995 N.am    1  UNL1       -0.2678
      4 N           7.4388    2.4254   19.5486 N.pl3   1  UNL1       -0.3375
      5 C           6.9610    1.0039   19.5165 C.ar    1  UNL1        0.1568
      6 N           7.3101   -0.0663   20.5078 N.ar    1  UNL1       -0.2242
      7 C           6.6151   -1.3286   20.0914 C.ar    1  UNL1        0.0967
      8 C           6.5907   -2.7046   20.6879 C.ar    1  UNL1        0.0750
      9 C           5.7875   -3.7908   20.0357 C.ar    1  UNL1        0.0458
     10 C           5.0088   -3.5008   18.7869 C.ar    1  UNL1        0.1682
     11 O           4.2057   -4.5868   18.1346 O.3     1  UNL1       -0.5029
     12 C           5.0332   -2.1247   18.1903 C.ar    1  UNL1        0.1751
     13 O           4.2545   -1.8347   16.9415 O.3     1  UNL1       -0.5025
     14 C           5.8364   -1.0386   18.8426 C.ar    1  UNL1        0.0865
     15 S           6.0501    0.4029   18.4873 S.2     1  UNL1       -0.0488
     16 H           8.0382    2.7270   20.2690 H       1  UNL1        0.1442
     17 H           7.1529    3.0567   18.8493 H       1  UNL1        0.1442
     18 H           4.1904   -5.4464   18.5072 H       1  UNL1        0.2923
     19 H           3.7528   -2.5131   16.5341 H       1  UNL1        0.2923
     20 C           7.4291   -3.6570   24.4483 C.3     1  UNL1        0.1208
     21 C           7.5333   -5.0642   24.9574 C.ar    1  UNL1       -0.0023
     22 C           6.9986   -5.4120   26.3150 C.ar    1  UNL1       -0.0026
     23 C           7.1027   -6.8191   26.8242 C.ar    1  UNL1       -0.0003
     24 C           7.7416   -7.8784   25.9757 C.ar    1  UNL1       -0.0000
     25 C           8.2763   -7.5305   24.6181 C.ar    1  UNL1       -0.0003
     26 C           8.1721   -6.1234   24.1089 C.ar    1  UNL1       -0.0026
     27 C           5.1527   -3.4494   23.2133 C.3     1  UNL1        0.1208
     28 C           4.3375   -2.2302   23.5277 C.ar    1  UNL1       -0.0014
     29 C           4.3184   -1.6800   24.9230 C.ar    1  UNL1       -0.0017
     30 C           3.5031   -0.4607   25.2373 C.ar    1  UNL1        0.0120
     31 C           2.7069    0.2082   24.1564 C.ar    1  UNL1        0.0682
     32 CL          1.8915    1.4275   24.4707 Cl      1  UNL1       -0.0814
     33 C           2.7260   -0.3420   22.7610 C.ar    1  UNL1        0.0679
     34 CL          1.9297    0.3270   21.6801 Cl      1  UNL1       -0.0814
     35 C           3.5412   -1.5612   22.4467 C.ar    1  UNL1        0.0096
@<TRIPOS>BOND
     1     4     5    1
     2     5     6   ar
     3     6     7   ar
     4     7     8   ar
     5     8     1    1
     6     1     2    2
     7     1     3   am
     8     3    20    1
     9    20    21    1
    10    21    22   ar
    11    22    23   ar
    12    23    24   ar
    13    24    25   ar
    14    25    26   ar
    15     3    27    1
    16    27    28    1
    17    28    29   ar
    18    29    30   ar
    19    30    31   ar
    20    31    32    1
    21    31    33   ar
    22    33    34    1
    23    33    35   ar
    24     8     9   ar
    25     9    10   ar
    26    10    11    1
    27    10    12   ar
    28    12    13    1
    29    12    14   ar
    30    14    15   ar
    31    15     5   ar
    32    14     7   ar
    33    26    21   ar
    34    35    28   ar
    35     4    16    1
    36     4    17    1
    37    11    18    1
    38    13    19    1
@<TRIPOS>MOLECULE
*****
 35 38 0 0 0
SMALL
GASTEIGER

@<TRIPOS>ATOM
      1 C           1.3587    0.5221   20.3847 C.2     1  UNL1        0.2511
      2 O          -0.0765    0.0875   20.4202 O.2     1  UNL1       -0.2698
      3 N           1.7590    1.8376   20.9841 N.am    1  UNL1       -0.2678
      4 N           4.5948   -3.1718   23.6964 N.pl3   1  UNL1       -0.3375
      5 C           4.2522   -2.6043   22.3508 C.ar    1  UNL1        0.1568
      6 N           3.2137   -1.5581   22.0735 N.ar    1  UNL1       -0.2242
      7 C           3.2077   -1.2906   20.5976 C.ar    1  UNL1        0.0967
      8 C           2.3936   -0.3587   19.7498 C.ar    1  UNL1        0.0750
      9 C           2.6144   -0.3076   18.2669 C.ar    1  UNL1        0.0458
     10 C           3.6493   -1.1884   17.6320 C.ar    1  UNL1        0.1682
     11 O           3.8702   -1.1374   16.1493 O.3     1  UNL1       -0.5029
     12 C           4.4634   -2.1203   18.4799 C.ar    1  UNL1        0.1751
     13 O           5.4984   -3.0011   17.8450 O.3     1  UNL1       -0.5025
     14 C           4.2426   -2.1714   19.9627 C.ar    1  UNL1        0.0865
     15 S           4.8882   -2.9833   21.0462 S.2     1  UNL1       -0.0488
     16 H           4.1189   -2.8573   24.4989 H       1  UNL1        0.1442
     17 H           5.2954   -3.8586   23.7771 H       1  UNL1        0.1442
     18 H           3.3616   -0.5553   15.6196 H       1  UNL1        0.2923
     19 H           5.6363   -2.9692   16.9188 H       1  UNL1        0.2923
     20 C           0.7241    2.7184   21.6190 C.3     1  UNL1        0.1208
     21 C           0.2775    2.4562   23.0269 C.ar    1  UNL1       -0.0023
     22 C          -0.7882    3.3103   23.6471 C.ar    1  UNL1       -0.0026
     23 C          -1.2348    3.0481   25.0548 C.ar    1  UNL1       -0.0003
     24 C          -0.6156    1.9317   25.8424 C.ar    1  UNL1       -0.0000
     25 C           0.4501    1.0775   25.2222 C.ar    1  UNL1       -0.0003
     26 C           0.8967    1.3398   23.8144 C.ar    1  UNL1       -0.0026
     27 C           3.1942    2.2723   20.9486 C.3     1  UNL1        0.1208
     28 C           3.7575    2.8990   19.7078 C.ar    1  UNL1       -0.0014
     29 C           5.1371    2.5360   19.2441 C.ar    1  UNL1       -0.0017
     30 C           5.7003    3.1629   18.0031 C.ar    1  UNL1        0.0120
     31 C           4.8841    4.1526   17.2260 C.ar    1  UNL1        0.0682
     32 CL          5.4474    4.7795   15.9850 Cl      1  UNL1       -0.0814
     33 C           3.5045    4.5156   17.6897 C.ar    1  UNL1        0.0679
     34 CL          2.6882    5.5054   16.9124 Cl      1  UNL1       -0.0814
     35 C           2.9412    3.8889   18.9305 C.ar    1  UNL1        0.0096
@<TRIPOS>BOND
     1     4     5    1
     2     5     6   ar
     3     6     7   ar
     4     7     8   ar
     5     8     1    1
     6     1     2    2
     7     1     3   am
     8     3    20    1
     9    20    21    1
    10    21    22   ar
    11    22    23   ar
    12    23    24   ar
    13    24    25   ar
    14    25    26   ar
    15     3    27    1
    16    27    28    1
    17    28    29   ar
    18    29    30   ar
    19    30    31   ar
    20    31    32    1
    21    31    33   ar
    22    33    34    1
    23    33    35   ar
    24     8     9   ar
    25     9    10   ar
    26    10    11    1
    27    10    12   ar
    28    12    13    1
    29    12    14   ar
    30    14    15   ar
    31    15     5   ar
    32    14     7   ar
    33    26    21   ar
    34    35    28   ar
    35     4    16    1
    36     4    17    1
    37    11    18    1
    38    13    19    1
@<TRIPOS>MOLECULE
*****
 35 38 0 0 0
SMALL
GASTEIGER

@<TRIPOS>ATOM
      1 C          -0.0393    3.4956   21.4129 C.2     1  UNL1        0.2511
      2 O           0.3028    4.7153   22.2161 O.2     1  UNL1       -0.2698
      3 N           0.6858    2.2062   21.6613 N.am    1  UNL1       -0.2678
      4 N          -5.7618    3.2816   22.9270 N.pl3   1  UNL1       -0.3375
      5 C          -4.7080    3.3853   21.8645 C.ar    1  UNL1        0.1568
      6 N          -3.2252    3.3900   22.0909 N.ar    1  UNL1       -0.2242
      7 C          -2.5528    3.5102   20.7554 C.ar    1  UNL1        0.0967
      8 C          -1.1066    3.5652   20.3612 C.ar    1  UNL1        0.0750
      9 C          -0.7276    3.6898   18.9151 C.ar    1  UNL1        0.0458
     10 C          -1.7949    3.7594   17.8634 C.ar    1  UNL1        0.1682
     11 O          -1.4159    3.8841   16.4175 O.3     1  UNL1       -0.5029
     12 C          -3.2411    3.7044   18.2577 C.ar    1  UNL1        0.1751
     13 O          -4.3084    3.7740   17.2060 O.3     1  UNL1       -0.5025
     14 C          -3.6200    3.5798   19.7037 C.ar    1  UNL1        0.0865
     15 S          -4.9520    3.5026   20.3892 S.2     1  UNL1       -0.0488
     16 H          -5.5009    3.2080   23.8735 H       1  UNL1        0.1442
     17 H          -6.7142    3.2871   22.6779 H       1  UNL1        0.1442
     18 H          -0.5125    3.9184   16.1712 H       1  UNL1        0.2923
     19 H          -4.0716    3.8519   16.3027 H       1  UNL1        0.2923
     20 C           1.7531    2.1365   22.7131 C.3     1  UNL1        0.1208
     21 C           1.3901    1.7984   24.1287 C.ar    1  UNL1       -0.0023
     22 C           2.4458    1.3162   25.0789 C.ar    1  UNL1       -0.0026
     23 C           2.0829    0.9780   26.4945 C.ar    1  UNL1       -0.0003
     24 C           0.6642    1.1220   26.9599 C.ar    1  UNL1       -0.0000
     25 C          -0.3916    1.6042   26.0097 C.ar    1  UNL1       -0.0003
     26 C          -0.0286    1.9424   24.5941 C.ar    1  UNL1       -0.0026
     27 C           0.3437    0.9864   20.8581 C.3     1  UNL1        0.1208
     28 C           1.4073    0.2899   20.0622 C.ar    1  UNL1       -0.0014
     29 C           1.7967    0.8130   18.7114 C.ar    1  UNL1       -0.0017
     30 C           2.8604    0.1164   17.9155 C.ar    1  UNL1        0.0120
     31 C           3.5347   -1.1031   18.4705 C.ar    1  UNL1        0.0682
     32 CL          4.5984   -1.7997   17.6746 Cl      1  UNL1       -0.0814
     33 C           3.1454   -1.6261   19.8213 C.ar    1  UNL1        0.0679
     34 CL          3.8197   -2.8457   20.3763 Cl      1  UNL1       -0.0814
     35 C           2.0817   -0.9296   20.6172 C.ar    1  UNL1        0.0096
@<TRIPOS>BOND
     1     4     5    1
     2     5     6   ar
     3     6     7   ar
     4     7     8   ar
     5     8     1    1
     6     1     2    2
     7     1     3   am
     8     3    20    1
     9    20    21    1
    10    21    22   ar
    11    22    23   ar
    12    23    24   ar
    13    24    25   ar
    14    25    26   ar
    15     3    27    1
    16    27    28    1
    17    28    29   ar
    18    29    30   ar
    19    30    31   ar
    20    31    32    1
    21    31    33   ar
    22    33    34    1
    23    33    35   ar
    24     8     9   ar
    25     9    10   ar
    26    10    11    1
    27    10    12   ar
    28    12    13    1
    29    12    14   ar
    30    14    15   ar
    31    15     5   ar
    32    14     7   ar
    33    26    21   ar
    34    35    28   ar
    35     4    16    1
    36     4    17    1
    37    11    18    1
    38    13    19    1
@<TRIPOS>MOLECULE
*****
 35 38 0 0 0
SMALL
GASTEIGER

@<TRIPOS>ATOM
      1 C           6.6986   -0.6200   32.5208 C.2     1  UNL1        0.2511
      2 O           8.0081    0.0607   32.7890 O.2     1  UNL1       -0.2698
      3 N           5.4235   -0.0242   33.0397 N.am    1  UNL1       -0.2678
      4 N           6.3955   -0.4904   26.6068 N.pl3   1  UNL1       -0.3375
      5 C           6.4643   -1.2783   27.8814 C.ar    1  UNL1        0.1568
      6 N           6.5326   -0.7087   29.2673 N.ar    1  UNL1       -0.2242
      7 C           6.5874   -1.8524   30.2364 C.ar    1  UNL1        0.0967
      8 C           6.6642   -1.8964   31.7337 C.ar    1  UNL1        0.0750
      9 C           6.7066   -3.2169   32.4441 C.ar    1  UNL1        0.0458
     10 C           6.6721   -4.4934   31.6570 C.ar    1  UNL1        0.1682
     11 O           6.7145   -5.8138   32.3672 O.3     1  UNL1       -0.5029
     12 C           6.5953   -4.4493   30.1595 C.ar    1  UNL1        0.1751
     13 O           6.5609   -5.7257   29.3725 O.3     1  UNL1       -0.5025
     14 C           6.5530   -3.1288   29.4493 C.ar    1  UNL1        0.0865
     15 S           6.4769   -2.7740   27.9938 S.2     1  UNL1       -0.0488
     16 H           6.3925    0.4936   26.6359 H       1  UNL1        0.1442
     17 H           6.3534   -0.9574   25.7411 H       1  UNL1        0.1442
     18 H           6.7625   -5.8413   33.3026 H       1  UNL1        0.2923
     19 H           6.5874   -6.5506   29.8162 H       1  UNL1        0.2923
     20 C           5.4579    1.2523   33.8268 C.3     1  UNL1        0.1208
     21 C           4.6433    1.3831   35.0796 C.ar    1  UNL1       -0.0023
     22 C           4.8727    0.4423   36.2251 C.ar    1  UNL1       -0.0026
     23 C           4.0581    0.5731   37.4778 C.ar    1  UNL1       -0.0003
     24 C           3.0140    1.6448   37.5850 C.ar    1  UNL1       -0.0000
     25 C           2.7846    2.5856   36.4395 C.ar    1  UNL1       -0.0003
     26 C           3.5992    2.4547   35.1867 C.ar    1  UNL1       -0.0026
     27 C           4.1140   -0.7049   32.7716 C.3     1  UNL1        0.1208
     28 C           3.1648   -0.1331   31.7606 C.ar    1  UNL1       -0.0014
     29 C           2.9853   -0.8095   30.4339 C.ar    1  UNL1       -0.0017
     30 C           2.0360   -0.2377   29.4229 C.ar    1  UNL1        0.0120
     31 C           1.2664    1.0104   29.7386 C.ar    1  UNL1        0.0682
     32 CL          0.3171    1.5822   28.7277 Cl      1  UNL1       -0.0814
     33 C           1.4459    1.6868   31.0654 C.ar    1  UNL1        0.0679
     34 CL          0.6762    2.9350   31.3811 Cl      1  UNL1       -0.0814
     35 C           2.3951    1.1151   32.0763 C.ar    1  UNL1        0.0096
@<TRIPOS>BOND
     1     4     5    1
     2     5     6   ar
     3     6     7   ar
     4     7     8   ar
     5     8     1    1
     6     1     2    2
     7     1     3   am
     8     3    20    1
     9    20    21    1
    10    21    22   ar
    11    22    23   ar
    12    23    24   ar
    13    24    25   ar
    14    25    26   ar
    15     3    27    1
    16    27    28    1
    17    28    29   ar
    18    29    30   ar
    19    30    31   ar
    20    31    32    1
    21    31    33   ar
    22    33    34    1
    23    33    35   ar
    24     8     9   ar
    25     9    10   ar
    26    10    11    1
    27    10    12   ar
    28    12    13    1
    29    12    14   ar
    30    14    15   ar
    31    15     5   ar
    32    14     7   ar
    33    26    21   ar
    34    35    28   ar
    35     4    16    1
    36     4    17    1
    37    11    18    1
    38    13    19    1
