@<TRIPOS>MOLECULE
*****
 35 39 0 0 0
SMALL
GASTEIGER

@<TRIPOS>ATOM
      1 C           4.8831    3.3455   17.6611 C.ar    1  UNL1        0.1060
      2 C           6.0375    2.3883   17.6277 C.ar    1  UNL1        0.0196
      3 C           5.8784    1.0020   18.1782 C.ar    1  UNL1        0.0160
      4 C           4.5649    0.5731   18.7621 C.ar    1  UNL1        0.0523
      5 C           3.4106    1.5304   18.7955 C.ar    1  UNL1        0.0682
      6 C           3.5697    2.9166   18.2450 C.ar    1  UNL1        0.0241
      7 C           2.0972    1.1014   19.3794 C.2     1  UNL1        0.2508
      8 O           1.0104    0.5862   18.4830 O.2     1  UNL1       -0.2698
      9 N           1.8706    1.1875   20.8597 N.am    1  UNL1       -0.2661
     10 C           0.6163    0.7971   21.5839 C.3     1  UNL1        0.1236
     11 C           0.8291    1.0475   23.0475 C.ar    1  UNL1        0.0338
     12 C           0.1855    0.9610   24.3996 C.ar    1  UNL1        0.0991
     13 N           1.1734    1.4527   25.4156 N.ar    1  UNL1       -0.2271
     14 N           2.4277    1.8430   24.6914 N.ar    1  UNL1       -0.1680
     15 C           2.2149    1.5926   23.2277 C.ar    1  UNL1        0.0981
     16 C           2.8586    1.6791   21.8757 C.3     1  UNL1        0.1414
     17 C           0.9468    1.5388   26.8958 C.ar    1  UNL1        0.1042
     18 C           1.9204    2.2821   27.7616 C.ar    1  UNL1        0.1181
     19 N           1.6939    2.3683   29.2419 N.ar    1  UNL1       -0.2384
     20 C           0.4937    1.7111   29.8564 C.ar    1  UNL1        0.1285
     21 C          -0.4799    0.9677   28.9906 C.ar    1  UNL1        0.1607
     22 F          -1.6801    0.3105   29.6053 F       1  UNL1       -0.2025
     23 C          -0.2533    0.8816   27.5103 C.ar    1  UNL1        0.0520
     24 N           4.4059   -0.8132   19.3126 N.pl3   1  UNL1       -0.3070
     25 C           3.8951   -1.9155   18.4328 C.3     1  UNL1        0.0964
     26 C           3.7361   -3.3017   18.9833 C.3     1  UNL1        0.0880
     27 C           4.0878   -3.5857   20.4136 C.3     1  UNL1        0.2672
     28 F           4.2861   -4.3439   21.6925 F       1  UNL1       -0.2042
     29 F           3.6459   -4.9513   19.9779 F       1  UNL1       -0.2042
     30 C           4.5986   -2.4834   21.2933 C.3     1  UNL1        0.0880
     31 C           4.7576   -1.0971   20.7428 C.3     1  UNL1        0.0964
     32 C           5.2012    6.1180   16.5602 C.3     1  UNL1        0.1816
     33 S           5.0422    4.7318   17.1106 S.O2    1  UNL1        0.0105
     34 O           6.5330    4.5673   17.1273 O.2     1  UNL1       -0.1686
     35 O           3.5513    4.8962   17.0940 O.2     1  UNL1       -0.1686
@<TRIPOS>BOND
     1    32    33    1
     2    33    34    2
     3    33    35    2
     4    33     1    1
     5     1     2   ar
     6     2     3   ar
     7     3     4   ar
     8     4    24    1
     9    24    25    1
    10    25    26    1
    11    26    27    1
    12    27    28    1
    13    27    29    1
    14    27    30    1
    15    30    31    1
    16     4     5   ar
    17     5     7    1
    18     7     8    2
    19     7     9   am
    20     9    10    1
    21    10    11    1
    22    11    12   ar
    23    12    13   ar
    24    13    17    1
    25    17    18   ar
    26    18    19   ar
    27    19    20   ar
    28    20    21   ar
    29    21    22    1
    30    21    23   ar
    31    13    14   ar
    32    14    15   ar
    33    15    16    1
    34     5     6   ar
    35     6     1   ar
    36    31    24    1
    37    16     9    1
    38    15    11   ar
    39    23    17   ar
@<TRIPOS>MOLECULE
*****
 35 39 0 0 0
SMALL
GASTEIGER

@<TRIPOS>ATOM
      1 C          -4.5286    3.7902   21.6296 C.ar    1  UNL1        0.1060
      2 C          -5.0670    3.4456   22.9865 C.ar    1  UNL1        0.0196
      3 C          -4.1384    3.3548   24.1610 C.ar    1  UNL1        0.0160
      4 C          -2.6713    3.6087   23.9785 C.ar    1  UNL1        0.0523
      5 C          -2.1328    3.9533   22.6215 C.ar    1  UNL1        0.0682
      6 C          -3.0615    4.0440   21.4470 C.ar    1  UNL1        0.0241
      7 C          -0.6658    4.2071   22.4391 C.2     1  UNL1        0.2508
      8 O          -0.0730    5.5181   22.8632 O.2     1  UNL1       -0.2698
      9 N           0.2085    3.1499   21.8326 N.am    1  UNL1       -0.2661
     10 C           1.6846    3.2593   21.5889 C.3     1  UNL1        0.1236
     11 C           2.1485    1.9746   20.9689 C.ar    1  UNL1        0.0338
     12 C           3.3475    1.2483   20.4352 C.ar    1  UNL1        0.0991
     13 N           2.8992   -0.1040   19.9658 N.ar    1  UNL1       -0.2271
     14 N           1.4232   -0.2135   20.2095 N.ar    1  UNL1       -0.1680
     15 C           0.9592    1.0713   20.8295 C.ar    1  UNL1        0.0981
     16 C          -0.2398    1.7976   21.3632 C.3     1  UNL1        0.1414
     17 C           3.7735   -1.1612   19.3593 C.ar    1  UNL1        0.1042
     18 C           4.9267   -0.7694   18.4836 C.ar    1  UNL1        0.1181
     19 N           5.8010   -1.8266   17.8771 N.ar    1  UNL1       -0.2384
     20 C           5.5221   -3.2756   18.1463 C.ar    1  UNL1        0.1285
     21 C           4.3690   -3.6675   19.0219 C.ar    1  UNL1        0.1607
     22 F           4.0902   -5.1167   19.2910 F       1  UNL1       -0.2025
     23 C           3.4947   -2.6103   19.6284 C.ar    1  UNL1        0.0520
     24 N          -1.7427    3.5179   25.1530 N.pl3   1  UNL1       -0.3070
     25 C          -1.5921    4.6859   26.0820 C.3     1  UNL1        0.0964
     26 C          -0.6635    4.5952   27.2565 C.3     1  UNL1        0.0880
     27 C           0.1145    3.3365   27.5020 C.3     1  UNL1        0.2672
     28 F           1.0587    2.3664   28.1481 F       1  UNL1       -0.2042
     29 F           0.5930    4.1676   28.6555 F       1  UNL1       -0.2042
     30 C          -0.0361    2.1685   26.5730 C.3     1  UNL1        0.0880
     31 C          -0.9647    2.2592   25.3985 C.3     1  UNL1        0.0964
     32 C          -6.3858    3.9716   19.2805 C.3     1  UNL1        0.1816
     33 S          -5.4572    3.8809   20.4551 S.O2    1  UNL1        0.0105
     34 O          -6.5755    4.2830   21.3703 O.2     1  UNL1       -0.1686
     35 O          -4.3388    3.4788   19.5398 O.2     1  UNL1       -0.1686
@<TRIPOS>BOND
     1    32    33    1
     2    33    34    2
     3    33    35    2
     4    33     1    1
     5     1     2   ar
     6     2     3   ar
     7     3     4   ar
     8     4    24    1
     9    24    25    1
    10    25    26    1
    11    26    27    1
    12    27    28    1
    13    27    29    1
    14    27    30    1
    15    30    31    1
    16     4     5   ar
    17     5     7    1
    18     7     8    2
    19     7     9   am
    20     9    10    1
    21    10    11    1
    22    11    12   ar
    23    12    13   ar
    24    13    17    1
    25    17    18   ar
    26    18    19   ar
    27    19    20   ar
    28    20    21   ar
    29    21    22    1
    30    21    23   ar
    31    13    14   ar
    32    14    15   ar
    33    15    16    1
    34     5     6   ar
    35     6     1   ar
    36    31    24    1
    37    16     9    1
    38    15    11   ar
    39    23    17   ar
@<TRIPOS>MOLECULE
*****
 35 39 0 0 0
SMALL
GASTEIGER

@<TRIPOS>ATOM
      1 C           6.9313   -3.4624   20.9042 C.ar    1  UNL1        0.1060
      2 C           5.8453   -4.0270   20.0371 C.ar    1  UNL1        0.0196
      3 C           4.6471   -3.1913   19.6963 C.ar    1  UNL1        0.0160
      4 C           4.5352   -1.7911   20.2225 C.ar    1  UNL1        0.0523
      5 C           5.6212   -1.2265   21.0896 C.ar    1  UNL1        0.0682
      6 C           6.8193   -2.0623   21.4304 C.ar    1  UNL1        0.0241
      7 C           5.5091    0.1737   21.6158 C.2     1  UNL1        0.2508
      8 O           6.0615    1.3199   20.8214 O.2     1  UNL1       -0.2698
      9 N           4.8447    0.4276   22.9364 N.am    1  UNL1       -0.2661
     10 C           4.6598    1.7663   23.5874 C.3     1  UNL1        0.1236
     11 C           3.9493    1.5535   24.8912 C.ar    1  UNL1        0.0338
     12 C           3.3959    2.2493   26.0994 C.ar    1  UNL1        0.0991
     13 N           2.7997    1.2091   27.0008 N.ar    1  UNL1       -0.2271
     14 N           2.9847   -0.1296   26.3498 N.ar    1  UNL1       -0.1680
     15 C           3.6952    0.0833   25.0460 C.ar    1  UNL1        0.0981
     16 C           4.2485   -0.6125   23.8378 C.3     1  UNL1        0.1414
     17 C           2.1353    1.4631   28.3214 C.ar    1  UNL1        0.1042
     18 C           2.0413    0.3636   29.3375 C.ar    1  UNL1        0.1181
     19 N           1.3769    0.6176   30.6581 N.ar    1  UNL1       -0.2384
     20 C           0.8064    1.9710   30.9626 C.ar    1  UNL1        0.1285
     21 C           0.9004    3.0705   29.9466 C.ar    1  UNL1        0.1607
     22 F           0.3299    4.4240   30.2513 F       1  UNL1       -0.2025
     23 C           1.5648    2.8165   28.6260 C.ar    1  UNL1        0.0520
     24 N           3.3370   -0.9554   19.8817 N.pl3   1  UNL1       -0.3070
     25 C           3.3261   -0.1377   18.6242 C.3     1  UNL1        0.0964
     26 C           2.1280    0.6979   18.2833 C.3     1  UNL1        0.0880
     27 C           0.9408    0.7159   19.2000 C.3     1  UNL1        0.2672
     28 F          -0.4136    1.0594   19.7457 F       1  UNL1       -0.2042
     29 F           0.4595    1.6529   18.1320 F       1  UNL1       -0.2042
     30 C           0.9517   -0.1017   20.4575 C.3     1  UNL1        0.0880
     31 C           2.1498   -0.9374   20.7983 C.3     1  UNL1        0.0964
     32 C           9.3276   -5.1338   21.5859 C.3     1  UNL1        0.1816
     33 S           8.1294   -4.2981   21.2450 S.O2    1  UNL1        0.0105
     34 O           7.3389   -4.9965   22.3115 O.2     1  UNL1       -0.1686
     35 O           8.9199   -3.5997   20.1785 O.2     1  UNL1       -0.1686
@<TRIPOS>BOND
     1    32    33    1
     2    33    34    2
     3    33    35    2
     4    33     1    1
     5     1     2   ar
     6     2     3   ar
     7     3     4   ar
     8     4    24    1
     9    24    25    1
    10    25    26    1
    11    26    27    1
    12    27    28    1
    13    27    29    1
    14    27    30    1
    15    30    31    1
    16     4     5   ar
    17     5     7    1
    18     7     8    2
    19     7     9   am
    20     9    10    1
    21    10    11    1
    22    11    12   ar
    23    12    13   ar
    24    13    17    1
    25    17    18   ar
    26    18    19   ar
    27    19    20   ar
    28    20    21   ar
    29    21    22    1
    30    21    23   ar
    31    13    14   ar
    32    14    15   ar
    33    15    16    1
    34     5     6   ar
    35     6     1   ar
    36    31    24    1
    37    16     9    1
    38    15    11   ar
    39    23    17   ar
@<TRIPOS>MOLECULE
*****
 35 39 0 0 0
SMALL
GASTEIGER

@<TRIPOS>ATOM
      1 C           1.4712    0.7825   20.9476 C.ar    1  UNL1        0.1060
      2 C           1.4725   -0.4675   20.1185 C.ar    1  UNL1        0.0196
      3 C           2.6403   -1.4069   20.1795 C.ar    1  UNL1        0.0160
      4 C           3.8070   -1.0961   21.0697 C.ar    1  UNL1        0.0523
      5 C           3.8058    0.1540   21.8988 C.ar    1  UNL1        0.0682
      6 C           2.6378    1.0933   21.8377 C.ar    1  UNL1        0.0241
      7 C           4.9725    0.4646   22.7889 C.2     1  UNL1        0.2508
      8 O           6.1891    1.1358   22.2239 O.2     1  UNL1       -0.2698
      9 N           4.9224    0.1042   24.2441 N.am    1  UNL1       -0.2661
     10 C           6.0063    0.3509   25.2513 C.3     1  UNL1        0.1236
     11 C           5.5334   -0.1671   26.5773 C.ar    1  UNL1        0.0338
     12 C           5.9110   -0.3348   28.0193 C.ar    1  UNL1        0.0991
     13 N           4.7684   -1.0052   28.7227 N.ar    1  UNL1       -0.2271
     14 N           3.6845   -1.2519   27.7155 N.ar    1  UNL1       -0.1680
     15 C           4.1574   -0.7339   26.3895 C.ar    1  UNL1        0.0981
     16 C           3.7798   -0.5663   24.9475 C.3     1  UNL1        0.1414
     17 C           4.7183   -1.3657   30.1779 C.ar    1  UNL1        0.1042
     18 C           3.5860   -0.8787   31.0327 C.ar    1  UNL1        0.1181
     19 N           3.5360   -1.2391   32.4879 N.ar    1  UNL1       -0.2384
     20 C           4.6183   -2.0866   33.0882 C.ar    1  UNL1        0.1285
     21 C           5.7506   -2.5736   32.2334 C.ar    1  UNL1        0.1607
     22 F           6.8329   -3.4210   32.8339 F       1  UNL1       -0.2025
     23 C           5.8006   -2.2131   30.7782 C.ar    1  UNL1        0.0520
     24 N           4.9749   -2.0354   21.1307 N.pl3   1  UNL1       -0.3070
     25 C           5.0930   -3.0127   22.2625 C.3     1  UNL1        0.0964
     26 C           6.2609   -3.9520   22.3235 C.3     1  UNL1        0.0880
     27 C           7.3107   -3.9141   21.2528 C.3     1  UNL1        0.2672
     28 F           8.5511   -4.2569   20.4821 F       1  UNL1       -0.2042
     29 F           7.8595   -5.0104   22.1169 F       1  UNL1       -0.2042
     30 C           7.1925   -2.9368   20.1210 C.3     1  UNL1        0.0880
     31 C           6.0247   -1.9975   20.0600 C.3     1  UNL1        0.0964
     32 C          -0.8645    2.6612   20.8255 C.3     1  UNL1        0.1816
     33 S           0.3034    1.7218   20.8865 S.O2    1  UNL1        0.0105
     34 O           1.1957    2.8576   21.2911 O.2     1  UNL1       -0.1686
     35 O          -0.5890    0.5860   20.4820 O.2     1  UNL1       -0.1686
@<TRIPOS>BOND
     1    32    33    1
     2    33    34    2
     3    33    35    2
     4    33     1    1
     5     1     2   ar
     6     2     3   ar
     7     3     4   ar
     8     4    24    1
     9    24    25    1
    10    25    26    1
    11    26    27    1
    12    27    28    1
    13    27    29    1
    14    27    30    1
    15    30    31    1
    16     4     5   ar
    17     5     7    1
    18     7     8    2
    19     7     9   am
    20     9    10    1
    21    10    11    1
    22    11    12   ar
    23    12    13   ar
    24    13    17    1
    25    17    18   ar
    26    18    19   ar
    27    19    20   ar
    28    20    21   ar
    29    21    22    1
    30    21    23   ar
    31    13    14   ar
    32    14    15   ar
    33    15    16    1
    34     5     6   ar
    35     6     1   ar
    36    31    24    1
    37    16     9    1
    38    15    11   ar
    39    23    17   ar
@<TRIPOS>MOLECULE
*****
 35 39 0 0 0
SMALL
GASTEIGER

@<TRIPOS>ATOM
      1 C           7.5496    1.7374   17.4258 C.ar    1  UNL1        0.1060
      2 C           8.3543    0.7587   18.2287 C.ar    1  UNL1        0.0196
      3 C           7.7004   -0.4704   18.7871 C.ar    1  UNL1        0.0160
      4 C           6.2417   -0.7207   18.5425 C.ar    1  UNL1        0.0523
      5 C           5.4370    0.2580   17.7397 C.ar    1  UNL1        0.0682
      6 C           6.0910    1.4871   17.1813 C.ar    1  UNL1        0.0241
      7 C           3.9784    0.0077   17.4952 C.2     1  UNL1        0.2508
      8 O           3.5489   -0.8782   16.3635 O.2     1  UNL1       -0.2698
      9 N           2.9493    0.6431   18.3824 N.am    1  UNL1       -0.2661
     10 C           1.4625    0.4859   18.2612 C.3     1  UNL1        0.1236
     11 C           0.8207    1.2930   19.3506 C.ar    1  UNL1        0.0338
     12 C          -0.4948    1.6947   19.9489 C.ar    1  UNL1        0.0991
     13 N          -0.2177    2.5989   21.1132 N.ar    1  UNL1       -0.2271
     14 N           1.2691    2.7561   21.2345 N.ar    1  UNL1       -0.1680
     15 C           1.9109    1.9490   20.1451 C.ar    1  UNL1        0.0981
     16 C           3.2265    1.5473   19.5467 C.3     1  UNL1        0.1414
     17 C          -1.2468    3.2344   22.0005 C.ar    1  UNL1        0.1042
     18 C          -0.9195    3.5340   23.4333 C.ar    1  UNL1        0.1181
     19 N          -1.9486    4.1695   24.3206 N.ar    1  UNL1       -0.2384
     20 C          -3.3049    4.5053   23.7750 C.ar    1  UNL1        0.1285
     21 C          -3.6321    4.2056   22.3421 C.ar    1  UNL1        0.1607
     22 F          -4.9885    4.5415   21.7965 F       1  UNL1       -0.2025
     23 C          -2.6030    3.5701   21.4548 C.ar    1  UNL1        0.0520
     24 N           5.5878   -1.9497   19.1009 N.pl3   1  UNL1       -0.3070
     25 C           5.1343   -1.9743   20.5305 C.3     1  UNL1        0.0964
     26 C           4.4804   -3.2034   21.0889 C.3     1  UNL1        0.0880
     27 C           4.2800   -4.4079   20.2177 C.3     1  UNL1        0.2672
     28 F           3.8730   -5.7874   19.7916 F       1  UNL1       -0.2042
     29 F           3.6852   -4.9116   21.4993 F       1  UNL1       -0.2042
     30 C           4.7335   -4.3833   18.7881 C.3     1  UNL1        0.0880
     31 C           5.3874   -3.1542   18.2297 C.3     1  UNL1        0.0964
     32 C           8.8573    4.1956   16.3091 C.3     1  UNL1        0.1816
     33 S           8.2035    2.9665   16.8675 S.O2    1  UNL1        0.0105
     34 O           6.8713    3.4536   16.3796 O.2     1  UNL1       -0.1686
     35 O           9.5356    2.4794   17.3553 O.2     1  UNL1       -0.1686
@<TRIPOS>BOND
     1    32    33    1
     2    33    34    2
     3    33    35    2
     4    33     1    1
     5     1     2   ar
     6     2     3   ar
     7     3     4   ar
     8     4    24    1
     9    24    25    1
    10    25    26    1
    11    26    27    1
    12    27    28    1
    13    27    29    1
    14    27    30    1
    15    30    31    1
    16     4     5   ar
    17     5     7    1
    18     7     8    2
    19     7     9   am
    20     9    10    1
    21    10    11    1
    22    11    12   ar
    23    12    13   ar
    24    13    17    1
    25    17    18   ar
    26    18    19   ar
    27    19    20   ar
    28    20    21   ar
    29    21    22    1
    30    21    23   ar
    31    13    14   ar
    32    14    15   ar
    33    15    16    1
    34     5     6   ar
    35     6     1   ar
    36    31    24    1
    37    16     9    1
    38    15    11   ar
    39    23    17   ar
@<TRIPOS>MOLECULE
*****
 35 39 0 0 0
SMALL
GASTEIGER

@<TRIPOS>ATOM
      1 C           0.2040    2.1285   21.4769 C.ar    1  UNL1        0.1060
      2 C          -0.1982    1.1151   20.4468 C.ar    1  UNL1        0.0196
      3 C           0.8122    0.1396   19.9199 C.ar    1  UNL1        0.0160
      4 C           2.2248    0.1777   20.4233 C.ar    1  UNL1        0.0523
      5 C           2.6269    1.1911   21.4534 C.ar    1  UNL1        0.0682
      6 C           1.6165    2.1666   21.9803 C.ar    1  UNL1        0.0241
      7 C           4.0395    1.2291   21.9567 C.2     1  UNL1        0.2508
      8 O           5.0814    2.0071   21.2090 O.2     1  UNL1       -0.2698
      9 N           4.4100    0.4891   23.2077 N.am    1  UNL1       -0.2661
     10 C           5.7743    0.4352   23.8289 C.3     1  UNL1        0.1236
     11 C           5.6888   -0.4142   25.0623 C.ar    1  UNL1        0.0338
     12 C           6.4791   -0.9725   26.2085 C.ar    1  UNL1        0.0991
     13 N           5.5505   -1.7886   27.0579 N.ar    1  UNL1       -0.2271
     14 N           4.1862   -1.7347   26.4368 N.ar    1  UNL1       -0.1680
     15 C           4.2717   -0.8853   25.2033 C.ar    1  UNL1        0.0981
     16 C           3.4814   -0.3270   24.0572 C.3     1  UNL1        0.1414
     17 C           5.9210   -2.5286   28.3089 C.ar    1  UNL1        0.1042
     18 C           5.8502   -1.8372   29.6382 C.ar    1  UNL1        0.1181
     19 N           6.2208   -2.5772   30.8892 N.ar    1  UNL1       -0.2384
     20 C           6.6622   -4.0086   30.8109 C.ar    1  UNL1        0.1285
     21 C           6.7330   -4.7000   29.4817 C.ar    1  UNL1        0.1607
     22 F           7.1745   -6.1315   29.4035 F       1  UNL1       -0.2025
     23 C           6.3624   -3.9600   28.2307 C.ar    1  UNL1        0.0520
     24 N           3.2352   -0.7978   19.8964 N.pl3   1  UNL1       -0.3070
     25 C           4.0277   -0.4661   18.6669 C.3     1  UNL1        0.0964
     26 C           5.0381   -1.4415   18.1400 C.3     1  UNL1        0.0880
     27 C           5.2560   -2.7487   18.8427 C.3     1  UNL1        0.2672
     28 F           5.8167   -4.1042   19.1562 F       1  UNL1       -0.2042
     29 F           6.2433   -2.8877   17.7220 F       1  UNL1       -0.2042
     30 C           4.4634   -3.0804   20.0723 C.3     1  UNL1        0.0880
     31 C           3.4530   -2.1050   20.5991 C.3     1  UNL1        0.0964
     32 C          -1.8168    4.0795   22.5307 C.3     1  UNL1        0.1816
     33 S          -0.8064    3.1040   22.0038 S.O2    1  UNL1        0.0105
     34 O           0.1540    3.5181   23.0791 O.2     1  UNL1       -0.1686
     35 O          -1.7668    2.6900   20.9285 O.2     1  UNL1       -0.1686
@<TRIPOS>BOND
     1    32    33    1
     2    33    34    2
     3    33    35    2
     4    33     1    1
     5     1     2   ar
     6     2     3   ar
     7     3     4   ar
     8     4    24    1
     9    24    25    1
    10    25    26    1
    11    26    27    1
    12    27    28    1
    13    27    29    1
    14    27    30    1
    15    30    31    1
    16     4     5   ar
    17     5     7    1
    18     7     8    2
    19     7     9   am
    20     9    10    1
    21    10    11    1
    22    11    12   ar
    23    12    13   ar
    24    13    17    1
    25    17    18   ar
    26    18    19   ar
    27    19    20   ar
    28    20    21   ar
    29    21    22    1
    30    21    23   ar
    31    13    14   ar
    32    14    15   ar
    33    15    16    1
    34     5     6   ar
    35     6     1   ar
    36    31    24    1
    37    16     9    1
    38    15    11   ar
    39    23    17   ar
@<TRIPOS>MOLECULE
*****
 35 39 0 0 0
SMALL
GASTEIGER

@<TRIPOS>ATOM
      1 C          -6.0217    4.8481   20.9691 C.ar    1  UNL1        0.1060
      2 C          -6.5688    4.4419   22.3054 C.ar    1  UNL1        0.0196
      3 C          -5.6514    4.3205   23.4859 C.ar    1  UNL1        0.0160
      4 C          -4.1869    4.6055   23.3301 C.ar    1  UNL1        0.0523
      5 C          -3.6399    5.0117   21.9938 C.ar    1  UNL1        0.0682
      6 C          -4.5573    5.1330   20.8132 C.ar    1  UNL1        0.0241
      7 C          -2.1754    5.2966   21.8380 C.2     1  UNL1        0.2508
      8 O          -1.6328    6.6496   22.1916 O.2     1  UNL1       -0.2698
      9 N          -1.2536    4.2285   21.3286 N.am    1  UNL1       -0.2661
     10 C           0.2257    4.3658   21.1216 C.3     1  UNL1        0.1236
     11 C           0.7443    3.0577   20.6018 C.ar    1  UNL1        0.0338
     12 C           1.9790    2.3341   20.1527 C.ar    1  UNL1        0.0991
     13 N           1.5833    0.9413   19.7608 N.ar    1  UNL1       -0.2271
     14 N           0.1040    0.8041   19.9678 N.ar    1  UNL1       -0.1680
     15 C          -0.4146    2.1122   20.4876 C.ar    1  UNL1        0.0981
     16 C          -1.6493    2.8358   20.9368 C.3     1  UNL1        0.1414
     17 C           2.5051   -0.1268   19.2514 C.ar    1  UNL1        0.1042
     18 C           3.1612    0.0253   17.9111 C.ar    1  UNL1        0.1181
     19 N           4.0830   -1.0427   17.4017 N.ar    1  UNL1       -0.2384
     20 C           4.3487   -2.2629   18.2327 C.ar    1  UNL1        0.1285
     21 C           3.6927   -2.4151   19.5730 C.ar    1  UNL1        0.1607
     22 F           3.9585   -3.6354   20.4039 F       1  UNL1       -0.2025
     23 C           2.7709   -1.3470   20.0824 C.ar    1  UNL1        0.0520
     24 N          -3.2695    4.4842   24.5106 N.pl3   1  UNL1       -0.3070
     25 C          -2.5080    3.2126   24.7412 C.3     1  UNL1        0.0964
     26 C          -1.5907    3.0912   25.9217 C.3     1  UNL1        0.0880
     27 C          -1.4347    4.2415   26.8717 C.3     1  UNL1        0.2672
     28 F          -0.9567    5.0474   28.0431 F       1  UNL1       -0.2042
     29 F          -0.5072    3.2497   27.5091 F       1  UNL1       -0.2042
     30 C          -2.1962    5.5131   26.6412 C.3     1  UNL1        0.0880
     31 C          -3.1136    5.6344   25.4606 C.3     1  UNL1        0.0964
     32 C          -7.8565    5.0907   18.6080 C.3     1  UNL1        0.1816
     33 S          -6.9391    4.9694   19.7885 S.O2    1  UNL1        0.0105
     34 O          -6.0174    4.1023   18.9832 O.2     1  UNL1       -0.1686
     35 O          -7.8608    5.8365   20.5939 O.2     1  UNL1       -0.1686
@<TRIPOS>BOND
     1    32    33    1
     2    33    34    2
     3    33    35    2
     4    33     1    1
     5     1     2   ar
     6     2     3   ar
     7     3     4   ar
     8     4    24    1
     9    24    25    1
    10    25    26    1
    11    26    27    1
    12    27    28    1
    13    27    29    1
    14    27    30    1
    15    30    31    1
    16     4     5   ar
    17     5     7    1
    18     7     8    2
    19     7     9   am
    20     9    10    1
    21    10    11    1
    22    11    12   ar
    23    12    13   ar
    24    13    17    1
    25    17    18   ar
    26    18    19   ar
    27    19    20   ar
    28    20    21   ar
    29    21    22    1
    30    21    23   ar
    31    13    14   ar
    32    14    15   ar
    33    15    16    1
    34     5     6   ar
    35     6     1   ar
    36    31    24    1
    37    16     9    1
    38    15    11   ar
    39    23    17   ar
@<TRIPOS>MOLECULE
*****
 35 39 0 0 0
SMALL
GASTEIGER

@<TRIPOS>ATOM
      1 C           3.4633   -1.4186   20.2456 C.ar    1  UNL1        0.1060
      2 C           1.9851   -1.2892   20.0267 C.ar    1  UNL1        0.0196
      3 C           1.1877   -0.3181   20.8460 C.ar    1  UNL1        0.0160
      4 C           1.8687    0.5235   21.8842 C.ar    1  UNL1        0.0523
      5 C           3.3470    0.3941   22.1032 C.ar    1  UNL1        0.0682
      6 C           4.1443   -0.5770   21.2838 C.ar    1  UNL1        0.0241
      7 C           4.0279    1.2358   23.1414 C.2     1  UNL1        0.2508
      8 O           4.5895    2.5762   22.7700 O.2     1  UNL1       -0.2698
      9 N           4.1473    0.7370   24.5510 N.am    1  UNL1       -0.2661
     10 C           4.7978    1.4630   25.6911 C.3     1  UNL1        0.1236
     11 C           4.6896    0.5993   26.9127 C.ar    1  UNL1        0.0338
     12 C           5.0247    0.5142   28.3723 C.ar    1  UNL1        0.0991
     13 N           4.5145   -0.7982   28.8893 N.ar    1  UNL1       -0.2271
     14 N           3.8640   -1.5242   27.7492 N.ar    1  UNL1       -0.1680
     15 C           3.9722   -0.6605   26.5275 C.ar    1  UNL1        0.0981
     16 C           3.6371   -0.5754   25.0680 C.3     1  UNL1        0.1414
     17 C           4.6339   -1.2970   30.2989 C.ar    1  UNL1        0.1042
     18 C           3.6041   -0.9134   31.3199 C.ar    1  UNL1        0.1181
     19 N           3.7234   -1.4122   32.7295 N.ar    1  UNL1       -0.2384
     20 C           4.8726   -2.2945   33.1181 C.ar    1  UNL1        0.1285
     21 C           5.9024   -2.6780   32.0970 C.ar    1  UNL1        0.1607
     22 F           7.0515   -3.5604   32.4858 F       1  UNL1       -0.2025
     23 C           5.7830   -2.1793   30.6875 C.ar    1  UNL1        0.0520
     24 N           1.0714    1.4946   22.7035 N.pl3   1  UNL1       -0.3070
     25 C           0.5675    1.0958   24.0589 C.3     1  UNL1        0.0964
     26 C          -0.2298    2.0669   24.8782 C.3     1  UNL1        0.0880
     27 C          -0.5234    3.4367   24.3421 C.3     1  UNL1        0.2672
     28 F          -1.0561    4.8370   24.2678 F       1  UNL1       -0.2042
     29 F          -1.2122    3.5242   25.6718 F       1  UNL1       -0.2042
     30 C          -0.0195    3.8355   22.9868 C.3     1  UNL1        0.0880
     31 C           0.7778    2.8644   22.1674 C.3     1  UNL1        0.0964
     32 C           5.0581   -3.3607   18.6070 C.3     1  UNL1        0.1816
     33 S           4.2607   -2.3897   19.4263 S.O2    1  UNL1        0.0105
     34 O           4.4567   -1.3399   18.3729 O.2     1  UNL1       -0.1686
     35 O           4.0646   -3.4394   20.4797 O.2     1  UNL1       -0.1686
@<TRIPOS>BOND
     1    32    33    1
     2    33    34    2
     3    33    35    2
     4    33     1    1
     5     1     2   ar
     6     2     3   ar
     7     3     4   ar
     8     4    24    1
     9    24    25    1
    10    25    26    1
    11    26    27    1
    12    27    28    1
    13    27    29    1
    14    27    30    1
    15    30    31    1
    16     4     5   ar
    17     5     7    1
    18     7     8    2
    19     7     9   am
    20     9    10    1
    21    10    11    1
    22    11    12   ar
    23    12    13   ar
    24    13    17    1
    25    17    18   ar
    26    18    19   ar
    27    19    20   ar
    28    20    21   ar
    29    21    22    1
    30    21    23   ar
    31    13    14   ar
    32    14    15   ar
    33    15    16    1
    34     5     6   ar
    35     6     1   ar
    36    31    24    1
    37    16     9    1
    38    15    11   ar
    39    23    17   ar
@<TRIPOS>MOLECULE
*****
 35 39 0 0 0
SMALL
GASTEIGER

@<TRIPOS>ATOM
      1 C           7.9725   -4.0428   31.4265 C.ar    1  UNL1        0.1060
      2 C           9.0291   -3.1964   32.0724 C.ar    1  UNL1        0.0196
      3 C           8.6470   -1.9304   32.7803 C.ar    1  UNL1        0.0160
      4 C           7.2081   -1.5109   32.8424 C.ar    1  UNL1        0.0523
      5 C           6.1515   -2.3573   32.1965 C.ar    1  UNL1        0.0682
      6 C           6.5338   -3.6233   31.4886 C.ar    1  UNL1        0.0241
      7 C           4.7127   -1.9377   32.2586 C.2     1  UNL1        0.2508
      8 O           3.9223   -2.1529   33.5151 O.2     1  UNL1       -0.2698
      9 N           4.0644   -1.3029   31.0642 N.am    1  UNL1       -0.2661
     10 C           2.6421   -0.8343   30.9780 C.3     1  UNL1        0.1236
     11 C           2.4233   -0.2670   29.6066 C.ar    1  UNL1        0.0338
     12 C           1.4090    0.3732   28.7059 C.ar    1  UNL1        0.0991
     13 N           2.0693    0.6508   27.3880 N.ar    1  UNL1       -0.2271
     14 N           3.4916    0.1822   27.4742 N.ar    1  UNL1       -0.1680
     15 C           3.7104   -0.3851   28.8455 C.ar    1  UNL1        0.0981
     16 C           4.7247   -1.0253   29.7462 C.3     1  UNL1        0.1414
     17 C           1.4210    1.2856   26.1935 C.ar    1  UNL1        0.1042
     18 C           2.2065    1.4850   24.9313 C.ar    1  UNL1        0.1181
     19 N           1.5582    2.1199   23.7368 N.ar    1  UNL1       -0.2384
     20 C           0.1244    2.5553   23.8046 C.ar    1  UNL1        0.1285
     21 C          -0.6611    2.3559   25.0669 C.ar    1  UNL1        0.1607
     22 F          -2.0950    2.7913   25.1346 F       1  UNL1       -0.2025
     23 C          -0.0128    1.7210   26.2613 C.ar    1  UNL1        0.0520
     24 N           6.8260   -0.2449   33.5503 N.pl3   1  UNL1       -0.3070
     25 C           6.6011   -0.2535   35.0334 C.3     1  UNL1        0.0964
     26 C           6.2190    1.0125   35.7413 C.3     1  UNL1        0.0880
     27 C           6.0616    2.2871   34.9663 C.3     1  UNL1        0.2672
     28 F           5.7939    3.7331   34.6706 F       1  UNL1       -0.2042
     29 F           5.7438    2.7807   36.3467 F       1  UNL1       -0.2042
     30 C           6.2865    2.2957   33.4833 C.3     1  UNL1        0.0880
     31 C           6.6686    1.0297   32.7753 C.3     1  UNL1        0.0964
     32 C           8.7369   -6.5748   30.0106 C.3     1  UNL1        0.1816
     33 S           8.3547   -5.3088   30.7185 S.O2    1  UNL1        0.0105
     34 O           9.5215   -4.6056   30.0909 O.2     1  UNL1       -0.1686
     35 O           7.1879   -6.0121   31.3462 O.2     1  UNL1       -0.1686
@<TRIPOS>BOND
     1    32    33    1
     2    33    34    2
     3    33    35    2
     4    33     1    1
     5     1     2   ar
     6     2     3   ar
     7     3     4   ar
     8     4    24    1
     9    24    25    1
    10    25    26    1
    11    26    27    1
    12    27    28    1
    13    27    29    1
    14    27    30    1
    15    30    31    1
    16     4     5   ar
    17     5     7    1
    18     7     8    2
    19     7     9   am
    20     9    10    1
    21    10    11    1
    22    11    12   ar
    23    12    13   ar
    24    13    17    1
    25    17    18   ar
    26    18    19   ar
    27    19    20   ar
    28    20    21   ar
    29    21    22    1
    30    21    23   ar
    31    13    14   ar
    32    14    15   ar
    33    15    16    1
    34     5     6   ar
    35     6     1   ar
    36    31    24    1
    37    16     9    1
    38    15    11   ar
    39    23    17   ar
