@<TRIPOS>MOLECULE
*****
 19 21 0 0 0
SMALL
GASTEIGER

@<TRIPOS>ATOM
      1 C         -10.8553  -16.8139   22.8261 C.3     1  UNL1        0.0446
      2 C          -9.5879  -16.4413   23.5366 C.ar    1  UNL1        0.0080
      3 C          -9.4144  -16.3128   25.0210 C.ar    1  UNL1        0.0027
      4 C          -7.9908  -15.9238   25.2893 C.ar    1  UNL1        0.0062
      5 C          -7.2464  -15.6570   26.5640 C.ar    1  UNL1        0.0005
      6 C          -5.7957  -15.2784   26.5200 C.ar    1  UNL1        0.0000
      7 C          -5.0893  -15.1665   25.2015 C.ar    1  UNL1        0.0005
      8 C          -5.8337  -15.4333   23.9269 C.ar    1  UNL1        0.0065
      9 C          -7.2844  -15.8119   23.9708 C.ar    1  UNL1        0.0291
     10 S          -8.2715  -16.1317   22.8876 S.2     1  UNL1       -0.0913
     11 C         -10.1506  -19.9974   22.9594 C.3     1  UNL1        0.0496
     12 C         -10.4882  -19.2203   21.7217 C.2     1  UNL1        0.0643
     13 N         -10.5613  -19.7700   20.3279 N.2     1  UNL1       -0.1566
     14 N         -10.9303  -18.6464   19.4052 N.2     1  UNL1       -0.1515
     15 C         -11.0854  -17.4022   20.2288 C.2     1  UNL1        0.0996
     16 C         -10.8122  -17.7569   21.6604 C.3     1  UNL1        0.0858
     17 C         -11.4497  -16.0422   19.7114 C.2     1  UNL1        0.0885
     18 O         -12.8870  -15.6970   19.4566 O.co2   1  UNL1       -0.5433
     19 O         -10.3767  -15.0275   19.4490 O.co2   1  UNL1       -0.5433
@<TRIPOS>UNITY_ATOM_ATTR
18 1
charge -1
@<TRIPOS>BOND
     1    11    12    1
     2    12    13    2
     3    13    14    1
     4    14    15    2
     5    15    17    1
     6    17    18   ar
     7    17    19   ar
     8    15    16    1
     9    16     1    1
    10     1     2    1
    11     2     3   ar
    12     3     4   ar
    13     4     5   ar
    14     5     6   ar
    15     6     7   ar
    16     7     8   ar
    17     8     9   ar
    18     9    10   ar
    19    16    12    1
    20    10     2   ar
    21     9     4   ar
@<TRIPOS>MOLECULE
*****
 19 21 0 0 0
SMALL
GASTEIGER

@<TRIPOS>ATOM
      1 C          -9.7357  -18.9872   20.5993 C.3     1  UNL1        0.0446
      2 C          -8.2574  -19.1065   20.8236 C.ar    1  UNL1        0.0080
      3 C          -7.2901  -19.8486   19.9498 C.ar    1  UNL1        0.0027
      4 C          -5.9216  -19.7053   20.5471 C.ar    1  UNL1        0.0062
      5 C          -4.5806  -20.2239   20.1198 C.ar    1  UNL1        0.0005
      6 C          -3.3611  -19.9118   20.9355 C.ar    1  UNL1        0.0000
      7 C          -3.4827  -19.0811   22.1786 C.ar    1  UNL1        0.0005
      8 C          -4.8237  -18.5625   22.6059 C.ar    1  UNL1        0.0065
      9 C          -6.0432  -18.8746   21.7902 C.ar    1  UNL1        0.0291
     10 S          -7.4867  -18.5045   21.9610 S.2     1  UNL1       -0.0913
     11 C         -10.5229  -20.2898   23.4860 C.3     1  UNL1        0.0496
     12 C         -10.9661  -18.9521   22.9721 C.2     1  UNL1        0.0643
     13 N         -11.8489  -17.9782   23.6948 N.2     1  UNL1       -0.1566
     14 N         -12.0327  -16.7776   22.8146 N.2     1  UNL1       -0.1515
     15 C         -11.2634  -17.0095   21.5478 C.2     1  UNL1        0.0996
     16 C         -10.6042  -18.3534   21.6452 C.3     1  UNL1        0.0858
     17 C         -11.1698  -16.0635   20.3875 C.2     1  UNL1        0.0885
     18 O         -12.2506  -16.0429   19.3475 O.co2   1  UNL1       -0.5433
     19 O          -9.9954  -15.1382   20.2671 O.co2   1  UNL1       -0.5433
@<TRIPOS>UNITY_ATOM_ATTR
18 1
charge -1
@<TRIPOS>BOND
     1    11    12    1
     2    12    13    2
     3    13    14    1
     4    14    15    2
     5    15    17    1
     6    17    18   ar
     7    17    19   ar
     8    15    16    1
     9    16     1    1
    10     1     2    1
    11     2     3   ar
    12     3     4   ar
    13     4     5   ar
    14     5     6   ar
    15     6     7   ar
    16     7     8   ar
    17     8     9   ar
    18     9    10   ar
    19    16    12    1
    20    10     2   ar
    21     9     4   ar
@<TRIPOS>MOLECULE
*****
 19 21 0 0 0
SMALL
GASTEIGER

@<TRIPOS>ATOM
      1 C         -10.2800  -18.8182   22.9695 C.3     1  UNL1        0.0446
      2 C          -9.4353  -17.9591   23.8631 C.ar    1  UNL1        0.0080
      3 C          -9.5913  -17.8103   25.3475 C.ar    1  UNL1        0.0027
      4 C          -8.5388  -16.8572   25.8310 C.ar    1  UNL1        0.0062
      5 C          -8.2106  -16.3333   27.1977 C.ar    1  UNL1        0.0005
      6 C          -7.0759  -15.3692   27.3788 C.ar    1  UNL1        0.0000
      7 C          -6.2694  -14.9288   26.1931 C.ar    1  UNL1        0.0005
      8 C          -6.5976  -15.4527   24.8265 C.ar    1  UNL1        0.0065
      9 C          -7.7323  -16.4169   24.6454 C.ar    1  UNL1        0.0291
     10 S          -8.2864  -17.0979   23.4292 S.2     1  UNL1       -0.0913
     11 C         -13.0039  -17.0294   23.1423 C.3     1  UNL1        0.0496
     12 C         -12.2598  -17.3836   21.8890 C.2     1  UNL1        0.0643
     13 N         -12.6370  -16.9777   20.4951 N.2     1  UNL1       -0.1566
     14 N         -11.6181  -17.5491   19.5541 N.2     1  UNL1       -0.1515
     15 C         -10.6111  -18.3082   20.3666 C.2     1  UNL1        0.0996
     16 C         -11.0076  -18.2058   21.8096 C.3     1  UNL1        0.0858
     17 C          -9.4171  -19.0408   19.8301 C.2     1  UNL1        0.0885
     18 O          -8.0351  -18.6186   20.2322 O.co2   1  UNL1       -0.5433
     19 O          -9.6053  -20.1957   18.8916 O.co2   1  UNL1       -0.5433
@<TRIPOS>UNITY_ATOM_ATTR
18 1
charge -1
@<TRIPOS>BOND
     1    11    12    1
     2    12    13    2
     3    13    14    1
     4    14    15    2
     5    15    17    1
     6    17    18   ar
     7    17    19   ar
     8    15    16    1
     9    16     1    1
    10     1     2    1
    11     2     3   ar
    12     3     4   ar
    13     4     5   ar
    14     5     6   ar
    15     6     7   ar
    16     7     8   ar
    17     8     9   ar
    18     9    10   ar
    19    16    12    1
    20    10     2   ar
    21     9     4   ar
@<TRIPOS>MOLECULE
*****
 19 21 0 0 0
SMALL
GASTEIGER

@<TRIPOS>ATOM
      1 C          -7.3406  -19.6024   21.7008 C.3     1  UNL1        0.0446
      2 C          -5.9210  -19.2805   21.3386 C.ar    1  UNL1        0.0080
      3 C          -5.3676  -19.1766   19.9484 C.ar    1  UNL1        0.0027
      4 C          -3.9101  -18.8379   20.0537 C.ar    1  UNL1        0.0062
      5 C          -2.8544  -18.6118   19.0124 C.ar    1  UNL1        0.0005
      6 C          -1.4514  -18.2804   19.4265 C.ar    1  UNL1        0.0000
      7 C          -1.1040  -18.1750   20.8819 C.ar    1  UNL1        0.0005
      8 C          -2.1597  -18.4011   21.9232 C.ar    1  UNL1        0.0065
      9 C          -3.5627  -18.7325   21.5091 C.ar    1  UNL1        0.0291
     10 S          -4.8055  -19.0061   22.3032 S.2     1  UNL1       -0.0913
     11 C          -9.2756  -20.0745   19.1158 C.3     1  UNL1        0.0496
     12 C          -9.3412  -18.9160   20.0663 C.2     1  UNL1        0.0643
     13 N         -10.3078  -17.7711   19.9956 N.2     1  UNL1       -0.1566
     14 N         -10.0157  -16.8465   21.1401 N.2     1  UNL1       -0.1515
     15 C          -8.8685  -17.4200   21.9182 C.2     1  UNL1        0.0996
     16 C          -8.4517  -18.6990   21.2546 C.3     1  UNL1        0.0858
     17 C          -8.2474  -16.8198   23.1445 C.2     1  UNL1        0.0885
     18 O          -8.9419  -16.9332   24.4692 O.co2   1  UNL1       -0.5433
     19 O          -6.9317  -16.1062   23.0461 O.co2   1  UNL1       -0.5433
@<TRIPOS>UNITY_ATOM_ATTR
18 1
charge -1
@<TRIPOS>BOND
     1    11    12    1
     2    12    13    2
     3    13    14    1
     4    14    15    2
     5    15    17    1
     6    17    18   ar
     7    17    19   ar
     8    15    16    1
     9    16     1    1
    10     1     2    1
    11     2     3   ar
    12     3     4   ar
    13     4     5   ar
    14     5     6   ar
    15     6     7   ar
    16     7     8   ar
    17     8     9   ar
    18     9    10   ar
    19    16    12    1
    20    10     2   ar
    21     9     4   ar
@<TRIPOS>MOLECULE
*****
 19 21 0 0 0
SMALL
GASTEIGER

@<TRIPOS>ATOM
      1 C          -9.1005  -17.5991   21.6897 C.3     1  UNL1        0.0446
      2 C          -8.4578  -17.0096   22.9101 C.ar    1  UNL1        0.0080
      3 C          -7.0114  -16.6386   23.0529 C.ar    1  UNL1        0.0027
      4 C          -6.8083  -16.0872   24.4330 C.ar    1  UNL1        0.0062
      5 C          -5.5913  -15.5616   25.1348 C.ar    1  UNL1        0.0005
      6 C          -5.6952  -15.0661   26.5468 C.ar    1  UNL1        0.0000
      7 C          -7.0160  -15.0964   27.2570 C.ar    1  UNL1        0.0005
      8 C          -8.2330  -15.6221   26.5552 C.ar    1  UNL1        0.0065
      9 C          -8.1292  -16.1175   25.1433 C.ar    1  UNL1        0.0291
     10 S          -9.1486  -16.6875   24.2021 S.2     1  UNL1       -0.0913
     11 C         -11.1101  -19.7515   23.0962 C.3     1  UNL1        0.0496
     12 C         -11.5189  -18.6107   22.2123 C.2     1  UNL1        0.0643
     13 N         -12.9233  -18.2590   21.8197 N.2     1  UNL1       -0.1566
     14 N         -12.8675  -17.0522   20.9305 N.2     1  UNL1       -0.1515
     15 C         -11.4286  -16.6581   20.7736 C.2     1  UNL1        0.0996
     16 C         -10.5952  -17.6213   21.5658 C.3     1  UNL1        0.0858
     17 C         -10.9137  -15.5036   19.9662 C.2     1  UNL1        0.0885
     18 O          -9.6557  -14.7999   20.3813 O.co2   1  UNL1       -0.5433
     19 O         -11.6568  -15.0526   18.7437 O.co2   1  UNL1       -0.5433
@<TRIPOS>UNITY_ATOM_ATTR
18 1
charge -1
@<TRIPOS>BOND
     1    11    12    1
     2    12    13    2
     3    13    14    1
     4    14    15    2
     5    15    17    1
     6    17    18   ar
     7    17    19   ar
     8    15    16    1
     9    16     1    1
    10     1     2    1
    11     2     3   ar
    12     3     4   ar
    13     4     5   ar
    14     5     6   ar
    15     6     7   ar
    16     7     8   ar
    17     8     9   ar
    18     9    10   ar
    19    16    12    1
    20    10     2   ar
    21     9     4   ar
@<TRIPOS>MOLECULE
*****
 19 21 0 0 0
SMALL
GASTEIGER

@<TRIPOS>ATOM
      1 C          -9.4721  -16.3971   21.6279 C.3     1  UNL1        0.0446
      2 C          -8.7784  -16.1888   22.9414 C.ar    1  UNL1        0.0080
      3 C          -7.3889  -15.6563   23.1300 C.ar    1  UNL1        0.0027
      4 C          -7.1041  -15.6147   24.6022 C.ar    1  UNL1        0.0062
      5 C          -5.8966  -15.1809   25.3790 C.ar    1  UNL1        0.0005
      6 C          -5.9027  -15.2538   26.8772 C.ar    1  UNL1        0.0000
      7 C          -7.1164  -15.7605   27.5985 C.ar    1  UNL1        0.0005
      8 C          -8.3239  -16.1944   26.8216 C.ar    1  UNL1        0.0065
      9 C          -8.3178  -16.1214   25.3235 C.ar    1  UNL1        0.0291
     10 S          -9.3525  -16.4762   24.2971 S.2     1  UNL1       -0.0913
     11 C          -7.4689  -18.8274   20.7732 C.3     1  UNL1        0.0496
     12 C          -8.9668  -18.8935   20.8167 C.2     1  UNL1        0.0643
     13 N          -9.8069  -20.0883   20.4751 N.2     1  UNL1       -0.1566
     14 N         -11.2469  -19.7097   20.6569 N.2     1  UNL1       -0.1515
     15 C         -11.2968  -18.2808   21.1108 C.2     1  UNL1        0.0996
     16 C          -9.8876  -17.7764   21.2096 C.3     1  UNL1        0.0858
     17 C         -12.5379  -17.4945   21.4129 C.2     1  UNL1        0.0885
     18 O         -12.9854  -16.4107   20.4774 O.co2   1  UNL1       -0.5433
     19 O         -13.3315  -17.7920   22.6505 O.co2   1  UNL1       -0.5433
@<TRIPOS>UNITY_ATOM_ATTR
18 1
charge -1
@<TRIPOS>BOND
     1    11    12    1
     2    12    13    2
     3    13    14    1
     4    14    15    2
     5    15    17    1
     6    17    18   ar
     7    17    19   ar
     8    15    16    1
     9    16     1    1
    10     1     2    1
    11     2     3   ar
    12     3     4   ar
    13     4     5   ar
    14     5     6   ar
    15     6     7   ar
    16     7     8   ar
    17     8     9   ar
    18     9    10   ar
    19    16    12    1
    20    10     2   ar
    21     9     4   ar
@<TRIPOS>MOLECULE
*****
 19 21 0 0 0
SMALL
GASTEIGER

@<TRIPOS>ATOM
      1 C          -9.4027  -16.2708   21.5833 C.3     1  UNL1        0.0446
      2 C          -8.7380  -16.1025   22.9174 C.ar    1  UNL1        0.0080
      3 C          -7.3484  -15.5884   23.1516 C.ar    1  UNL1        0.0027
      4 C          -7.0978  -15.5870   24.6305 C.ar    1  UNL1        0.0062
      5 C          -5.9048  -15.1846   25.4459 C.ar    1  UNL1        0.0005
      6 C          -5.9465  -15.2955   26.9412 C.ar    1  UNL1        0.0000
      7 C          -7.1812  -15.8087   27.6211 C.ar    1  UNL1        0.0005
      8 C          -8.3741  -16.2111   26.8057 C.ar    1  UNL1        0.0065
      9 C          -8.3324  -16.1002   25.3104 C.ar    1  UNL1        0.0291
     10 S          -9.3461  -16.4188   24.2517 S.2     1  UNL1       -0.0913
     11 C         -12.6039  -16.7872   21.2162 C.3     1  UNL1        0.0496
     12 C         -11.5215  -17.8136   21.0585 C.2     1  UNL1        0.0643
     13 N         -11.7205  -19.2576   20.7044 N.2     1  UNL1       -0.1566
     14 N         -10.3720  -19.9127   20.6542 N.2     1  UNL1       -0.1515
     15 C          -9.3396  -18.8735   20.9774 C.2     1  UNL1        0.0996
     16 C         -10.0500  -17.5762   21.2273 C.3     1  UNL1        0.0858
     17 C          -7.8571  -19.0931   21.0398 C.2     1  UNL1        0.0885
     18 O          -7.0111  -18.8502   19.8252 O.co2   1  UNL1       -0.5433
     19 O          -7.2205  -19.5557   22.3168 O.co2   1  UNL1       -0.5433
@<TRIPOS>UNITY_ATOM_ATTR
18 1
charge -1
@<TRIPOS>BOND
     1    11    12    1
     2    12    13    2
     3    13    14    1
     4    14    15    2
     5    15    17    1
     6    17    18   ar
     7    17    19   ar
     8    15    16    1
     9    16     1    1
    10     1     2    1
    11     2     3   ar
    12     3     4   ar
    13     4     5   ar
    14     5     6   ar
    15     6     7   ar
    16     7     8   ar
    17     8     9   ar
    18     9    10   ar
    19    16    12    1
    20    10     2   ar
    21     9     4   ar
@<TRIPOS>MOLECULE
*****
 19 21 0 0 0
SMALL
GASTEIGER

@<TRIPOS>ATOM
      1 C         -10.1198  -18.8661   23.0636 C.3     1  UNL1        0.0446
      2 C          -9.2898  -17.9766   23.9410 C.ar    1  UNL1        0.0080
      3 C          -9.4756  -17.7705   25.4152 C.ar    1  UNL1        0.0027
      4 C          -8.4290  -16.8035   25.8836 C.ar    1  UNL1        0.0062
      5 C          -8.1266  -16.2290   27.2358 C.ar    1  UNL1        0.0005
      6 C          -6.9916  -15.2628   27.4034 C.ar    1  UNL1        0.0000
      7 C          -6.1589  -14.8711   26.2187 C.ar    1  UNL1        0.0005
      8 C          -6.4613  -15.4457   24.8666 C.ar    1  UNL1        0.0065
      9 C          -7.5964  -16.4118   24.6990 C.ar    1  UNL1        0.0291
     10 S          -8.1284  -17.1368   23.4985 S.2     1  UNL1       -0.0913
     11 C          -8.7378  -19.5225   20.1811 C.3     1  UNL1        0.0496
     12 C          -9.9555  -18.6751   20.4024 C.2     1  UNL1        0.0643
     13 N         -10.7518  -17.9807   19.3377 N.2     1  UNL1       -0.1566
     14 N         -11.8793  -17.2497   20.0046 N.2     1  UNL1       -0.1515
     15 C         -11.7797  -17.4925   21.4816 C.2     1  UNL1        0.0996
     16 C         -10.5908  -18.3734   21.7274 C.3     1  UNL1        0.0858
     17 C         -12.7064  -16.9496   22.5287 C.2     1  UNL1        0.0885
     18 O         -12.7564  -15.4740   22.7938 O.co2   1  UNL1       -0.5433
     19 O         -13.5830  -17.8822   23.3108 O.co2   1  UNL1       -0.5433
@<TRIPOS>UNITY_ATOM_ATTR
18 1
charge -1
@<TRIPOS>BOND
     1    11    12    1
     2    12    13    2
     3    13    14    1
     4    14    15    2
     5    15    17    1
     6    17    18   ar
     7    17    19   ar
     8    15    16    1
     9    16     1    1
    10     1     2    1
    11     2     3   ar
    12     3     4   ar
    13     4     5   ar
    14     5     6   ar
    15     6     7   ar
    16     7     8   ar
    17     8     9   ar
    18     9    10   ar
    19    16    12    1
    20    10     2   ar
    21     9     4   ar
@<TRIPOS>MOLECULE
*****
 19 21 0 0 0
SMALL
GASTEIGER

@<TRIPOS>ATOM
      1 C          -5.4440  -15.2159   24.2493 C.3     1  UNL1        0.0446
      2 C          -4.5677  -16.1300   23.4451 C.ar    1  UNL1        0.0080
      3 C          -3.4393  -15.7087   22.5512 C.ar    1  UNL1        0.0027
      4 C          -2.8402  -16.9442   21.9473 C.ar    1  UNL1        0.0062
      5 C          -1.7023  -17.1434   20.9905 C.ar    1  UNL1        0.0005
      6 C          -1.3226  -18.5274   20.5545 C.ar    1  UNL1        0.0000
      7 C          -2.0808  -19.7123   21.0753 C.ar    1  UNL1        0.0005
      8 C          -3.2187  -19.5132   22.0320 C.ar    1  UNL1        0.0065
      9 C          -3.5984  -18.1291   22.4680 C.ar    1  UNL1        0.0291
     10 S          -4.6661  -17.6259   23.3937 S.2     1  UNL1       -0.0913
     11 C          -6.5743  -15.4885   27.2984 C.3     1  UNL1        0.0496
     12 C          -7.3434  -15.7788   26.0438 C.2     1  UNL1        0.0643
     13 N          -8.7671  -16.2454   25.9704 N.2     1  UNL1       -0.1566
     14 N          -9.1275  -16.4085   24.5235 N.2     1  UNL1       -0.1515
     15 C          -7.9264  -16.0427   23.7026 C.2     1  UNL1        0.0996
     16 C          -6.8238  -15.6535   24.6422 C.3     1  UNL1        0.0858
     17 C          -7.8427  -16.0625   22.2051 C.2     1  UNL1        0.0885
     18 O          -7.7061  -17.3678   21.4788 O.co2   1  UNL1       -0.5433
     19 O          -7.8957  -14.7770   21.4339 O.co2   1  UNL1       -0.5433
@<TRIPOS>UNITY_ATOM_ATTR
18 1
charge -1
@<TRIPOS>BOND
     1    11    12    1
     2    12    13    2
     3    13    14    1
     4    14    15    2
     5    15    17    1
     6    17    18   ar
     7    17    19   ar
     8    15    16    1
     9    16     1    1
    10     1     2    1
    11     2     3   ar
    12     3     4   ar
    13     4     5   ar
    14     5     6   ar
    15     6     7   ar
    16     7     8   ar
    17     8     9   ar
    18     9    10   ar
    19    16    12    1
    20    10     2   ar
    21     9     4   ar
