@<TRIPOS>MOLECULE
*****
 34 37 0 0 0
SMALL
GASTEIGER

@<TRIPOS>ATOM
      1 C           1.2015    1.3620   19.2093 C.ar    1  UNL1        0.2601
      2 N           0.4321    1.5593   20.4817 N.ar    1  UNL1       -0.1870
      3 C          -0.6362    2.5802   20.2239 C.ar    1  UNL1        0.2036
      4 N          -0.5269    3.0140   18.7922 N.ar    1  UNL1       -0.0556
      5 O           0.6088    2.2611   18.1650 O.2     1  UNL1       -0.3324
      6 C          -1.6378    3.0798   21.2226 C.ar    1  UNL1        0.0389
      7 C          -1.1983    3.4359   22.6118 C.ar    1  UNL1        0.0044
      8 C          -2.1999    3.9354   23.6104 C.ar    1  UNL1        0.0147
      9 C          -3.6410    4.0788   23.2197 C.ar    1  UNL1        0.0499
     10 C          -4.0805    3.7227   21.8305 C.ar    1  UNL1       -0.0067
     11 C          -3.0789    3.2232   20.8319 C.ar    1  UNL1        0.0002
     12 C          -5.5576    3.9658   21.7351 C.3     1  UNL1        0.0495
     13 C          -6.0310    4.4720   23.0653 C.3     1  UNL1        0.1029
     14 N          -4.8465    4.5419   23.9829 N.am    1  UNL1       -0.2586
     15 C          -4.8643    4.9953   25.4127 C.2     1  UNL1        0.2297
     16 O          -3.5940    5.0115   26.2102 O.2     1  UNL1       -0.2745
     17 C          -6.1524    5.4325   26.0448 C.3     1  UNL1        0.0915
     18 C          -6.1565    5.9678   27.4460 C.3     1  UNL1        0.0513
     19 C          -7.4420    6.4216   28.0718 C.2     1  UNL1        0.0508
     20 O          -8.4562    7.1609   27.2503 O.co2   1  UNL1       -0.5492
     21 O          -7.7132    6.1361   29.5192 O.co2   1  UNL1       -0.5492
     22 C           4.6815   -0.0876   17.9691 C.ar    1  UNL1        0.0716
     23 C           4.6775   -1.4357   18.6268 C.ar    1  UNL1        0.0475
     24 C           3.5150   -1.8513   19.4786 C.ar    1  UNL1        0.1476
     25 C           2.3563   -0.9187   19.6728 C.ar    1  UNL1        0.0420
     26 C           2.3602    0.4294   19.0151 C.ar    1  UNL1        0.0598
     27 C           3.5228    0.8449   18.1633 C.ar    1  UNL1        0.0152
     28 N           7.0067    0.7434   16.2654 N.1     1  UNL1       -0.1908
     29 C           5.8441    0.3279   17.1172 C.1     1  UNL1        0.1005
     30 O           3.5110   -3.1994   20.1363 O.3     1  UNL1       -0.4044
     31 C           4.0794   -4.3865   19.4168 C.3     1  UNL1        0.5753
     32 F           4.6477   -5.5737   18.6972 F       1  UNL1       -0.1328
     33 F           2.7783   -4.5710   18.6934 F       1  UNL1       -0.1328
     34 F           5.3804   -4.2022   20.1401 F       1  UNL1       -0.1328
@<TRIPOS>UNITY_ATOM_ATTR
20 1
charge -1
@<TRIPOS>BOND
     1    28    29    3
     2    29    22    1
     3    22    23   ar
     4    23    24   ar
     5    24    30    1
     6    30    31    1
     7    31    32    1
     8    31    33    1
     9    31    34    1
    10    24    25   ar
    11    25    26   ar
    12    26     1    1
    13     1     2   ar
    14     2     3   ar
    15     3     6    1
    16     6     7   ar
    17     7     8   ar
    18     8     9   ar
    19     9    10   ar
    20    10    11   ar
    21    10    12    1
    22    12    13    1
    23    13    14    1
    24    14    15   am
    25    15    16    2
    26    15    17    1
    27    17    18    1
    28    18    19    1
    29    19    20   ar
    30    19    21   ar
    31     3     4   ar
    32     4     5   ar
    33    26    27   ar
    34    27    22   ar
    35     5     1   ar
    36    11     6   ar
    37    14     9    1
@<TRIPOS>MOLECULE
*****
 34 37 0 0 0
SMALL
GASTEIGER

@<TRIPOS>ATOM
      1 C          -2.5628    4.0536   21.1105 C.ar    1  UNL1        0.2601
      2 N          -1.8153    2.7541   21.0586 N.ar    1  UNL1       -0.1870
      3 C          -0.5830    2.9610   20.2288 C.ar    1  UNL1        0.2036
      4 N          -0.5688    4.3884   19.7679 N.ar    1  UNL1       -0.0556
      5 O          -1.7923    5.0637   20.3128 O.2     1  UNL1       -0.3324
      6 C           0.4532    1.9228   19.9150 C.ar    1  UNL1        0.0389
      7 C           0.9030    1.7162   18.4990 C.ar    1  UNL1        0.0044
      8 C           1.9392    0.6780   18.1852 C.ar    1  UNL1        0.0147
      9 C           2.5256   -0.1535   19.2874 C.ar    1  UNL1        0.0499
     10 C           2.0758    0.0532   20.7033 C.ar    1  UNL1       -0.0067
     11 C           1.0396    1.0913   21.0171 C.ar    1  UNL1        0.0002
     12 C           2.8278   -0.9096   21.5737 C.3     1  UNL1        0.0495
     13 C           3.7423   -1.7113   20.6957 C.3     1  UNL1        0.1029
     14 N           3.5556   -1.2440   19.2827 N.am    1  UNL1       -0.2586
     15 C           4.2729   -1.7741   18.0767 C.2     1  UNL1        0.2297
     16 O           3.9803   -1.2054   16.7198 O.2     1  UNL1       -0.2745
     17 C           5.2827   -2.8729   18.2275 C.3     1  UNL1        0.0915
     18 C           4.8273   -4.2903   18.4107 C.3     1  UNL1        0.0513
     19 C           4.6498   -4.8485   19.7916 C.2     1  UNL1        0.0508
     20 O           5.6556   -4.5394   20.8605 O.co2   1  UNL1       -0.5492
     21 O           3.4665   -5.7159   20.1035 O.co2   1  UNL1       -0.5492
     22 C          -6.2755    5.2406   21.8562 C.ar    1  UNL1        0.0716
     23 C          -6.4361    4.7922   23.2787 C.ar    1  UNL1        0.0475
     24 C          -5.3057    4.0977   23.9784 C.ar    1  UNL1        0.1476
     25 C          -4.0145    3.8515   23.2557 C.ar    1  UNL1        0.0420
     26 C          -3.8539    4.2998   21.8333 C.ar    1  UNL1        0.0598
     27 C          -4.9845    4.9943   21.1336 C.ar    1  UNL1        0.0152
     28 N          -8.5366    6.6296   20.4569 N.1     1  UNL1       -0.1908
     29 C          -7.4061    5.9351   21.1566 C.1     1  UNL1        0.1005
     30 O          -5.4663    3.6495   25.4008 O.3     1  UNL1       -0.4044
     31 C          -4.8007    4.4126   26.5073 C.3     1  UNL1        0.5753
     32 F          -4.1350    5.1758   27.6140 F       1  UNL1       -0.1328
     33 F          -3.6781    3.4178   26.5183 F       1  UNL1       -0.1328
     34 F          -5.9231    5.4075   26.4965 F       1  UNL1       -0.1328
@<TRIPOS>UNITY_ATOM_ATTR
20 1
charge -1
@<TRIPOS>BOND
     1    28    29    3
     2    29    22    1
     3    22    23   ar
     4    23    24   ar
     5    24    30    1
     6    30    31    1
     7    31    32    1
     8    31    33    1
     9    31    34    1
    10    24    25   ar
    11    25    26   ar
    12    26     1    1
    13     1     2   ar
    14     2     3   ar
    15     3     6    1
    16     6     7   ar
    17     7     8   ar
    18     8     9   ar
    19     9    10   ar
    20    10    11   ar
    21    10    12    1
    22    12    13    1
    23    13    14    1
    24    14    15   am
    25    15    16    2
    26    15    17    1
    27    17    18    1
    28    18    19    1
    29    19    20   ar
    30    19    21   ar
    31     3     4   ar
    32     4     5   ar
    33    26    27   ar
    34    27    22   ar
    35     5     1   ar
    36    11     6   ar
    37    14     9    1
@<TRIPOS>MOLECULE
*****
 34 37 0 0 0
SMALL
GASTEIGER

@<TRIPOS>ATOM
      1 C           4.5765    0.3055   34.8566 C.ar    1  UNL1        0.2601
      2 N           5.5548   -0.6789   34.2876 N.ar    1  UNL1       -0.1870
      3 C           5.0830   -1.0613   32.9160 C.ar    1  UNL1        0.2036
      4 N           3.8131   -0.3133   32.6373 N.ar    1  UNL1       -0.0556
      5 O           3.5000    0.5315   33.8366 O.2     1  UNL1       -0.3324
      6 C           5.7620   -2.0230   31.9863 C.ar    1  UNL1        0.0389
      7 C           6.4155   -3.2583   32.5312 C.ar    1  UNL1        0.0044
      8 C           7.0944   -4.2199   31.6015 C.ar    1  UNL1        0.0147
      9 C           7.1198   -3.9462   30.1269 C.ar    1  UNL1        0.0499
     10 C           6.4663   -2.7109   29.5820 C.ar    1  UNL1       -0.0067
     11 C           5.7874   -1.7493   30.5117 C.ar    1  UNL1        0.0002
     12 C           6.6511   -2.7069   28.0935 C.3     1  UNL1        0.0495
     13 C           7.4189   -3.9398   27.7184 C.3     1  UNL1        0.1029
     14 N           7.7086   -4.7057   28.9751 N.am    1  UNL1       -0.2586
     15 C           8.4557   -6.0033   29.0644 C.2     1  UNL1        0.2297
     16 O           8.6693   -6.6556   30.3982 O.2     1  UNL1       -0.2745
     17 C           8.9894   -6.6486   27.8199 C.3     1  UNL1        0.0915
     18 C           9.1184   -8.1412   27.7452 C.3     1  UNL1        0.0513
     19 C           7.9731   -8.9688   27.2419 C.2     1  UNL1        0.0508
     20 O           7.0181   -8.3956   26.2371 O.co2   1  UNL1       -0.5492
     21 O           7.7827  -10.3696   27.7434 O.co2   1  UNL1       -0.5492
     22 C           5.8366    2.5795   37.8550 C.ar    1  UNL1        0.0716
     23 C           4.8268    2.2409   38.9113 C.ar    1  UNL1        0.0475
     24 C           3.7336    1.2573   38.6160 C.ar    1  UNL1        0.1476
     25 C           3.6502    0.6121   37.2644 C.ar    1  UNL1        0.0420
     26 C           4.6599    0.9507   36.2082 C.ar    1  UNL1        0.0598
     27 C           5.7531    1.9344   36.5035 C.ar    1  UNL1        0.0152
     28 N           8.0230    4.5469   38.4456 N.1     1  UNL1       -0.1908
     29 C           6.9298    3.5632   38.1503 C.1     1  UNL1        0.1005
     30 O           2.7238    0.9188   39.6723 O.3     1  UNL1       -0.4044
     31 C           1.2594    0.9590   39.3503 C.3     1  UNL1        0.5753
     32 F          -0.2052    0.9991   39.0282 F       1  UNL1       -0.1328
     33 F           1.1396   -0.4914   39.7136 F       1  UNL1       -0.1328
     34 F           1.3790    2.4093   38.9869 F       1  UNL1       -0.1328
@<TRIPOS>UNITY_ATOM_ATTR
20 1
charge -1
@<TRIPOS>BOND
     1    28    29    3
     2    29    22    1
     3    22    23   ar
     4    23    24   ar
     5    24    30    1
     6    30    31    1
     7    31    32    1
     8    31    33    1
     9    31    34    1
    10    24    25   ar
    11    25    26   ar
    12    26     1    1
    13     1     2   ar
    14     2     3   ar
    15     3     6    1
    16     6     7   ar
    17     7     8   ar
    18     8     9   ar
    19     9    10   ar
    20    10    11   ar
    21    10    12    1
    22    12    13    1
    23    13    14    1
    24    14    15   am
    25    15    16    2
    26    15    17    1
    27    17    18    1
    28    18    19    1
    29    19    20   ar
    30    19    21   ar
    31     3     4   ar
    32     4     5   ar
    33    26    27   ar
    34    27    22   ar
    35     5     1   ar
    36    11     6   ar
    37    14     9    1
@<TRIPOS>MOLECULE
*****
 34 37 0 0 0
SMALL
GASTEIGER

@<TRIPOS>ATOM
      1 C           2.9875   -0.2641   24.1278 C.ar    1  UNL1        0.2601
      2 N           1.5949    0.2305   23.8710 N.ar    1  UNL1       -0.1870
      3 C           1.2840    1.2888   24.8875 C.ar    1  UNL1        0.2036
      4 N           2.4845    1.4483   25.7726 N.ar    1  UNL1       -0.0556
      5 O           3.5374    0.4886   25.3031 O.2     1  UNL1       -0.3324
      6 C          -0.0017    2.0534   24.9993 C.ar    1  UNL1        0.0389
      7 C          -0.7305    2.1077   26.3092 C.ar    1  UNL1        0.0044
      8 C          -2.0161    2.8723   26.4210 C.ar    1  UNL1        0.0147
      9 C          -2.5729    3.5826   25.2229 C.ar    1  UNL1        0.0499
     10 C          -1.8441    3.5283   23.9130 C.ar    1  UNL1       -0.0067
     11 C          -0.5585    2.7637   23.8012 C.ar    1  UNL1        0.0002
     12 C          -2.6306    4.3214   22.9118 C.3     1  UNL1        0.0495
     13 C          -3.8455    4.8658   23.6029 C.3     1  UNL1        0.1029
     14 N          -3.8099    4.4093   25.0312 N.am    1  UNL1       -0.2586
     15 C          -4.8318    4.7240   26.0832 C.2     1  UNL1        0.2297
     16 O          -4.6616    4.1946   27.4763 O.2     1  UNL1       -0.2745
     17 C          -6.0238    5.5682   25.7421 C.3     1  UNL1        0.0915
     18 C          -6.3394    6.7856   26.5596 C.3     1  UNL1        0.0513
     19 C          -6.7845    6.6377   27.9843 C.2     1  UNL1        0.0508
     20 O          -8.1853    6.1972   28.2905 O.co2   1  UNL1       -0.5492
     21 O          -5.8289    6.9304   29.1029 O.co2   1  UNL1       -0.5492
     22 C           5.4124   -3.2804   23.2495 C.ar    1  UNL1        0.0716
     23 C           5.1383   -3.4469   21.7841 C.ar    1  UNL1        0.0475
     24 C           4.1474   -2.5525   21.1000 C.ar    1  UNL1        0.1476
     25 C           3.4305   -1.4915   21.8812 C.ar    1  UNL1        0.0420
     26 C           3.7045   -1.3250   23.3465 C.ar    1  UNL1        0.0598
     27 C           4.6954   -2.2195   24.0306 C.ar    1  UNL1        0.0152
     28 N           7.3942   -5.0694   24.6176 N.1     1  UNL1       -0.1908
     29 C           6.4033   -4.1749   23.9335 C.1     1  UNL1        0.1005
     30 O           3.8735   -2.7190   19.6346 O.3     1  UNL1       -0.4044
     31 C           4.2514   -3.9942   18.9412 C.3     1  UNL1        0.5753
     32 F           4.6293   -5.2695   18.2477 F       1  UNL1       -0.1328
     33 F           2.9966   -4.6415   19.4476 F       1  UNL1       -0.1328
     34 F           5.5062   -3.3470   18.4347 F       1  UNL1       -0.1328
@<TRIPOS>UNITY_ATOM_ATTR
20 1
charge -1
@<TRIPOS>BOND
     1    28    29    3
     2    29    22    1
     3    22    23   ar
     4    23    24   ar
     5    24    30    1
     6    30    31    1
     7    31    32    1
     8    31    33    1
     9    31    34    1
    10    24    25   ar
    11    25    26   ar
    12    26     1    1
    13     1     2   ar
    14     2     3   ar
    15     3     6    1
    16     6     7   ar
    17     7     8   ar
    18     8     9   ar
    19     9    10   ar
    20    10    11   ar
    21    10    12    1
    22    12    13    1
    23    13    14    1
    24    14    15   am
    25    15    16    2
    26    15    17    1
    27    17    18    1
    28    18    19    1
    29    19    20   ar
    30    19    21   ar
    31     3     4   ar
    32     4     5   ar
    33    26    27   ar
    34    27    22   ar
    35     5     1   ar
    36    11     6   ar
    37    14     9    1
@<TRIPOS>MOLECULE
*****
 34 37 0 0 0
SMALL
GASTEIGER

@<TRIPOS>ATOM
      1 C           4.3722   -1.6037   23.5546 C.ar    1  UNL1        0.2601
      2 N           3.8720   -1.3199   24.9399 N.ar    1  UNL1       -0.1870
      3 C           4.9625   -1.6720   25.9077 C.ar    1  UNL1        0.2036
      4 N           6.1368   -2.1734   25.1205 N.ar    1  UNL1       -0.0556
      5 O           5.7720   -2.1312   23.6662 O.2     1  UNL1       -0.3324
      6 C           4.8913   -1.5450   27.4007 C.ar    1  UNL1        0.0389
      7 C           5.9645   -2.1493   28.2568 C.ar    1  UNL1        0.0044
      8 C           5.8933   -2.0223   29.7497 C.ar    1  UNL1        0.0147
      9 C           4.7488   -1.2909   30.3865 C.ar    1  UNL1        0.0499
     10 C           3.6757   -0.6866   29.5303 C.ar    1  UNL1       -0.0067
     11 C           3.7469   -0.8136   28.0374 C.ar    1  UNL1        0.0002
     12 C           2.6765   -0.0286   30.4351 C.3     1  UNL1        0.0495
     13 C           3.1323   -0.2262   31.8505 C.3     1  UNL1        0.1029
     14 N           4.4130   -1.0064   31.8205 N.am    1  UNL1       -0.2586
     15 C           5.2168   -1.4280   33.0147 C.2     1  UNL1        0.2297
     16 O           6.4840   -2.2087   32.8282 O.2     1  UNL1       -0.2745
     17 C           4.7535   -1.0689   34.3954 C.3     1  UNL1        0.0915
     18 C           5.3881    0.0777   35.1250 C.3     1  UNL1        0.0513
     19 C           5.5785    0.0078   36.6112 C.2     1  UNL1        0.0508
     20 O           6.8278   -0.5973   37.1797 O.co2   1  UNL1       -0.5492
     21 O           4.5196    0.5431   37.5290 O.co2   1  UNL1       -0.5492
     22 C           1.7068   -0.2095   20.9659 C.ar    1  UNL1        0.0716
     23 C           2.0768   -0.9819   19.7343 C.ar    1  UNL1        0.0475
     24 C           3.2119   -1.9615   19.7762 C.ar    1  UNL1        0.1476
     25 C           3.9771   -2.1688   21.0496 C.ar    1  UNL1        0.0420
     26 C           3.6071   -1.3964   22.2811 C.ar    1  UNL1        0.0598
     27 C           2.4719   -0.4168   22.2392 C.ar    1  UNL1        0.0152
     28 N          -0.5635    1.7497   20.8820 N.1     1  UNL1       -0.1908
     29 C           0.5716    0.7701   20.9239 C.1     1  UNL1        0.1005
     30 O           3.5819   -2.7338   18.5447 O.3     1  UNL1       -0.4044
     31 C           4.1541   -4.1148   18.6692 C.3     1  UNL1        0.5753
     32 F           4.7264   -5.4958   18.7937 F       1  UNL1       -0.1328
     33 F           5.5206   -3.5760   18.3653 F       1  UNL1       -0.1328
     34 F           2.7877   -4.6536   18.9732 F       1  UNL1       -0.1328
@<TRIPOS>UNITY_ATOM_ATTR
20 1
charge -1
@<TRIPOS>BOND
     1    28    29    3
     2    29    22    1
     3    22    23   ar
     4    23    24   ar
     5    24    30    1
     6    30    31    1
     7    31    32    1
     8    31    33    1
     9    31    34    1
    10    24    25   ar
    11    25    26   ar
    12    26     1    1
    13     1     2   ar
    14     2     3   ar
    15     3     6    1
    16     6     7   ar
    17     7     8   ar
    18     8     9   ar
    19     9    10   ar
    20    10    11   ar
    21    10    12    1
    22    12    13    1
    23    13    14    1
    24    14    15   am
    25    15    16    2
    26    15    17    1
    27    17    18    1
    28    18    19    1
    29    19    20   ar
    30    19    21   ar
    31     3     4   ar
    32     4     5   ar
    33    26    27   ar
    34    27    22   ar
    35     5     1   ar
    36    11     6   ar
    37    14     9    1
@<TRIPOS>MOLECULE
*****
 34 37 0 0 0
SMALL
GASTEIGER

@<TRIPOS>ATOM
      1 C           0.9787    0.8389   20.3995 C.ar    1  UNL1        0.2601
      2 N          -0.0712    1.3621   21.3343 N.ar    1  UNL1       -0.1870
      3 C          -0.8615    2.4079   20.6052 C.ar    1  UNL1        0.2036
      4 N          -0.3001    2.5310   19.2196 N.ar    1  UNL1       -0.0556
      5 O           0.8372    1.5613   19.0925 O.2     1  UNL1       -0.3324
      6 C          -2.0115    3.1928   21.1635 C.ar    1  UNL1        0.0389
      7 C          -1.8849    3.8604   22.5007 C.ar    1  UNL1        0.0044
      8 C          -3.0348    4.6452   23.0590 C.ar    1  UNL1        0.0147
      9 C          -4.3112    4.7626   22.2800 C.ar    1  UNL1        0.0499
     10 C          -4.4378    4.0950   20.9427 C.ar    1  UNL1       -0.0067
     11 C          -3.2879    3.3101   20.3845 C.ar    1  UNL1        0.0002
     12 C          -5.8092    4.3841   20.4083 C.3     1  UNL1        0.0495
     13 C          -6.5303    5.2304   21.4153 C.3     1  UNL1        0.1029
     14 N          -5.6045    5.4643   22.5721 N.am    1  UNL1       -0.2586
     15 C          -5.9170    6.2601   23.8045 C.2     1  UNL1        0.2297
     16 O          -4.8855    6.4077   24.8836 O.2     1  UNL1       -0.2745
     17 C          -7.2609    6.9084   23.9579 C.3     1  UNL1        0.0915
     18 C          -8.2195    6.4104   24.9986 C.3     1  UNL1        0.0513
     19 C          -9.2683    5.4029   24.6314 C.2     1  UNL1        0.0508
     20 O         -10.6969    5.6284   25.0293 O.co2   1  UNL1       -0.5492
     21 O          -8.8885    4.1698   23.8664 O.co2   1  UNL1       -0.5492
     22 C           3.5374   -1.4163   22.4285 C.ar    1  UNL1        0.0716
     23 C           4.0190   -2.3399   21.3490 C.ar    1  UNL1        0.0475
     24 C           3.4872   -2.2039   19.9531 C.ar    1  UNL1        0.1476
     25 C           2.4737   -1.1442   19.6366 C.ar    1  UNL1        0.0420
     26 C           1.9921   -0.2207   20.7160 C.ar    1  UNL1        0.0598
     27 C           2.5240   -0.3568   22.1119 C.ar    1  UNL1        0.0152
     28 N           4.6011   -1.6885   25.2203 N.1     1  UNL1       -0.1908
     29 C           4.0692   -1.5524   23.8244 C.1     1  UNL1        0.1005
     30 O           3.9688   -3.1274   18.8737 O.3     1  UNL1       -0.4044
     31 C           3.9915   -4.6086   19.1089 C.3     1  UNL1        0.5753
     32 F           4.0141   -6.0900   19.3442 F       1  UNL1       -0.1328
     33 F           2.5053   -4.6625   18.9130 F       1  UNL1       -0.1328
     34 F           5.4776   -4.5548   19.3049 F       1  UNL1       -0.1328
@<TRIPOS>UNITY_ATOM_ATTR
20 1
charge -1
@<TRIPOS>BOND
     1    28    29    3
     2    29    22    1
     3    22    23   ar
     4    23    24   ar
     5    24    30    1
     6    30    31    1
     7    31    32    1
     8    31    33    1
     9    31    34    1
    10    24    25   ar
    11    25    26   ar
    12    26     1    1
    13     1     2   ar
    14     2     3   ar
    15     3     6    1
    16     6     7   ar
    17     7     8   ar
    18     8     9   ar
    19     9    10   ar
    20    10    11   ar
    21    10    12    1
    22    12    13    1
    23    13    14    1
    24    14    15   am
    25    15    16    2
    26    15    17    1
    27    17    18    1
    28    18    19    1
    29    19    20   ar
    30    19    21   ar
    31     3     4   ar
    32     4     5   ar
    33    26    27   ar
    34    27    22   ar
    35     5     1   ar
    36    11     6   ar
    37    14     9    1
@<TRIPOS>MOLECULE
*****
 34 37 0 0 0
SMALL
GASTEIGER

@<TRIPOS>ATOM
      1 C           2.9944   -0.4228   24.2375 C.ar    1  UNL1        0.2601
      2 N           1.6857    0.2117   23.8704 N.ar    1  UNL1       -0.1870
      3 C           1.3046    1.1577   24.9703 C.ar    1  UNL1        0.2036
      4 N           2.3778    1.1079   26.0171 N.ar    1  UNL1       -0.0556
      5 O           3.4221    0.1311   25.5643 O.2     1  UNL1       -0.3324
      6 C           0.0675    2.0049   25.0154 C.ar    1  UNL1        0.0389
      7 C          -0.7101    2.1294   26.2920 C.ar    1  UNL1        0.0044
      8 C          -1.9471    2.9765   26.3371 C.ar    1  UNL1        0.0147
      9 C          -2.4066    3.6992   25.1056 C.ar    1  UNL1        0.0499
     10 C          -1.6290    3.5747   23.8290 C.ar    1  UNL1       -0.0067
     11 C          -0.3920    2.7275   23.7839 C.ar    1  UNL1        0.0002
     12 C          -2.3202    4.3982   22.7830 C.3     1  UNL1        0.0495
     13 C          -3.5251    5.0316   23.4132 C.3     1  UNL1        0.1029
     14 N          -3.5784    4.5996   24.8487 N.am    1  UNL1       -0.2586
     15 C          -4.6206    4.9981   25.8512 C.2     1  UNL1        0.2297
     16 O          -4.5431    4.4842   27.2583 O.2     1  UNL1       -0.2745
     17 C          -5.7404    5.9105   25.4466 C.3     1  UNL1        0.0915
     18 C          -7.0725    5.3382   25.0622 C.3     1  UNL1        0.0513
     19 C          -7.4070    5.1223   23.6160 C.2     1  UNL1        0.0508
     20 O          -8.3254    6.0740   22.9084 O.co2   1  UNL1       -0.5492
     21 O          -6.8230    3.9546   22.8774 O.co2   1  UNL1       -0.5492
     22 C           5.5175   -3.3251   23.2574 C.ar    1  UNL1        0.0716
     23 C           5.2426   -3.4556   21.7885 C.ar    1  UNL1        0.0475
     24 C           4.2184   -2.5752   21.1360 C.ar    1  UNL1        0.1476
     25 C           3.4689   -1.5643   21.9523 C.ar    1  UNL1        0.0420
     26 C           3.7438   -1.4338   23.4211 C.ar    1  UNL1        0.0598
     27 C           4.7681   -2.3142   24.0736 C.ar    1  UNL1        0.0152
     28 N           7.5660   -5.0860   24.5623 N.1     1  UNL1       -0.1908
     29 C           6.5417   -4.2055   23.9098 C.1     1  UNL1        0.1005
     30 O           3.9435   -2.7057   19.6672 O.3     1  UNL1       -0.4044
     31 C           4.2971   -3.9736   18.9478 C.3     1  UNL1        0.5753
     32 F           4.6507   -5.2415   18.2284 F       1  UNL1       -0.1328
     33 F           3.0565   -4.6240   19.4842 F       1  UNL1       -0.1328
     34 F           5.5377   -3.3232   18.4113 F       1  UNL1       -0.1328
@<TRIPOS>UNITY_ATOM_ATTR
20 1
charge -1
@<TRIPOS>BOND
     1    28    29    3
     2    29    22    1
     3    22    23   ar
     4    23    24   ar
     5    24    30    1
     6    30    31    1
     7    31    32    1
     8    31    33    1
     9    31    34    1
    10    24    25   ar
    11    25    26   ar
    12    26     1    1
    13     1     2   ar
    14     2     3   ar
    15     3     6    1
    16     6     7   ar
    17     7     8   ar
    18     8     9   ar
    19     9    10   ar
    20    10    11   ar
    21    10    12    1
    22    12    13    1
    23    13    14    1
    24    14    15   am
    25    15    16    2
    26    15    17    1
    27    17    18    1
    28    18    19    1
    29    19    20   ar
    30    19    21   ar
    31     3     4   ar
    32     4     5   ar
    33    26    27   ar
    34    27    22   ar
    35     5     1   ar
    36    11     6   ar
    37    14     9    1
@<TRIPOS>MOLECULE
*****
 34 37 0 0 0
SMALL
GASTEIGER

@<TRIPOS>ATOM
      1 C           4.8335    0.9167   35.1787 C.ar    1  UNL1        0.2601
      2 N           4.5480    0.1217   33.9391 N.ar    1  UNL1       -0.1870
      3 C           5.8174   -0.5609   33.5236 C.ar    1  UNL1        0.2036
      4 N           6.8875   -0.1878   34.5065 N.ar    1  UNL1       -0.0556
      5 O           6.2794    0.7254   35.5293 O.2     1  UNL1       -0.3324
      6 C           5.9871   -1.4589   32.3342 C.ar    1  UNL1        0.0389
      7 C           6.4888   -2.8605   32.5181 C.ar    1  UNL1        0.0044
      8 C           6.6585   -3.7585   31.3287 C.ar    1  UNL1        0.0147
      9 C           6.3264   -3.2549   29.9553 C.ar    1  UNL1        0.0499
     10 C           5.8246   -1.8534   29.7714 C.ar    1  UNL1       -0.0067
     11 C           5.6550   -0.9554   30.9608 C.ar    1  UNL1        0.0002
     12 C           5.5804   -1.6369   28.3073 C.3     1  UNL1        0.0495
     13 C           5.9312   -2.9046   27.5864 C.3     1  UNL1        0.1029
     14 N           6.3923   -3.9047   28.6049 N.am    1  UNL1       -0.2586
     15 C           6.8405   -5.3080   28.3226 C.2     1  UNL1        0.2297
     16 O           7.2761   -6.1972   29.4494 O.2     1  UNL1       -0.2745
     17 C           6.8530   -5.8222   26.9135 C.3     1  UNL1        0.0915
     18 C           8.0601   -5.6104   26.0486 C.3     1  UNL1        0.0513
     19 C           7.8965   -5.1272   24.6380 C.2     1  UNL1        0.0508
     20 O           7.9063   -3.6564   24.3431 O.co2   1  UNL1       -0.5492
     21 O           7.7233   -6.1146   23.5223 O.co2   1  UNL1       -0.5492
     22 C           2.2897    3.8318   36.0625 C.ar    1  UNL1        0.0716
     23 C           1.8723    3.4336   37.4472 C.ar    1  UNL1        0.0475
     24 C           2.4419    2.1965   38.0757 C.ar    1  UNL1        0.1476
     25 C           3.4290    1.3575   37.3195 C.ar    1  UNL1        0.0420
     26 C           3.8464    1.7557   35.9348 C.ar    1  UNL1        0.0598
     27 C           3.2767    2.9928   35.3064 C.ar    1  UNL1        0.0152
     28 N           1.1503    6.3060   34.8056 N.1     1  UNL1       -0.1908
     29 C           1.7200    5.0689   35.4340 C.1     1  UNL1        0.1005
     30 O           2.0245    1.7984   39.4603 O.3     1  UNL1       -0.4044
     31 C           1.2513    0.5312   39.6753 C.3     1  UNL1        0.5753
     32 F           0.4779   -0.7361   39.8902 F       1  UNL1       -0.1328
     33 F           0.0116    1.2001   39.1597 F       1  UNL1       -0.1328
     34 F           2.4908   -0.1379   40.1908 F       1  UNL1       -0.1328
@<TRIPOS>UNITY_ATOM_ATTR
20 1
charge -1
@<TRIPOS>BOND
     1    28    29    3
     2    29    22    1
     3    22    23   ar
     4    23    24   ar
     5    24    30    1
     6    30    31    1
     7    31    32    1
     8    31    33    1
     9    31    34    1
    10    24    25   ar
    11    25    26   ar
    12    26     1    1
    13     1     2   ar
    14     2     3   ar
    15     3     6    1
    16     6     7   ar
    17     7     8   ar
    18     8     9   ar
    19     9    10   ar
    20    10    11   ar
    21    10    12    1
    22    12    13    1
    23    13    14    1
    24    14    15   am
    25    15    16    2
    26    15    17    1
    27    17    18    1
    28    18    19    1
    29    19    20   ar
    30    19    21   ar
    31     3     4   ar
    32     4     5   ar
    33    26    27   ar
    34    27    22   ar
    35     5     1   ar
    36    11     6   ar
    37    14     9    1
@<TRIPOS>MOLECULE
*****
 34 37 0 0 0
SMALL
GASTEIGER

@<TRIPOS>ATOM
      1 C          -0.4167    1.8545   27.7953 C.ar    1  UNL1        0.2601
      2 N           0.2951    2.6472   28.8513 N.ar    1  UNL1       -0.1870
      3 C           0.3069    1.8343   30.1118 C.ar    1  UNL1        0.2036
      4 N          -0.3975    0.5392   29.8349 N.ar    1  UNL1       -0.0556
      5 O          -0.8447    0.5517   28.4032 O.2     1  UNL1       -0.3324
      6 C           0.9163    2.2444   31.4198 C.ar    1  UNL1        0.0389
      7 C           1.9942    1.4062   32.0406 C.ar    1  UNL1        0.0044
      8 C           2.6035    1.8163   33.3484 C.ar    1  UNL1        0.0147
      9 C           2.1348    3.0646   34.0355 C.ar    1  UNL1        0.0499
     10 C           1.0569    3.9028   33.4147 C.ar    1  UNL1       -0.0067
     11 C           0.4476    3.4927   32.1068 C.ar    1  UNL1        0.0002
     12 C           0.8011    5.0725   34.3182 C.3     1  UNL1        0.0495
     13 C           1.7209    4.9572   35.4975 C.3     1  UNL1        0.1029
     14 N           2.5452    3.7162   35.3228 N.am    1  UNL1       -0.2586
     15 C           3.5955    3.2149   36.2691 C.2     1  UNL1        0.2297
     16 O           4.3422    1.9513   35.9598 O.2     1  UNL1       -0.2745
     17 C           3.8990    3.9772   37.5248 C.3     1  UNL1        0.0915
     18 C           3.1535    3.6676   38.7890 C.3     1  UNL1        0.0513
     19 C           2.1876    2.5207   38.8284 C.2     1  UNL1        0.0508
     20 O           2.6468    1.1688   39.2884 O.co2   1  UNL1       -0.5492
     21 O           0.7624    2.7256   38.4078 O.co2   1  UNL1       -0.5492
     22 C           0.0947    2.3790   23.8948 C.ar    1  UNL1        0.0716
     23 C          -1.1407    3.1564   23.5490 C.ar    1  UNL1        0.0475
     24 C          -2.1347    3.4998   24.6185 C.ar    1  UNL1        0.1476
     25 C          -1.8933    3.0659   26.0340 C.ar    1  UNL1        0.0420
     26 C          -0.6580    2.2885   26.3798 C.ar    1  UNL1        0.0598
     27 C           0.3360    1.9451   25.3102 C.ar    1  UNL1        0.0152
     28 N           2.0827    1.6922   21.7556 N.1     1  UNL1       -0.1908
     29 C           1.0887    2.0356   22.8252 C.1     1  UNL1        0.1005
     30 O          -3.3700    4.2772   24.2727 O.3     1  UNL1       -0.4044
     31 C          -4.4531    4.4579   25.2946 C.3     1  UNL1        0.5753
     32 F          -5.5362    4.6385   26.3166 F       1  UNL1       -0.1328
     33 F          -5.0574    3.1472   24.8859 F       1  UNL1       -0.1328
     34 F          -3.8488    5.7684   25.7034 F       1  UNL1       -0.1328
@<TRIPOS>UNITY_ATOM_ATTR
20 1
charge -1
@<TRIPOS>BOND
     1    28    29    3
     2    29    22    1
     3    22    23   ar
     4    23    24   ar
     5    24    30    1
     6    30    31    1
     7    31    32    1
     8    31    33    1
     9    31    34    1
    10    24    25   ar
    11    25    26   ar
    12    26     1    1
    13     1     2   ar
    14     2     3   ar
    15     3     6    1
    16     6     7   ar
    17     7     8   ar
    18     8     9   ar
    19     9    10   ar
    20    10    11   ar
    21    10    12    1
    22    12    13    1
    23    13    14    1
    24    14    15   am
    25    15    16    2
    26    15    17    1
    27    17    18    1
    28    18    19    1
    29    19    20   ar
    30    19    21   ar
    31     3     4   ar
    32     4     5   ar
    33    26    27   ar
    34    27    22   ar
    35     5     1   ar
    36    11     6   ar
    37    14     9    1
