@<TRIPOS>MOLECULE
*****
 43 48 0 0 0
SMALL
GASTEIGER

@<TRIPOS>ATOM
      1 C           0.6706    3.0083   23.5677 C.ar    1  UNL1        0.0620
      2 C           0.0773    3.0535   24.9446 C.ar    1  UNL1        0.0150
      3 C          -1.3904    3.3083   25.1209 C.ar    1  UNL1        0.0064
      4 C          -1.9837    3.3535   26.4978 C.ar    1  UNL1        0.0002
      5 C          -3.4514    3.6083   26.6740 C.ar    1  UNL1        0.0006
      6 C          -4.3257    3.8179   25.4733 C.ar    1  UNL1        0.0084
      7 C          -3.7324    3.7727   24.0964 C.ar    1  UNL1        0.0465
      8 C          -2.2648    3.5179   23.9202 C.ar    1  UNL1        0.0642
      9 C          -1.6714    3.4727   22.5432 C.ar    1  UNL1        0.2650
     10 O          -2.5458    3.6823   21.3426 O.2     1  UNL1       -0.2666
     11 N          -0.2038    3.2179   22.3670 N.ar    1  UNL1       -0.2766
     12 C           0.3896    3.1727   20.9900 C.ar    1  UNL1        0.0666
     13 C           0.3338    1.9047   20.1906 C.ar    1  UNL1        0.0176
     14 C           0.9271    1.8595   18.8137 C.ar    1  UNL1        0.0015
     15 C           1.5762    3.0822   18.2363 C.ar    1  UNL1        0.0001
     16 C           1.6320    4.3502   19.0357 C.ar    1  UNL1        0.0015
     17 C           1.0387    4.3954   20.4126 C.ar    1  UNL1        0.0176
     18 C           3.1307    3.8306   23.7153 C.3     1  UNL1        0.0278
     19 C           2.1383    2.7535   23.3914 C.3     1  UNL1        0.1106
     20 N           2.6135    1.4217   22.8911 N.am    1  UNL1       -0.2972
     21 C           3.1277    0.3971   23.8585 C.2     1  UNL1        0.2518
     22 O           3.1667    0.7044   25.3261 O.2     1  UNL1       -0.2699
     23 H           2.5878    1.2200   21.9278 H       1  UNL1        0.1500
     24 C           3.6029   -0.9348   23.3582 C.ar    1  UNL1        0.1218
     25 C           4.2107   -2.0239   24.1915 C.ar    1  UNL1        0.1529
     26 N           4.4500   -1.9724   25.6714 N.pl3   1  UNL1       -0.3411
     27 N           4.5371   -3.1736   23.2851 N.ar    1  UNL1       -0.1489
     28 N           4.1311   -2.7951   21.8916 N.ar    1  UNL1       -0.2093
     29 C           4.2126   -3.5316   20.5874 C.ar    1  UNL1        0.1037
     30 C           3.7166   -2.8844   19.3284 C.ar    1  UNL1        0.0414
     31 C           3.1392   -1.5007   19.3736 C.ar    1  UNL1        0.1022
     32 N           3.0577   -0.7642   20.6778 N.ar    1  UNL1       -0.2247
     33 C           3.5537   -1.4114   21.9368 C.ar    1  UNL1        0.1709
     34 H           4.2003   -1.1690   26.1827 H       1  UNL1        0.1438
     35 H           4.8567   -2.7419   26.1313 H       1  UNL1        0.1438
     36 C          -4.6067    3.9823   22.8958 C.1     1  UNL1       -0.0595
     37 C          -5.4811    4.1918   21.6951 C.1     1  UNL1       -0.0566
     38 C          -6.3554    4.4014   20.4944 C.ar    1  UNL1        0.0815
     39 C          -6.3753    3.5510   19.2589 C.ar    1  UNL1        0.1299
     40 N          -7.3955    4.1222   18.3194 N.ar    1  UNL1       -0.1669
     41 N          -8.0063    5.3256   18.9742 N.ar    1  UNL1       -0.2467
     42 C          -9.0726    6.2026   18.3877 C.3     1  UNL1        0.1538
     43 C          -7.3635    5.4982   20.3184 C.ar    1  UNL1        0.1049
@<TRIPOS>BOND
     1    19    18    1
     2    19    20    1
     3    20    21   am
     4    21    22    2
     5    21    24    1
     6    24    25   ar
     7    25    26    1
     8    25    27   ar
     9    27    28   ar
    10    28    29   ar
    11    29    30   ar
    12    30    31   ar
    13    31    32   ar
    14    32    33   ar
    15    19     1    1
    16     1     2   ar
    17     2     3   ar
    18     3     4   ar
    19     4     5   ar
    20     5     6   ar
    21     6     7   ar
    22     7    36    1
    23    36    37    3
    24    37    38    1
    25    38    39   ar
    26    39    40   ar
    27    40    41   ar
    28    41    42    1
    29    41    43   ar
    30     7     8   ar
    31     8     9   ar
    32     9    10    2
    33     9    11   ar
    34    11    12    1
    35    12    13   ar
    36    13    14   ar
    37    14    15   ar
    38    15    16   ar
    39    16    17   ar
    40    33    24   ar
    41    11     1   ar
    42    17    12   ar
    43    33    28   ar
    44     8     3   ar
    45    43    38   ar
    46    20    23    1
    47    26    34    1
    48    26    35    1
@<TRIPOS>MOLECULE
*****
 43 48 0 0 0
SMALL
GASTEIGER

@<TRIPOS>ATOM
      1 C           4.5705   -0.1106   28.5820 C.ar    1  UNL1        0.0620
      2 C           3.3510    0.0898   29.4320 C.ar    1  UNL1        0.0150
      3 C           2.0477    0.4725   28.7956 C.ar    1  UNL1        0.0064
      4 C           0.8282    0.6729   29.6456 C.ar    1  UNL1        0.0002
      5 C          -0.4750    1.0555   29.0091 C.ar    1  UNL1        0.0006
      6 C          -0.5587    1.2379   27.5226 C.ar    1  UNL1        0.0084
      7 C           0.6608    1.0375   26.6726 C.ar    1  UNL1        0.0465
      8 C           1.9640    0.6548   27.3090 C.ar    1  UNL1        0.0642
      9 C           3.1836    0.4544   26.4590 C.ar    1  UNL1        0.2650
     10 O           3.0999    0.6367   24.9725 O.2     1  UNL1       -0.2666
     11 N           4.4868    0.0717   27.0955 N.ar    1  UNL1       -0.2766
     12 C           5.7064   -0.1287   26.2454 C.ar    1  UNL1        0.0666
     13 C           5.9399   -1.4462   25.5675 C.ar    1  UNL1        0.0176
     14 C           7.1594   -1.6466   24.7175 C.ar    1  UNL1        0.0015
     15 C           8.1454   -0.5295   24.5454 C.ar    1  UNL1        0.0001
     16 C           7.9120    0.7881   25.2233 C.ar    1  UNL1        0.0015
     17 C           6.6924    0.9885   26.0733 C.ar    1  UNL1        0.0176
     18 C           6.6493    0.5198   30.0074 C.3     1  UNL1        0.0278
     19 C           5.8738   -0.4933   29.2185 C.3     1  UNL1        0.1106
     20 N           6.4016   -1.8890   29.0660 N.am    1  UNL1       -0.2972
     21 C           6.2966   -2.8592   30.2051 C.2     1  UNL1        0.2518
     22 O           5.6638   -2.4336   31.4968 O.2     1  UNL1       -0.2699
     23 H           6.8170   -2.1684   28.2182 H       1  UNL1        0.1500
     24 C           6.8244   -4.2550   30.0526 C.ar    1  UNL1        0.1218
     25 C           6.9142   -5.2871   31.1374 C.ar    1  UNL1        0.1529
     26 N           6.4918   -5.1047   32.5651 N.pl3   1  UNL1       -0.3411
     27 N           7.5004   -6.5337   30.5438 N.ar    1  UNL1       -0.1489
     28 N           7.7730   -6.2720   29.0922 N.ar    1  UNL1       -0.2093
     29 C           8.3476   -7.1342   28.0075 C.ar    1  UNL1        0.1037
     30 C           8.5045   -6.5880   26.6194 C.ar    1  UNL1        0.0414
     31 C           8.0868   -5.1797   26.3158 C.ar    1  UNL1        0.1022
     32 N           7.5121   -4.3175   27.4005 N.ar    1  UNL1       -0.2247
     33 C           7.3552   -4.8637   28.7886 C.ar    1  UNL1        0.1709
     34 H           6.1157   -4.2443   32.8611 H       1  UNL1        0.1438
     35 H           6.5906   -5.8453   33.2061 H       1  UNL1        0.1438
     36 C           0.5771    1.2198   25.1860 C.1     1  UNL1       -0.0595
     37 C           0.4934    1.4021   23.6995 C.1     1  UNL1       -0.0566
     38 C           0.4097    1.5844   22.2130 C.ar    1  UNL1        0.0815
     39 C          -0.3554    2.6584   21.4981 C.ar    1  UNL1        0.1299
     40 N          -0.1616    2.4625   20.0236 N.ar    1  UNL1       -0.1669
     41 N           0.7233    1.2674   19.8272 N.ar    1  UNL1       -0.2467
     42 C           1.1757    0.7124   18.5092 C.3     1  UNL1        0.1538
     43 C           1.0764    0.7247   21.1803 C.ar    1  UNL1        0.1049
@<TRIPOS>BOND
     1    19    18    1
     2    19    20    1
     3    20    21   am
     4    21    22    2
     5    21    24    1
     6    24    25   ar
     7    25    26    1
     8    25    27   ar
     9    27    28   ar
    10    28    29   ar
    11    29    30   ar
    12    30    31   ar
    13    31    32   ar
    14    32    33   ar
    15    19     1    1
    16     1     2   ar
    17     2     3   ar
    18     3     4   ar
    19     4     5   ar
    20     5     6   ar
    21     6     7   ar
    22     7    36    1
    23    36    37    3
    24    37    38    1
    25    38    39   ar
    26    39    40   ar
    27    40    41   ar
    28    41    42    1
    29    41    43   ar
    30     7     8   ar
    31     8     9   ar
    32     9    10    2
    33     9    11   ar
    34    11    12    1
    35    12    13   ar
    36    13    14   ar
    37    14    15   ar
    38    15    16   ar
    39    16    17   ar
    40    33    24   ar
    41    11     1   ar
    42    17    12   ar
    43    33    28   ar
    44     8     3   ar
    45    43    38   ar
    46    20    23    1
    47    26    34    1
    48    26    35    1
@<TRIPOS>MOLECULE
*****
 43 48 0 0 0
SMALL
GASTEIGER

@<TRIPOS>ATOM
      1 C           2.1463    2.0640   23.3252 C.ar    1  UNL1        0.0620
      2 C           2.0817    1.8762   24.8120 C.ar    1  UNL1        0.0150
      3 C           0.7987    2.1335   25.5454 C.ar    1  UNL1        0.0064
      4 C           0.7341    1.9457   27.0322 C.ar    1  UNL1        0.0002
      5 C          -0.5489    2.2030   27.7655 C.ar    1  UNL1        0.0006
      6 C          -1.7672    2.6481   27.0121 C.ar    1  UNL1        0.0084
      7 C          -1.7025    2.8359   25.5254 C.ar    1  UNL1        0.0465
      8 C          -0.4196    2.5786   24.7920 C.ar    1  UNL1        0.0642
      9 C          -0.3549    2.7665   23.3052 C.ar    1  UNL1        0.2650
     10 O          -1.5732    3.2116   22.5518 O.2     1  UNL1       -0.2666
     11 N           0.9280    2.5092   22.5718 N.ar    1  UNL1       -0.2766
     12 C           0.9927    2.6970   21.0850 C.ar    1  UNL1        0.0666
     13 C           0.7052    1.5436   20.1701 C.ar    1  UNL1        0.0176
     14 C           0.7699    1.7314   18.6834 C.ar    1  UNL1        0.0015
     15 C           1.1221    3.0725   18.1115 C.ar    1  UNL1        0.0001
     16 C           1.4096    4.2260   19.0263 C.ar    1  UNL1        0.0015
     17 C           1.3449    4.0382   20.5131 C.ar    1  UNL1        0.0176
     18 C           4.4221    2.9156   22.4055 C.3     1  UNL1        0.0278
     19 C           3.4293    1.8067   22.5918 C.3     1  UNL1        0.1106
     20 N           3.7194    0.4405   22.0447 N.am    1  UNL1       -0.2972
     21 C           4.4558   -0.5621   22.8828 C.2     1  UNL1        0.2518
     22 O           4.9021   -0.1986   24.2679 O.2     1  UNL1       -0.2699
     23 H           3.4265    0.2019   21.1356 H       1  UNL1        0.1500
     24 C           4.7460   -1.9283   22.3357 C.ar    1  UNL1        0.1218
     25 C           5.1751   -3.1244   23.1327 C.ar    1  UNL1        0.1529
     26 N           5.3894   -3.1643   24.6168 N.pl3   1  UNL1       -0.3411
     27 N           5.3522   -4.2736   22.1851 N.ar    1  UNL1       -0.1489
     28 N           5.0326   -3.7878   20.8025 N.ar    1  UNL1       -0.2093
     29 C           5.0344   -4.4780   19.4707 C.ar    1  UNL1        0.1037
     30 C           4.6614   -3.7188   18.2320 C.ar    1  UNL1        0.0414
     31 C           4.2867   -2.2693   18.3251 C.ar    1  UNL1        0.1022
     32 N           4.2850   -1.5791   19.6568 N.ar    1  UNL1       -0.2247
     33 C           4.6579   -2.3384   20.8955 C.ar    1  UNL1        0.1709
     34 H           5.2468   -2.3535   25.1567 H       1  UNL1        0.1438
     35 H           5.6727   -4.0012   25.0509 H       1  UNL1        0.1438
     36 C          -2.9208    3.2811   24.7719 C.1     1  UNL1       -0.0595
     37 C          -4.1391    3.7262   24.0185 C.1     1  UNL1       -0.0566
     38 C          -5.3574    4.1713   23.2651 C.ar    1  UNL1        0.0815
     39 C          -6.7348    4.3376   23.8353 C.ar    1  UNL1        0.1299
     40 N          -7.6409    4.7973   22.7318 N.ar    1  UNL1       -0.1669
     41 N          -6.8235    4.9153   21.4796 N.ar    1  UNL1       -0.2467
     42 C          -7.3286    5.3447   20.1341 C.3     1  UNL1        0.1538
     43 C          -5.4122    4.5284   21.8093 C.ar    1  UNL1        0.1049
@<TRIPOS>BOND
     1    19    18    1
     2    19    20    1
     3    20    21   am
     4    21    22    2
     5    21    24    1
     6    24    25   ar
     7    25    26    1
     8    25    27   ar
     9    27    28   ar
    10    28    29   ar
    11    29    30   ar
    12    30    31   ar
    13    31    32   ar
    14    32    33   ar
    15    19     1    1
    16     1     2   ar
    17     2     3   ar
    18     3     4   ar
    19     4     5   ar
    20     5     6   ar
    21     6     7   ar
    22     7    36    1
    23    36    37    3
    24    37    38    1
    25    38    39   ar
    26    39    40   ar
    27    40    41   ar
    28    41    42    1
    29    41    43   ar
    30     7     8   ar
    31     8     9   ar
    32     9    10    2
    33     9    11   ar
    34    11    12    1
    35    12    13   ar
    36    13    14   ar
    37    14    15   ar
    38    15    16   ar
    39    16    17   ar
    40    33    24   ar
    41    11     1   ar
    42    17    12   ar
    43    33    28   ar
    44     8     3   ar
    45    43    38   ar
    46    20    23    1
    47    26    34    1
    48    26    35    1
@<TRIPOS>MOLECULE
*****
 43 48 0 0 0
SMALL
GASTEIGER

@<TRIPOS>ATOM
      1 C          -1.5867    3.8552   18.8933 C.ar    1  UNL1        0.0620
      2 C          -2.8388    3.8291   18.0678 C.ar    1  UNL1        0.0150
      3 C          -4.1718    4.0476   18.7199 C.ar    1  UNL1        0.0064
      4 C          -5.4239    4.0214   17.8944 C.ar    1  UNL1        0.0002
      5 C          -6.7569    4.2399   18.5466 C.ar    1  UNL1        0.0006
      6 C          -6.8378    4.4846   20.0243 C.ar    1  UNL1        0.0084
      7 C          -5.5857    4.5107   20.8498 C.ar    1  UNL1        0.0465
      8 C          -4.2527    4.2922   20.1976 C.ar    1  UNL1        0.0642
      9 C          -3.0005    4.3183   21.0232 C.ar    1  UNL1        0.2650
     10 O          -3.0814    4.5630   22.5009 O.2     1  UNL1       -0.2666
     11 N          -1.6676    4.0998   20.3710 N.ar    1  UNL1       -0.2766
     12 C          -0.4154    4.1260   21.1965 C.ar    1  UNL1        0.0666
     13 C           0.3745    5.3951   21.3211 C.ar    1  UNL1        0.0176
     14 C           1.6266    5.4213   22.1465 C.ar    1  UNL1        0.0015
     15 C           2.0889    4.1784   22.8475 C.ar    1  UNL1        0.0001
     16 C           1.2990    2.9092   22.7229 C.ar    1  UNL1        0.0015
     17 C           0.0469    2.8831   21.8975 C.ar    1  UNL1        0.0176
     18 C           0.4135    4.7595   17.5034 C.3     1  UNL1        0.0278
     19 C          -0.2536    3.6367   18.2411 C.3     1  UNL1        0.1106
     20 N           0.4123    2.2953   18.3267 N.am    1  UNL1       -0.2972
     21 C           1.8009    2.1815   18.8825 C.2     1  UNL1        0.2518
     22 O           2.5235    3.4089   19.3527 O.2     1  UNL1       -0.2699
     23 H          -0.0620    1.4897   18.0181 H       1  UNL1        0.1500
     24 C           2.4668    0.8401   18.9681 C.ar    1  UNL1        0.1218
     25 C           1.8907   -0.3915   19.6016 C.ar    1  UNL1        0.1529
     26 N           0.5475   -0.4979   20.2608 N.pl3   1  UNL1       -0.3411
     27 N           2.8936   -1.4979   19.4602 N.ar    1  UNL1       -0.1489
     28 N           4.0895   -0.9502   18.7393 N.ar    1  UNL1       -0.2093
     29 C           5.3846   -1.5805   18.3205 C.ar    1  UNL1        0.1037
     30 C           6.4159   -0.7658   17.5975 C.ar    1  UNL1        0.0414
     31 C           6.1521    0.6791   17.2934 C.ar    1  UNL1        0.1022
     32 N           4.8570    1.3094   17.7122 N.ar    1  UNL1       -0.2247
     33 C           3.8257    0.4948   18.4351 C.ar    1  UNL1        0.1709
     34 H          -0.0432    0.2885   20.3043 H       1  UNL1        0.1438
     35 H           0.2567   -1.3542   20.6501 H       1  UNL1        0.1438
     36 C          -5.6666    4.7553   22.3275 C.1     1  UNL1       -0.0595
     37 C          -5.7475    5.0000   23.8052 C.1     1  UNL1       -0.0566
     38 C          -5.8284    5.2446   25.2829 C.ar    1  UNL1        0.0815
     39 C          -4.8152    4.8191   26.3039 C.ar    1  UNL1        0.1299
     40 N          -5.2972    5.2692   27.6511 N.ar    1  UNL1       -0.1669
     41 N          -6.6084    5.9730   27.4628 N.ar    1  UNL1       -0.2467
     42 C          -7.4446    6.5846   28.5476 C.3     1  UNL1        0.1538
     43 C          -6.9367    5.9578   25.9992 C.ar    1  UNL1        0.1049
@<TRIPOS>BOND
     1    19    18    1
     2    19    20    1
     3    20    21   am
     4    21    22    2
     5    21    24    1
     6    24    25   ar
     7    25    26    1
     8    25    27   ar
     9    27    28   ar
    10    28    29   ar
    11    29    30   ar
    12    30    31   ar
    13    31    32   ar
    14    32    33   ar
    15    19     1    1
    16     1     2   ar
    17     2     3   ar
    18     3     4   ar
    19     4     5   ar
    20     5     6   ar
    21     6     7   ar
    22     7    36    1
    23    36    37    3
    24    37    38    1
    25    38    39   ar
    26    39    40   ar
    27    40    41   ar
    28    41    42    1
    29    41    43   ar
    30     7     8   ar
    31     8     9   ar
    32     9    10    2
    33     9    11   ar
    34    11    12    1
    35    12    13   ar
    36    13    14   ar
    37    14    15   ar
    38    15    16   ar
    39    16    17   ar
    40    33    24   ar
    41    11     1   ar
    42    17    12   ar
    43    33    28   ar
    44     8     3   ar
    45    43    38   ar
    46    20    23    1
    47    26    34    1
    48    26    35    1
@<TRIPOS>MOLECULE
*****
 43 48 0 0 0
SMALL
GASTEIGER

@<TRIPOS>ATOM
      1 C           1.6922    0.8569   21.0597 C.ar    1  UNL1        0.0620
      2 C           1.9274   -0.2181   20.0404 C.ar    1  UNL1        0.0150
      3 C           2.7978   -1.3928   20.3763 C.ar    1  UNL1        0.0064
      4 C           3.0329   -2.4678   19.3570 C.ar    1  UNL1        0.0002
      5 C           3.9032   -3.6423   19.6930 C.ar    1  UNL1        0.0006
      6 C           4.5384   -3.7419   21.0482 C.ar    1  UNL1        0.0084
      7 C           4.3032   -2.6669   22.0675 C.ar    1  UNL1        0.0465
      8 C           3.4329   -1.4923   21.7315 C.ar    1  UNL1        0.0642
      9 C           3.1977   -0.4172   22.7508 C.ar    1  UNL1        0.2650
     10 O           3.8328   -0.5168   24.1061 O.2     1  UNL1       -0.2666
     11 N           2.3274    0.7573   22.4149 N.ar    1  UNL1       -0.2766
     12 C           2.0922    1.8324   23.4342 C.ar    1  UNL1        0.0666
     13 C           1.0709    1.6314   24.5143 C.ar    1  UNL1        0.0176
     14 C           0.8357    2.7064   25.5335 C.ar    1  UNL1        0.0015
     15 C           1.6218    3.9825   25.4728 C.ar    1  UNL1        0.0001
     16 C           2.6431    4.1835   24.3927 C.ar    1  UNL1        0.0015
     17 C           2.8783    3.1085   23.3734 C.ar    1  UNL1        0.0176
     18 C           1.3633    3.1502   19.8839 C.3     1  UNL1        0.0278
     19 C           0.8219    2.0316   20.7237 C.3     1  UNL1        0.1106
     20 N          -0.5898    2.0874   21.2277 N.am    1  UNL1       -0.2972
     21 C          -1.0823    3.3093   21.9448 C.2     1  UNL1        0.2518
     22 O          -0.1632    4.4754   22.1580 O.2     1  UNL1       -0.2699
     23 H          -1.1931    1.3221   21.0878 H       1  UNL1        0.1500
     24 C          -2.4940    3.3652   22.4488 C.ar    1  UNL1        0.1218
     25 C          -3.7334    3.2077   21.6188 C.ar    1  UNL1        0.1529
     26 N          -3.7788    2.9667   20.1389 N.pl3   1  UNL1       -0.3411
     27 N          -4.9196    3.3336   22.5283 N.ar    1  UNL1       -0.1489
     28 N          -4.4133    3.5688   23.9205 N.ar    1  UNL1       -0.2093
     29 C          -5.1235    3.7678   25.2266 C.ar    1  UNL1        0.1037
     30 C          -4.3347    3.9863   26.4836 C.ar    1  UNL1        0.0414
     31 C          -2.8356    4.0059   26.4344 C.ar    1  UNL1        0.1022
     32 N          -2.1254    3.8069   25.1283 N.ar    1  UNL1       -0.2247
     33 C          -2.9142    3.5884   23.8714 C.ar    1  UNL1        0.1709
     34 H          -2.9416    2.8987   19.6254 H       1  UNL1        0.1438
     35 H          -4.6458    2.8765   19.6812 H       1  UNL1        0.1438
     36 C           4.9384   -2.7664   23.4227 C.1     1  UNL1       -0.0595
     37 C           5.5735   -2.8660   24.7780 C.1     1  UNL1       -0.0566
     38 C           6.2086   -2.9655   26.1332 C.ar    1  UNL1        0.0815
     39 C           6.1402   -1.9310   27.2172 C.ar    1  UNL1        0.1299
     40 N           6.9130   -2.4432   28.3963 N.ar    1  UNL1       -0.1669
     41 N           7.4591   -3.7943   28.0411 N.ar    1  UNL1       -0.2467
     42 C           8.2940   -4.6691   28.9287 C.3     1  UNL1        0.1538
     43 C           7.0238   -4.1171   26.6425 C.ar    1  UNL1        0.1049
@<TRIPOS>BOND
     1    19    18    1
     2    19    20    1
     3    20    21   am
     4    21    22    2
     5    21    24    1
     6    24    25   ar
     7    25    26    1
     8    25    27   ar
     9    27    28   ar
    10    28    29   ar
    11    29    30   ar
    12    30    31   ar
    13    31    32   ar
    14    32    33   ar
    15    19     1    1
    16     1     2   ar
    17     2     3   ar
    18     3     4   ar
    19     4     5   ar
    20     5     6   ar
    21     6     7   ar
    22     7    36    1
    23    36    37    3
    24    37    38    1
    25    38    39   ar
    26    39    40   ar
    27    40    41   ar
    28    41    42    1
    29    41    43   ar
    30     7     8   ar
    31     8     9   ar
    32     9    10    2
    33     9    11   ar
    34    11    12    1
    35    12    13   ar
    36    13    14   ar
    37    14    15   ar
    38    15    16   ar
    39    16    17   ar
    40    33    24   ar
    41    11     1   ar
    42    17    12   ar
    43    33    28   ar
    44     8     3   ar
    45    43    38   ar
    46    20    23    1
    47    26    34    1
    48    26    35    1
@<TRIPOS>MOLECULE
*****
 43 48 0 0 0
SMALL
GASTEIGER

@<TRIPOS>ATOM
      1 C           2.3834    1.0108   22.2839 C.ar    1  UNL1        0.0620
      2 C           2.2753    0.1576   21.0549 C.ar    1  UNL1        0.0150
      3 C           2.9820   -1.1642   20.9950 C.ar    1  UNL1        0.0064
      4 C           2.8740   -2.0173   19.7660 C.ar    1  UNL1        0.0002
      5 C           3.5807   -3.3391   19.7062 C.ar    1  UNL1        0.0006
      6 C           4.3954   -3.8076   20.8752 C.ar    1  UNL1        0.0084
      7 C           4.5034   -2.9544   22.1042 C.ar    1  UNL1        0.0465
      8 C           3.7968   -1.6327   22.1641 C.ar    1  UNL1        0.0642
      9 C           3.9048   -0.7794   23.3931 C.ar    1  UNL1        0.2650
     10 O           4.7195   -1.2480   24.5621 O.2     1  UNL1       -0.2666
     11 N           3.1981    0.5423   23.4529 N.ar    1  UNL1       -0.2766
     12 C           3.3061    1.3955   24.6819 C.ar    1  UNL1        0.0666
     13 C           2.4006    1.1446   25.8511 C.ar    1  UNL1        0.0176
     14 C           2.5085    1.9978   27.0801 C.ar    1  UNL1        0.0015
     15 C           3.5221    3.1019   27.1398 C.ar    1  UNL1        0.0001
     16 C           4.4277    3.3528   25.9707 C.ar    1  UNL1        0.0015
     17 C           4.3197    2.4996   24.7417 C.ar    1  UNL1        0.0176
     18 C           2.3351    3.5609   21.7891 C.3     1  UNL1        0.0278
     19 C           1.6767    2.3326   22.3438 C.3     1  UNL1        0.1106
     20 N           0.3116    2.4260   22.9586 N.am    1  UNL1       -0.2972
     21 C           0.0642    3.3728   24.0953 C.2     1  UNL1        0.2518
     22 O           1.1819    4.2262   24.6174 O.2     1  UNL1       -0.2699
     23 H          -0.4219    1.8659   22.6159 H       1  UNL1        0.1500
     24 C          -1.3008    3.4662   24.7101 C.ar    1  UNL1        0.1218
     25 C          -1.6039    3.5401   26.1773 C.ar    1  UNL1        0.1529
     26 N          -0.5951    3.5336   27.2874 N.pl3   1  UNL1       -0.3411
     27 N          -3.0929    3.6217   26.3396 N.ar    1  UNL1       -0.1489
     28 N          -3.7101    3.5982   24.9726 N.ar    1  UNL1       -0.2093
     29 C          -5.1375    3.6519   24.5148 C.ar    1  UNL1        0.1037
     30 C          -5.4573    3.6095   23.0499 C.ar    1  UNL1        0.0414
     31 C          -4.3498    3.5134   22.0429 C.ar    1  UNL1        0.1022
     32 N          -2.9224    3.4597   22.5007 N.ar    1  UNL1       -0.2247
     33 C          -2.6025    3.5021   23.9656 C.ar    1  UNL1        0.1709
     34 H           0.3655    3.4768   27.0793 H       1  UNL1        0.1438
     35 H          -0.8936    3.5861   28.2241 H       1  UNL1        0.1438
     36 C           5.3182   -3.4230   23.2732 C.1     1  UNL1       -0.0595
     37 C           6.1329   -3.8915   24.4423 C.1     1  UNL1       -0.0566
     38 C           6.9476   -4.3600   25.6113 C.ar    1  UNL1        0.0815
     39 C           7.9998   -3.5663   26.3275 C.ar    1  UNL1        0.1299
     40 N           8.5557   -4.4203   27.4283 N.ar    1  UNL1       -0.1669
     41 N           7.8470   -5.7418   27.3925 N.ar    1  UNL1       -0.2467
     42 C           8.0896   -6.8977   28.3172 C.3     1  UNL1        0.1538
     43 C           6.8532   -5.7046   26.2696 C.ar    1  UNL1        0.1049
@<TRIPOS>BOND
     1    19    18    1
     2    19    20    1
     3    20    21   am
     4    21    22    2
     5    21    24    1
     6    24    25   ar
     7    25    26    1
     8    25    27   ar
     9    27    28   ar
    10    28    29   ar
    11    29    30   ar
    12    30    31   ar
    13    31    32   ar
    14    32    33   ar
    15    19     1    1
    16     1     2   ar
    17     2     3   ar
    18     3     4   ar
    19     4     5   ar
    20     5     6   ar
    21     6     7   ar
    22     7    36    1
    23    36    37    3
    24    37    38    1
    25    38    39   ar
    26    39    40   ar
    27    40    41   ar
    28    41    42    1
    29    41    43   ar
    30     7     8   ar
    31     8     9   ar
    32     9    10    2
    33     9    11   ar
    34    11    12    1
    35    12    13   ar
    36    13    14   ar
    37    14    15   ar
    38    15    16   ar
    39    16    17   ar
    40    33    24   ar
    41    11     1   ar
    42    17    12   ar
    43    33    28   ar
    44     8     3   ar
    45    43    38   ar
    46    20    23    1
    47    26    34    1
    48    26    35    1
@<TRIPOS>MOLECULE
*****
 43 48 0 0 0
SMALL
GASTEIGER

@<TRIPOS>ATOM
      1 C           1.3699    2.9551   25.1480 C.ar    1  UNL1        0.0620
      2 C           1.6129    2.4225   26.5290 C.ar    1  UNL1        0.0150
      3 C           2.3501    1.1294   26.7153 C.ar    1  UNL1        0.0064
      4 C           2.5931    0.5969   28.0964 C.ar    1  UNL1        0.0002
      5 C           3.3302   -0.6961   28.2826 C.ar    1  UNL1        0.0006
      6 C           3.8243   -1.4566   27.0878 C.ar    1  UNL1        0.0084
      7 C           3.5812   -0.9241   25.7068 C.ar    1  UNL1        0.0465
      8 C           2.8441    0.3689   25.5205 C.ar    1  UNL1        0.0642
      9 C           2.6011    0.9016   24.1394 C.ar    1  UNL1        0.2650
     10 O           3.0951    0.1411   22.9446 O.2     1  UNL1       -0.2666
     11 N           1.8640    2.1946   23.9532 N.ar    1  UNL1       -0.2766
     12 C           1.6209    2.7272   22.5721 C.ar    1  UNL1        0.0666
     13 C           2.5535    3.7455   21.9861 C.ar    1  UNL1        0.0176
     14 C           2.3104    4.2781   20.6051 C.ar    1  UNL1        0.0015
     15 C           1.1349    3.7924   19.8101 C.ar    1  UNL1        0.0001
     16 C           0.2023    2.7741   20.3961 C.ar    1  UNL1        0.0015
     17 C           0.4454    2.2415   21.7771 C.ar    1  UNL1        0.0176
     18 C           1.3155    5.5502   25.2590 C.3     1  UNL1        0.0278
     19 C           0.6328    4.2482   24.9617 C.3     1  UNL1        0.1106
     20 N          -0.7871    4.2391   24.4781 N.am    1  UNL1       -0.2972
     21 C          -1.9081    4.0078   25.4475 C.2     1  UNL1        0.2518
     22 O          -1.6092    3.7856   26.9005 O.2     1  UNL1       -0.2699
     23 H          -0.9832    4.3850   23.5245 H       1  UNL1        0.1500
     24 C          -3.3280    3.9987   24.9639 C.ar    1  UNL1        0.1218
     25 C          -4.5505    4.1750   25.8151 C.ar    1  UNL1        0.1529
     26 N          -4.5677    4.3913   27.2993 N.pl3   1  UNL1       -0.3411
     27 N          -5.7527    4.0970   24.9215 N.ar    1  UNL1       -0.1489
     28 N          -5.2733    3.8726   23.5180 N.ar    1  UNL1       -0.2093
     29 C          -6.0076    3.7156   22.2195 C.ar    1  UNL1        0.1037
     30 C          -5.2434    3.4980   20.9473 C.ar    1  UNL1        0.0414
     31 C          -3.7448    3.4372   20.9735 C.ar    1  UNL1        0.1022
     32 N          -3.0105    3.5942   22.2720 N.ar    1  UNL1       -0.2247
     33 C          -3.7747    3.8118   23.5443 C.ar    1  UNL1        0.1709
     34 H          -3.7216    4.4277   27.8013 H       1  UNL1        0.1438
     35 H          -5.4251    4.4968   27.7715 H       1  UNL1        0.1438
     36 C           4.0753   -1.6846   24.5120 C.1     1  UNL1       -0.0595
     37 C           4.5694   -2.4451   23.3171 C.1     1  UNL1       -0.0566
     38 C           5.0634   -3.2056   22.1223 C.ar    1  UNL1        0.0815
     39 C           6.4659   -3.6909   21.9043 C.ar    1  UNL1        0.1299
     40 N           6.5110   -4.3995   20.5830 N.ar    1  UNL1       -0.1669
     41 N           5.1364   -4.3522   19.9844 N.ar    1  UNL1       -0.2467
     42 C           4.7281   -4.9396   18.6660 C.3     1  UNL1        0.1538
     43 C           4.2418   -3.6142   20.9358 C.ar    1  UNL1        0.1049
@<TRIPOS>BOND
     1    19    18    1
     2    19    20    1
     3    20    21   am
     4    21    22    2
     5    21    24    1
     6    24    25   ar
     7    25    26    1
     8    25    27   ar
     9    27    28   ar
    10    28    29   ar
    11    29    30   ar
    12    30    31   ar
    13    31    32   ar
    14    32    33   ar
    15    19     1    1
    16     1     2   ar
    17     2     3   ar
    18     3     4   ar
    19     4     5   ar
    20     5     6   ar
    21     6     7   ar
    22     7    36    1
    23    36    37    3
    24    37    38    1
    25    38    39   ar
    26    39    40   ar
    27    40    41   ar
    28    41    42    1
    29    41    43   ar
    30     7     8   ar
    31     8     9   ar
    32     9    10    2
    33     9    11   ar
    34    11    12    1
    35    12    13   ar
    36    13    14   ar
    37    14    15   ar
    38    15    16   ar
    39    16    17   ar
    40    33    24   ar
    41    11     1   ar
    42    17    12   ar
    43    33    28   ar
    44     8     3   ar
    45    43    38   ar
    46    20    23    1
    47    26    34    1
    48    26    35    1
@<TRIPOS>MOLECULE
*****
 43 48 0 0 0
SMALL
GASTEIGER

@<TRIPOS>ATOM
      1 C           2.0767    1.6660   22.7138 C.ar    1  UNL1        0.0620
      2 C           1.9164    0.9578   21.4013 C.ar    1  UNL1        0.0150
      3 C           2.5943   -0.3607   21.1727 C.ar    1  UNL1        0.0064
      4 C           2.4340   -1.0688   19.8602 C.ar    1  UNL1        0.0002
      5 C           3.1120   -2.3872   19.6316 C.ar    1  UNL1        0.0006
      6 C           3.9502   -2.9974   20.7156 C.ar    1  UNL1        0.0084
      7 C           4.1105   -2.2892   22.0282 C.ar    1  UNL1        0.0465
      8 C           3.4325   -0.9709   22.2567 C.ar    1  UNL1        0.0642
      9 C           3.5928   -0.2626   23.5693 C.ar    1  UNL1        0.2650
     10 O           4.4310   -0.8728   24.6533 O.2     1  UNL1       -0.2666
     11 N           2.9149    1.0557   23.7978 N.ar    1  UNL1       -0.2766
     12 C           3.0752    1.7640   25.1104 C.ar    1  UNL1        0.0666
     13 C           4.2544    2.6625   25.3386 C.ar    1  UNL1        0.0176
     14 C           4.4147    3.3707   26.6511 C.ar    1  UNL1        0.0015
     15 C           3.3958    3.1804   27.7353 C.ar    1  UNL1        0.0001
     16 C           2.2166    2.2819   27.5071 C.ar    1  UNL1        0.0015
     17 C           2.0563    1.5737   26.1946 C.ar    1  UNL1        0.0176
     18 C           2.1578    4.2626   22.7425 C.3     1  UNL1        0.0278
     19 C           1.3988    2.9844   22.9424 C.3     1  UNL1        0.1106
     20 N          -0.0382    3.0245   23.3708 N.am    1  UNL1       -0.2972
     21 C          -1.0959    3.4739   22.4069 C.2     1  UNL1        0.2518
     22 O          -0.7167    3.8832   21.0145 O.2     1  UNL1       -0.2699
     23 H          -0.2871    2.7559   24.2847 H       1  UNL1        0.1500
     24 C          -2.5329    3.5140   22.8353 C.ar    1  UNL1        0.1218
     25 C          -3.7210    3.2341   21.9636 C.ar    1  UNL1        0.1529
     26 N          -3.6808    2.8648   20.5103 N.pl3   1  UNL1       -0.3411
     27 N          -4.9565    3.3882   22.8002 N.ar    1  UNL1       -0.1489
     28 N          -4.5319    3.7634   24.1891 N.ar    1  UNL1       -0.2093
     29 C          -5.3157    4.0443   25.4368 C.ar    1  UNL1        0.1037
     30 C          -4.6016    4.4030   26.7062 C.ar    1  UNL1        0.0414
     31 C          -3.1037    4.4808   26.7279 C.ar    1  UNL1        0.1022
     32 N          -2.3200    4.1999   25.4801 N.ar    1  UNL1       -0.2247
     33 C          -3.0341    3.8412   24.2107 C.ar    1  UNL1        0.1709
     34 H          -2.8162    2.7878   20.0457 H       1  UNL1        0.1438
     35 H          -4.5190    2.6994   20.0210 H       1  UNL1        0.1438
     36 C           4.9487   -2.8995   23.1122 C.1     1  UNL1       -0.0595
     37 C           5.7869   -3.5097   24.1962 C.1     1  UNL1       -0.0566
     38 C           6.6251   -4.1199   25.2802 C.ar    1  UNL1        0.0815
     39 C           6.8047   -3.5771   26.6669 C.ar    1  UNL1        0.1299
     40 N           7.7214   -4.5017   27.4116 N.ar    1  UNL1       -0.1669
     41 N           8.1085   -5.6161   26.4850 N.ar    1  UNL1       -0.2467
     42 C           9.0141   -6.7647   26.8173 C.3     1  UNL1        0.1538
     43 C           7.4309   -5.3800   25.1678 C.ar    1  UNL1        0.1049
@<TRIPOS>BOND
     1    19    18    1
     2    19    20    1
     3    20    21   am
     4    21    22    2
     5    21    24    1
     6    24    25   ar
     7    25    26    1
     8    25    27   ar
     9    27    28   ar
    10    28    29   ar
    11    29    30   ar
    12    30    31   ar
    13    31    32   ar
    14    32    33   ar
    15    19     1    1
    16     1     2   ar
    17     2     3   ar
    18     3     4   ar
    19     4     5   ar
    20     5     6   ar
    21     6     7   ar
    22     7    36    1
    23    36    37    3
    24    37    38    1
    25    38    39   ar
    26    39    40   ar
    27    40    41   ar
    28    41    42    1
    29    41    43   ar
    30     7     8   ar
    31     8     9   ar
    32     9    10    2
    33     9    11   ar
    34    11    12    1
    35    12    13   ar
    36    13    14   ar
    37    14    15   ar
    38    15    16   ar
    39    16    17   ar
    40    33    24   ar
    41    11     1   ar
    42    17    12   ar
    43    33    28   ar
    44     8     3   ar
    45    43    38   ar
    46    20    23    1
    47    26    34    1
    48    26    35    1
@<TRIPOS>MOLECULE
*****
 43 48 0 0 0
SMALL
GASTEIGER

@<TRIPOS>ATOM
      1 C           7.5355   -2.3188   22.0755 C.ar    1  UNL1        0.0620
      2 C           7.9952   -3.6673   21.6065 C.ar    1  UNL1        0.0150
      3 C           8.1638   -4.7865   22.5909 C.ar    1  UNL1        0.0064
      4 C           8.6234   -6.1351   22.1218 C.ar    1  UNL1        0.0002
      5 C           8.7920   -7.2542   23.1063 C.ar    1  UNL1        0.0006
      6 C           8.5009   -7.0247   24.5597 C.ar    1  UNL1        0.0084
      7 C           8.0412   -5.6762   25.0288 C.ar    1  UNL1        0.0465
      8 C           7.8727   -4.5571   24.0444 C.ar    1  UNL1        0.0642
      9 C           7.4130   -3.2084   24.5134 C.ar    1  UNL1        0.2650
     10 O           7.1219   -2.9790   25.9669 O.2     1  UNL1       -0.2666
     11 N           7.2444   -2.0893   23.5290 N.ar    1  UNL1       -0.2766
     12 C           6.7847   -0.7407   23.9980 C.ar    1  UNL1        0.0666
     13 C           5.3310   -0.4994   24.2781 C.ar    1  UNL1        0.0176
     14 C           4.8713    0.8492   24.7471 C.ar    1  UNL1        0.0015
     15 C           5.8653    1.9564   24.9361 C.ar    1  UNL1        0.0001
     16 C           7.3190    1.7152   24.6560 C.ar    1  UNL1        0.0015
     17 C           7.7788    0.3666   24.1870 C.ar    1  UNL1        0.0176
     18 C           8.5677   -0.6115   20.4112 C.3     1  UNL1        0.0278
     19 C           7.3669   -1.1996   21.0911 C.3     1  UNL1        0.1106
     20 N           5.9975   -0.6685   20.7865 N.am    1  UNL1       -0.2972
     21 C           5.2569   -1.1542   19.5759 C.2     1  UNL1        0.2518
     22 O           5.8857   -2.1709   18.6699 O.2     1  UNL1       -0.2699
     23 H           5.5848   -0.0012   21.3812 H       1  UNL1        0.1500
     24 C           3.8875   -0.6232   19.2714 C.ar    1  UNL1        0.1218
     25 C           3.2561   -0.5398   17.9133 C.ar    1  UNL1        0.1529
     26 N           3.8832   -0.9727   16.6213 N.pl3   1  UNL1       -0.3411
     27 N           1.8874    0.0526   18.0740 N.ar    1  UNL1       -0.1489
     28 N           1.6729    0.3353   19.5314 N.ar    1  UNL1       -0.2093
     29 C           0.5117    0.9191   20.2803 C.ar    1  UNL1        0.1037
     30 C           0.5867    1.0852   21.7692 C.ar    1  UNL1        0.0414
     31 C           1.8228    0.6675   22.5092 C.ar    1  UNL1        0.1022
     32 N           2.9840    0.0838   21.7603 N.ar    1  UNL1       -0.2247
     33 C           2.9090   -0.0824   20.2714 C.ar    1  UNL1        0.1709
     34 H           4.7917   -1.3522   16.6179 H       1  UNL1        0.1438
     35 H           3.3865   -0.8774   15.7767 H       1  UNL1        0.1438
     36 C           7.7501   -5.4467   26.4823 C.1     1  UNL1       -0.0595
     37 C           7.4590   -5.2173   27.9358 C.1     1  UNL1       -0.0566
     38 C           7.1679   -4.9878   29.3893 C.ar    1  UNL1        0.0815
     39 C           7.3345   -5.9920   30.4910 C.ar    1  UNL1        0.1299
     40 N           6.9286   -5.3387   31.7789 N.ar    1  UNL1       -0.1669
     41 N           6.5113   -3.9308   31.4731 N.ar    1  UNL1       -0.2467
     42 C           6.0305   -2.9176   32.4691 C.3     1  UNL1        0.1538
     43 C           6.6592   -3.7139   29.9962 C.ar    1  UNL1        0.1049
@<TRIPOS>BOND
     1    19    18    1
     2    19    20    1
     3    20    21   am
     4    21    22    2
     5    21    24    1
     6    24    25   ar
     7    25    26    1
     8    25    27   ar
     9    27    28   ar
    10    28    29   ar
    11    29    30   ar
    12    30    31   ar
    13    31    32   ar
    14    32    33   ar
    15    19     1    1
    16     1     2   ar
    17     2     3   ar
    18     3     4   ar
    19     4     5   ar
    20     5     6   ar
    21     6     7   ar
    22     7    36    1
    23    36    37    3
    24    37    38    1
    25    38    39   ar
    26    39    40   ar
    27    40    41   ar
    28    41    42    1
    29    41    43   ar
    30     7     8   ar
    31     8     9   ar
    32     9    10    2
    33     9    11   ar
    34    11    12    1
    35    12    13   ar
    36    13    14   ar
    37    14    15   ar
    38    15    16   ar
    39    16    17   ar
    40    33    24   ar
    41    11     1   ar
    42    17    12   ar
    43    33    28   ar
    44     8     3   ar
    45    43    38   ar
    46    20    23    1
    47    26    34    1
    48    26    35    1
