@<TRIPOS>MOLECULE
*****
 44 49 0 0 0
SMALL
GASTEIGER

@<TRIPOS>ATOM
      1 C          -3.2577    4.9351   24.3814 C.ar    1  UNL1        0.1348
      2 C          -2.7657    5.4567   25.6989 C.ar    1  UNL1        0.0346
      3 C          -1.4566    4.9785   26.2533 C.ar    1  UNL1        0.0065
      4 C          -0.6394    3.9786   25.4903 C.ar    1  UNL1        0.0432
      5 C          -1.1314    3.4568   24.1727 C.ar    1  UNL1        0.1256
      6 N          -2.4406    3.9351   23.6183 N.ar    1  UNL1       -0.2222
      7 C           0.6698    3.5003   26.0447 C.ar    1  UNL1        0.0850
      8 C           2.0288    3.9969   25.6492 C.ar    1  UNL1        0.0991
      9 N           3.0488    3.2450   26.4520 N.ar    1  UNL1       -0.2265
     10 C           2.3200    2.2837   27.3436 C.ar    1  UNL1        0.1474
     11 C           2.8053    1.2851   28.3522 C.ar    1  UNL1        0.0332
     12 C           1.8203    0.4443   29.1090 C.ar    1  UNL1       -0.0174
     13 C           2.3057   -0.5543   30.1177 C.3     1  UNL1        0.0312
     14 C           0.3501    0.6021   28.8574 C.ar    1  UNL1        0.0149
     15 C          -0.1352    1.6007   27.8488 C.ar    1  UNL1        0.0811
     16 N           0.8497    2.4415   27.0919 N.ar    1  UNL1       -0.2888
     17 C           2.3173    5.0589   24.6299 C.ar    1  UNL1        0.0222
     18 C           2.7302    4.6726   23.2405 C.ar    1  UNL1        0.0222
     19 C           3.0186    5.7346   22.2213 C.ar    1  UNL1        0.0989
     20 N           2.8942    7.1828   22.5914 N.ar    1  UNL1       -0.2423
     21 C           2.4813    7.5691   23.9807 C.ar    1  UNL1        0.0989
     22 C           2.1929    6.5071   25.0000 C.ar    1  UNL1        0.0222
     23 C          -5.8440    4.7382   24.2311 C.2     1  UNL1        0.2414
     24 O          -5.8119    3.5848   25.1895 O.2     1  UNL1       -0.2733
     25 N          -4.5669    5.4133   23.8270 N.am    1  UNL1       -0.2682
     26 H          -4.5880    6.1704   23.1980 H       1  UNL1        0.1563
     27 C          -7.1531    5.2165   23.6766 C.3     1  UNL1        0.1319
     28 C          -7.9541    6.2417   24.4233 C.3     1  UNL1        0.0270
     29 C          -6.9485    4.9943   21.0962 C.3     1  UNL1        0.0862
     30 N          -7.6612    4.6697   22.3755 N.3     1  UNL1       -0.2902
     31 H          -7.6610    3.6535   22.4631 H       1  UNL1        0.1237
     32 C          -0.3142    2.4569   23.4097 C.1     1  UNL1       -0.0404
     33 C           0.5029    1.4569   22.6465 C.1     1  UNL1       -0.0583
     34 C           1.3201    0.4569   21.8834 C.ar    1  UNL1        0.0420
     35 C           2.5394   -0.1507   22.5112 C.ar    1  UNL1        0.0083
     36 C           3.3566   -1.1507   21.7481 C.ar    1  UNL1        0.0022
     37 C           2.9544   -1.5430   20.3572 C.ar    1  UNL1        0.0210
     38 C           1.7351   -0.9353   19.7295 C.ar    1  UNL1        0.0022
     39 C           0.9179    0.0646   20.4926 C.ar    1  UNL1        0.0083
     40 C           3.7715   -2.5429   19.5941 C.ar    1  UNL1        0.1231
     41 C           3.6495   -4.0351   19.6857 C.ar    1  UNL1        0.0658
     42 C           4.6568   -4.6407   18.7537 C.ar    1  UNL1        0.2138
     43 O           5.4013   -3.5228   18.0860 O.2     1  UNL1       -0.3502
     44 N           4.8542   -2.2262   18.6055 N.ar    1  UNL1       -0.0768
@<TRIPOS>BOND
     1    29    30    1
     2    30    27    1
     3    27    28    1
     4    27    23    1
     5    23    24    2
     6    23    25   am
     7    25     1    1
     8     1     2   ar
     9     2     3   ar
    10     3     4   ar
    11     4     7    1
    12     7     8   ar
    13     8    17    1
    14    17    18   ar
    15    18    19   ar
    16    19    20   ar
    17    20    21   ar
    18    21    22   ar
    19     8     9   ar
    20     9    10   ar
    21    10    11   ar
    22    11    12   ar
    23    12    13    1
    24    12    14   ar
    25    14    15   ar
    26    15    16   ar
    27     4     5   ar
    28     5    32    1
    29    32    33    3
    30    33    34    1
    31    34    35   ar
    32    35    36   ar
    33    36    37   ar
    34    37    40    1
    35    40    41   ar
    36    41    42   ar
    37    42    43   ar
    38    43    44   ar
    39    37    38   ar
    40    38    39   ar
    41     5     6   ar
    42     6     1   ar
    43    16     7   ar
    44    39    34   ar
    45    22    17   ar
    46    16    10   ar
    47    44    40   ar
    48    30    31    1
    49    25    26    1
@<TRIPOS>MOLECULE
*****
 44 49 0 0 0
SMALL
GASTEIGER

@<TRIPOS>ATOM
      1 C          -2.3953    4.9945   24.9761 C.ar    1  UNL1        0.1348
      2 C          -1.7101    5.7597   26.0692 C.ar    1  UNL1        0.0346
      3 C          -0.2978    5.4247   26.4477 C.ar    1  UNL1        0.0065
      4 C           0.4292    4.3244   25.7331 C.ar    1  UNL1        0.0432
      5 C          -0.2560    3.5591   24.6400 C.ar    1  UNL1        0.1256
      6 N          -1.6683    3.8942   24.2615 N.ar    1  UNL1       -0.2222
      7 C           1.8415    3.9893   26.1116 C.ar    1  UNL1        0.0850
      8 C           2.2626    3.0335   27.1882 C.ar    1  UNL1        0.0991
      9 N           3.7620    3.0047   27.2219 N.ar    1  UNL1       -0.2265
     10 C           4.2674    3.9427   26.1662 C.ar    1  UNL1        0.1474
     11 C           5.6552    4.3214   25.7411 C.ar    1  UNL1        0.0332
     12 C           5.8560    5.3086   24.6297 C.ar    1  UNL1       -0.0174
     13 C           7.2439    5.6873   24.2046 C.3     1  UNL1        0.0312
     14 C           4.6691    5.9172   23.9435 C.ar    1  UNL1        0.0149
     15 C           3.2814    5.5386   24.3686 C.ar    1  UNL1        0.0811
     16 N           3.0805    4.5513   25.4800 N.ar    1  UNL1       -0.2888
     17 C           1.3454    2.2449   28.0752 C.ar    1  UNL1        0.0222
     18 C           0.5357    1.1184   27.5048 C.ar    1  UNL1        0.0222
     19 C          -0.3815    0.3299   28.3919 C.ar    1  UNL1        0.0989
     20 N          -0.4889    0.6678   29.8494 N.ar    1  UNL1       -0.2423
     21 C           0.3208    1.7942   30.4197 C.ar    1  UNL1        0.0989
     22 C           1.2380    2.5828   29.5327 C.ar    1  UNL1        0.0222
     23 C          -4.9515    4.6963   25.3328 C.2     1  UNL1        0.2414
     24 O          -4.6831    3.7279   26.4465 O.2     1  UNL1       -0.2733
     25 N          -3.8076    5.3296   24.5977 N.am    1  UNL1       -0.2682
     26 H          -3.9838    5.9651   23.8667 H       1  UNL1        0.1563
     27 C          -6.3637    5.0314   24.9543 C.3     1  UNL1        0.1319
     28 C          -7.0440    6.2176   25.5708 C.3     1  UNL1        0.0270
     29 C          -6.6044    4.0899   22.5449 C.3     1  UNL1        0.0862
     30 N          -7.0956    4.1804   23.9593 N.3     1  UNL1       -0.2902
     31 H          -7.0998    3.2305   24.3309 H       1  UNL1        0.1237
     32 C           0.4710    2.4588   23.9254 C.1     1  UNL1       -0.0404
     33 C           1.1981    1.3583   23.2108 C.1     1  UNL1       -0.0583
     34 C           1.9251    0.2580   22.4962 C.ar    1  UNL1        0.0420
     35 C           2.9714   -0.5404   23.2158 C.ar    1  UNL1        0.0083
     36 C           3.6985   -1.6407   22.5012 C.ar    1  UNL1        0.0022
     37 C           3.3791   -1.9426   21.0669 C.ar    1  UNL1        0.0210
     38 C           2.3328   -1.1442   20.3473 C.ar    1  UNL1        0.0022
     39 C           1.6058   -0.0439   21.0619 C.ar    1  UNL1        0.0083
     40 C           4.1062   -3.0429   20.3523 C.ar    1  UNL1        0.1231
     41 C           3.6191   -3.7791   19.1396 C.ar    1  UNL1        0.0658
     42 C           4.6598   -4.7914   18.7628 C.ar    1  UNL1        0.2138
     43 O           5.7901   -4.6809   19.7425 O.2     1  UNL1       -0.3502
     44 N           5.4480   -3.6003   20.7250 N.ar    1  UNL1       -0.0768
@<TRIPOS>BOND
     1    29    30    1
     2    30    27    1
     3    27    28    1
     4    27    23    1
     5    23    24    2
     6    23    25   am
     7    25     1    1
     8     1     2   ar
     9     2     3   ar
    10     3     4   ar
    11     4     7    1
    12     7     8   ar
    13     8    17    1
    14    17    18   ar
    15    18    19   ar
    16    19    20   ar
    17    20    21   ar
    18    21    22   ar
    19     8     9   ar
    20     9    10   ar
    21    10    11   ar
    22    11    12   ar
    23    12    13    1
    24    12    14   ar
    25    14    15   ar
    26    15    16   ar
    27     4     5   ar
    28     5    32    1
    29    32    33    3
    30    33    34    1
    31    34    35   ar
    32    35    36   ar
    33    36    37   ar
    34    37    40    1
    35    40    41   ar
    36    41    42   ar
    37    42    43   ar
    38    43    44   ar
    39    37    38   ar
    40    38    39   ar
    41     5     6   ar
    42     6     1   ar
    43    16     7   ar
    44    39    34   ar
    45    22    17   ar
    46    16    10   ar
    47    44    40   ar
    48    30    31    1
    49    25    26    1
@<TRIPOS>MOLECULE
*****
 44 49 0 0 0
SMALL
GASTEIGER

@<TRIPOS>ATOM
      1 C           0.8377    0.3967   19.7103 C.ar    1  UNL1        0.1348
      2 C           1.0331    1.1395   18.4218 C.ar    1  UNL1        0.0346
      3 C           0.4150    2.4934   18.2354 C.ar    1  UNL1        0.0065
      4 C          -0.3986    3.1047   19.3374 C.ar    1  UNL1        0.0432
      5 C          -0.5940    2.3619   20.6259 C.ar    1  UNL1        0.1256
      6 N           0.0241    1.0080   20.8123 N.ar    1  UNL1       -0.2222
      7 C          -1.0167    4.4586   19.1509 C.ar    1  UNL1        0.0850
      8 C          -0.4292    5.7649   19.5966 C.ar    1  UNL1        0.0991
      9 N          -1.3802    6.8576   19.2072 N.ar    1  UNL1       -0.2265
     10 C          -2.5554    6.2267   18.5210 C.ar    1  UNL1        0.1474
     11 C          -3.8010    6.8106   17.9233 C.ar    1  UNL1        0.0332
     12 C          -4.8220    5.9120   17.2908 C.ar    1  UNL1       -0.0174
     13 C          -6.0677    6.4961   16.6931 C.3     1  UNL1        0.0312
     14 C          -4.5973    4.4293   17.2560 C.ar    1  UNL1        0.0149
     15 C          -3.3517    3.8453   17.8537 C.ar    1  UNL1        0.0811
     16 N          -2.3307    4.7440   18.4862 N.ar    1  UNL1       -0.2888
     17 C           0.8794    5.9465   20.3068 C.ar    1  UNL1        0.0222
     18 C           2.1354    6.1732   19.5187 C.ar    1  UNL1        0.0222
     19 C           3.4439    6.3548   20.2290 C.ar    1  UNL1        0.0989
     20 N           3.4966    6.3098   21.7274 N.ar    1  UNL1       -0.2423
     21 C           2.2407    6.0831   22.5154 C.ar    1  UNL1        0.0989
     22 C           0.9320    5.9015   21.8052 C.ar    1  UNL1        0.0222
     23 C           2.9474   -1.1117   19.8638 C.2     1  UNL1        0.2414
     24 O           3.8210    0.0878   19.6444 O.2     1  UNL1       -0.2733
     25 N           1.4558   -0.9572   19.8967 N.am    1  UNL1       -0.2682
     26 H           0.8825   -1.7445   20.0406 H       1  UNL1        0.1563
     27 C           3.5655   -2.4657   20.0502 C.3     1  UNL1        0.1319
     28 C           4.2810   -2.7941   21.3270 C.3     1  UNL1        0.0270
     29 C           4.5003   -4.5744   18.8547 C.3     1  UNL1        0.0862
     30 N           3.4680   -3.4912   18.9599 N.3     1  UNL1       -0.2902
     31 H           2.5658   -3.9539   19.0706 H       1  UNL1        0.1237
     32 C          -1.4076    2.9731   21.7279 C.1     1  UNL1       -0.0404
     33 C          -2.2212    3.5844   22.8300 C.1     1  UNL1       -0.0583
     34 C          -3.0348    4.1956   23.9321 C.ar    1  UNL1        0.0420
     35 C          -4.3409    3.5760   24.3322 C.ar    1  UNL1        0.0083
     36 C          -5.1545    4.1873   25.4343 C.ar    1  UNL1        0.0022
     37 C          -4.6618    5.4180   26.1361 C.ar    1  UNL1        0.0210
     38 C          -3.3557    6.0376   25.7359 C.ar    1  UNL1        0.0022
     39 C          -2.5421    5.4264   24.6339 C.ar    1  UNL1        0.0083
     40 C          -5.4754    6.0293   27.2381 C.ar    1  UNL1        0.1231
     41 C          -6.9721    6.1156   27.2854 C.ar    1  UNL1        0.0658
     42 C          -7.3568    6.8011   28.5629 C.ar    1  UNL1        0.2138
     43 O          -6.0979    7.1386   29.3052 O.2     1  UNL1       -0.3502
     44 N          -4.9350    6.6615   28.4865 N.ar    1  UNL1       -0.0768
@<TRIPOS>BOND
     1    29    30    1
     2    30    27    1
     3    27    28    1
     4    27    23    1
     5    23    24    2
     6    23    25   am
     7    25     1    1
     8     1     2   ar
     9     2     3   ar
    10     3     4   ar
    11     4     7    1
    12     7     8   ar
    13     8    17    1
    14    17    18   ar
    15    18    19   ar
    16    19    20   ar
    17    20    21   ar
    18    21    22   ar
    19     8     9   ar
    20     9    10   ar
    21    10    11   ar
    22    11    12   ar
    23    12    13    1
    24    12    14   ar
    25    14    15   ar
    26    15    16   ar
    27     4     5   ar
    28     5    32    1
    29    32    33    3
    30    33    34    1
    31    34    35   ar
    32    35    36   ar
    33    36    37   ar
    34    37    40    1
    35    40    41   ar
    36    41    42   ar
    37    42    43   ar
    38    43    44   ar
    39    37    38   ar
    40    38    39   ar
    41     5     6   ar
    42     6     1   ar
    43    16     7   ar
    44    39    34   ar
    45    22    17   ar
    46    16    10   ar
    47    44    40   ar
    48    30    31    1
    49    25    26    1
@<TRIPOS>MOLECULE
*****
 44 49 0 0 0
SMALL
GASTEIGER

@<TRIPOS>ATOM
      1 C          -3.3535    6.0178   23.3906 C.ar    1  UNL1        0.1348
      2 C          -3.8916    6.9617   22.3564 C.ar    1  UNL1        0.0346
      3 C          -3.5048    6.7965   20.9166 C.ar    1  UNL1        0.0065
      4 C          -2.5801    5.6874   20.5109 C.ar    1  UNL1        0.0432
      5 C          -2.0420    4.7434   21.5452 C.ar    1  UNL1        0.1256
      6 N          -2.4288    4.9087   22.9850 N.ar    1  UNL1       -0.2222
      7 C          -2.1934    5.5221   19.0711 C.ar    1  UNL1        0.0850
      8 C          -3.1162    5.1553   17.9468 C.ar    1  UNL1        0.0991
      9 N          -2.3091    5.1011   16.6836 N.ar    1  UNL1       -0.2265
     10 C          -0.8875    5.4344   17.0272 C.ar    1  UNL1        0.1474
     11 C           0.3511    5.5347   16.1871 C.ar    1  UNL1        0.0332
     12 C           1.6612    5.8951   16.8225 C.ar    1  UNL1       -0.0174
     13 C           2.8998    5.9953   15.9822 C.3     1  UNL1        0.0312
     14 C           1.7327    6.1553   18.2980 C.ar    1  UNL1        0.0149
     15 C           0.4941    6.0551   19.1381 C.ar    1  UNL1        0.0811
     16 N          -0.8160    5.6946   18.5027 N.ar    1  UNL1       -0.2888
     17 C          -4.5877    4.8893   18.0651 C.ar    1  UNL1        0.0222
     18 C          -5.5755    5.9217   17.6087 C.ar    1  UNL1        0.0222
     19 C          -7.0469    5.6557   17.7269 C.ar    1  UNL1        0.0989
     20 N          -7.5305    4.3573   18.3016 N.ar    1  UNL1       -0.2423
     21 C          -6.5428    3.3250   18.7580 C.ar    1  UNL1        0.0989
     22 C          -5.0713    3.5909   18.6397 C.ar    1  UNL1        0.0222
     23 C          -5.0637    5.6698   25.3153 C.2     1  UNL1        0.2414
     24 O          -6.0004    4.9913   24.3602 O.2     1  UNL1       -0.2733
     25 N          -3.7403    6.1831   24.8305 N.am    1  UNL1       -0.2682
     26 H          -3.1255    6.6285   25.4573 H       1  UNL1        0.1563
     27 C          -5.4504    5.8352   26.7551 C.3     1  UNL1        0.1319
     28 C          -6.8764    6.1234   27.1204 C.3     1  UNL1        0.0270
     29 C          -3.7248    6.9391   28.3530 C.3     1  UNL1        0.0862
     30 N          -4.4111    5.7123   27.8297 N.3     1  UNL1       -0.2902
     31 H          -4.8634    5.2651   28.6271 H       1  UNL1        0.1237
     32 C          -1.1173    3.6342   21.1395 C.1     1  UNL1       -0.0404
     33 C          -0.1925    2.5250   20.7338 C.1     1  UNL1       -0.0583
     34 C           0.7322    1.4158   20.3282 C.ar    1  UNL1        0.0420
     35 C           1.2492    0.4558   21.3583 C.ar    1  UNL1        0.0083
     36 C           2.1739   -0.6533   20.9526 C.ar    1  UNL1        0.0022
     37 C           2.5817   -0.8024   19.5168 C.ar    1  UNL1        0.0210
     38 C           2.0648    0.1576   18.4867 C.ar    1  UNL1        0.0022
     39 C           1.1400    1.2667   18.8923 C.ar    1  UNL1        0.0083
     40 C           3.5065   -1.9116   19.1112 C.ar    1  UNL1        0.1231
     41 C           3.4096   -3.3438   19.5462 C.ar    1  UNL1        0.0658
     42 C           4.5337   -4.1006   18.9032 C.ar    1  UNL1        0.2138
     43 O           5.3254   -3.1362   18.0707 O.2     1  UNL1       -0.3502
     44 N           4.6905   -1.7832   18.1993 N.ar    1  UNL1       -0.0768
@<TRIPOS>BOND
     1    29    30    1
     2    30    27    1
     3    27    28    1
     4    27    23    1
     5    23    24    2
     6    23    25   am
     7    25     1    1
     8     1     2   ar
     9     2     3   ar
    10     3     4   ar
    11     4     7    1
    12     7     8   ar
    13     8    17    1
    14    17    18   ar
    15    18    19   ar
    16    19    20   ar
    17    20    21   ar
    18    21    22   ar
    19     8     9   ar
    20     9    10   ar
    21    10    11   ar
    22    11    12   ar
    23    12    13    1
    24    12    14   ar
    25    14    15   ar
    26    15    16   ar
    27     4     5   ar
    28     5    32    1
    29    32    33    3
    30    33    34    1
    31    34    35   ar
    32    35    36   ar
    33    36    37   ar
    34    37    40    1
    35    40    41   ar
    36    41    42   ar
    37    42    43   ar
    38    43    44   ar
    39    37    38   ar
    40    38    39   ar
    41     5     6   ar
    42     6     1   ar
    43    16     7   ar
    44    39    34   ar
    45    22    17   ar
    46    16    10   ar
    47    44    40   ar
    48    30    31    1
    49    25    26    1
@<TRIPOS>MOLECULE
*****
 44 49 0 0 0
SMALL
GASTEIGER

@<TRIPOS>ATOM
      1 C           6.9367   -2.7915   28.0399 C.ar    1  UNL1        0.1348
      2 C           7.8131   -3.0275   26.8457 C.ar    1  UNL1        0.0346
      3 C           7.4190   -2.4796   25.5061 C.ar    1  UNL1        0.0065
      4 C           6.1486   -1.6956   25.3606 C.ar    1  UNL1        0.0432
      5 C           5.2721   -1.4595   26.5549 C.ar    1  UNL1        0.1256
      6 N           5.6662   -2.0074   27.8945 N.ar    1  UNL1       -0.2222
      7 C           5.7546   -1.1476   24.0210 C.ar    1  UNL1        0.0850
      8 C           5.8406    0.2883   23.5959 C.ar    1  UNL1        0.0991
      9 N           5.3445    0.3840   22.1835 N.ar    1  UNL1       -0.2265
     10 C           4.9519   -0.9928   21.7359 C.ar    1  UNL1        0.1474
     11 C           4.3963   -1.5068   20.4408 C.ar    1  UNL1        0.0332
     12 C           4.0941   -2.9674   20.2815 C.ar    1  UNL1       -0.0174
     13 C           3.5385   -3.4813   18.9863 C.3     1  UNL1        0.0312
     14 C           4.3475   -3.9140   21.4171 C.ar    1  UNL1        0.0149
     15 C           4.9031   -3.4000   22.7121 C.ar    1  UNL1        0.0811
     16 N           5.2053   -1.9394   22.8715 N.ar    1  UNL1       -0.2888
     17 C           6.3358    1.4283   24.4356 C.ar    1  UNL1        0.0222
     18 C           7.7980    1.5505   24.7472 C.ar    1  UNL1        0.0222
     19 C           8.2932    2.6904   25.5869 C.ar    1  UNL1        0.0989
     20 N           7.3262    3.7082   26.1150 N.ar    1  UNL1       -0.2423
     21 C           5.8641    3.5861   25.8035 C.ar    1  UNL1        0.0989
     22 C           5.3688    2.4461   24.9638 C.ar    1  UNL1        0.0222
     23 C           6.9426   -4.7370   29.7618 C.2     1  UNL1        0.2414
     24 O           6.1605   -5.5866   28.8045 O.2     1  UNL1       -0.2733
     25 N           7.3307   -3.3394   29.3795 N.am    1  UNL1       -0.2682
     26 H           7.8441   -2.7818   30.0077 H       1  UNL1        0.1563
     27 C           7.3367   -5.2848   31.1014 C.3     1  UNL1        0.1319
     28 C           8.5294   -6.1865   31.2215 C.3     1  UNL1        0.0270
     29 C           6.0376   -3.5296   32.5088 C.3     1  UNL1        0.0862
     30 N           6.5382   -4.9310   32.3208 N.3     1  UNL1       -0.2902
     31 H           5.7192   -5.5390   32.3232 H       1  UNL1        0.1237
     32 C           4.0016   -0.6754   26.4095 C.1     1  UNL1       -0.0404
     33 C           2.7311    0.1086   26.2641 C.1     1  UNL1       -0.0583
     34 C           1.4606    0.8926   26.1187 C.ar    1  UNL1        0.0420
     35 C           0.5867    1.1330   27.3139 C.ar    1  UNL1        0.0083
     36 C          -0.6838    1.9170   27.1685 C.ar    1  UNL1        0.0022
     37 C          -1.0803    2.4607   25.8278 C.ar    1  UNL1        0.0210
     38 C          -0.2064    2.2203   24.6326 C.ar    1  UNL1        0.0022
     39 C           1.0641    1.4363   24.7780 C.ar    1  UNL1        0.0083
     40 C          -2.3508    3.2447   25.6824 C.ar    1  UNL1        0.1231
     41 C          -3.0301    3.5911   24.3908 C.ar    1  UNL1        0.0658
     42 C          -4.2642    4.3805   24.7132 C.ar    1  UNL1        0.2138
     43 O          -4.3476    4.5220   26.2041 O.2     1  UNL1       -0.3502
     44 N          -3.1650    3.8200   26.8032 N.ar    1  UNL1       -0.0768
@<TRIPOS>BOND
     1    29    30    1
     2    30    27    1
     3    27    28    1
     4    27    23    1
     5    23    24    2
     6    23    25   am
     7    25     1    1
     8     1     2   ar
     9     2     3   ar
    10     3     4   ar
    11     4     7    1
    12     7     8   ar
    13     8    17    1
    14    17    18   ar
    15    18    19   ar
    16    19    20   ar
    17    20    21   ar
    18    21    22   ar
    19     8     9   ar
    20     9    10   ar
    21    10    11   ar
    22    11    12   ar
    23    12    13    1
    24    12    14   ar
    25    14    15   ar
    26    15    16   ar
    27     4     5   ar
    28     5    32    1
    29    32    33    3
    30    33    34    1
    31    34    35   ar
    32    35    36   ar
    33    36    37   ar
    34    37    40    1
    35    40    41   ar
    36    41    42   ar
    37    42    43   ar
    38    43    44   ar
    39    37    38   ar
    40    38    39   ar
    41     5     6   ar
    42     6     1   ar
    43    16     7   ar
    44    39    34   ar
    45    22    17   ar
    46    16    10   ar
    47    44    40   ar
    48    30    31    1
    49    25    26    1
@<TRIPOS>MOLECULE
*****
 44 49 0 0 0
SMALL
GASTEIGER

@<TRIPOS>ATOM
      1 C          -3.0801    4.5734   21.5704 C.ar    1  UNL1        0.1348
      2 C          -2.2872    4.4721   20.3012 C.ar    1  UNL1        0.0346
      3 C          -0.9125    3.8723   20.3215 C.ar    1  UNL1        0.0065
      4 C          -0.3306    3.3738   21.6110 C.ar    1  UNL1        0.0432
      5 C          -1.1236    3.4751   22.8803 C.ar    1  UNL1        0.1256
      6 N          -2.4983    4.0748   22.8600 N.ar    1  UNL1       -0.2222
      7 C           1.0441    2.7740   21.6313 C.ar    1  UNL1        0.0850
      8 C           2.2850    3.4312   22.1588 C.ar    1  UNL1        0.0991
      9 N           3.4271    2.4751   21.9813 N.ar    1  UNL1       -0.2265
     10 C           2.8920    1.2270   21.3441 C.ar    1  UNL1        0.1474
     11 C           3.5556   -0.0538   20.9328 C.ar    1  UNL1        0.0332
     12 C           2.7464   -1.1499   20.3053 C.ar    1  UNL1       -0.0174
     13 C           3.4100   -2.4307   19.8940 C.3     1  UNL1        0.0312
     14 C           1.2736   -0.9652   20.0890 C.ar    1  UNL1        0.0149
     15 C           0.6100    0.3156   20.5002 C.ar    1  UNL1        0.0811
     16 N           1.4192    1.4118   21.1278 N.ar    1  UNL1       -0.2888
     17 C           2.3690    4.8035   22.7586 C.ar    1  UNL1        0.0222
     18 C           2.6084    4.9654   24.2305 C.ar    1  UNL1        0.0222
     19 C           2.6924    6.3377   24.8301 C.ar    1  UNL1        0.0989
     20 N           2.5371    7.5481   23.9579 N.ar    1  UNL1       -0.2423
     21 C           2.2978    7.3862   22.4861 C.ar    1  UNL1        0.0989
     22 C           2.2137    6.0139   21.8864 C.ar    1  UNL1        0.0222
     23 C          -5.6349    4.3590   21.9910 C.2     1  UNL1        0.2414
     24 O          -5.4403    2.9450   22.4523 O.2     1  UNL1       -0.2733
     25 N          -4.4548    5.1731   21.5501 N.am    1  UNL1       -0.2682
     26 H          -4.5826    6.1012   21.2473 H       1  UNL1        0.1563
     27 C          -7.0097    4.9589   21.9707 C.3     1  UNL1        0.1319
     28 C          -7.3553    6.0075   20.9554 C.3     1  UNL1        0.0270
     29 C          -8.1534    5.2038   24.2905 C.3     1  UNL1        0.0862
     30 N          -8.0386    4.5100   22.9655 N.3     1  UNL1       -0.2902
     31 H          -8.9466    4.5954   22.5088 H       1  UNL1        0.1237
     32 C          -0.5418    2.9766   24.1699 C.1     1  UNL1       -0.0404
     33 C           0.0400    2.4781   25.4595 C.1     1  UNL1       -0.0583
     34 C           0.6218    1.9796   26.7491 C.ar    1  UNL1        0.0420
     35 C           2.0981    2.0810   26.9947 C.ar    1  UNL1        0.0083
     36 C           2.6799    1.5825   28.2842 C.ar    1  UNL1        0.0022
     37 C           1.7853    0.9825   29.3282 C.ar    1  UNL1        0.0210
     38 C           0.3090    0.8811   29.0826 C.ar    1  UNL1        0.0022
     39 C          -0.2727    1.3796   27.7931 C.ar    1  UNL1        0.0083
     40 C           2.3671    0.4840   30.6178 C.ar    1  UNL1        0.1231
     41 C           2.8192    1.3341   31.7680 C.ar    1  UNL1        0.0658
     42 C           3.3304    0.4234   32.8446 C.ar    1  UNL1        0.2138
     43 O           3.1943   -0.9895   32.3599 O.2     1  UNL1       -0.3502
     44 N           2.5989   -0.9521   30.9836 N.ar    1  UNL1       -0.0768
@<TRIPOS>BOND
     1    29    30    1
     2    30    27    1
     3    27    28    1
     4    27    23    1
     5    23    24    2
     6    23    25   am
     7    25     1    1
     8     1     2   ar
     9     2     3   ar
    10     3     4   ar
    11     4     7    1
    12     7     8   ar
    13     8    17    1
    14    17    18   ar
    15    18    19   ar
    16    19    20   ar
    17    20    21   ar
    18    21    22   ar
    19     8     9   ar
    20     9    10   ar
    21    10    11   ar
    22    11    12   ar
    23    12    13    1
    24    12    14   ar
    25    14    15   ar
    26    15    16   ar
    27     4     5   ar
    28     5    32    1
    29    32    33    3
    30    33    34    1
    31    34    35   ar
    32    35    36   ar
    33    36    37   ar
    34    37    40    1
    35    40    41   ar
    36    41    42   ar
    37    42    43   ar
    38    43    44   ar
    39    37    38   ar
    40    38    39   ar
    41     5     6   ar
    42     6     1   ar
    43    16     7   ar
    44    39    34   ar
    45    22    17   ar
    46    16    10   ar
    47    44    40   ar
    48    30    31    1
    49    25    26    1
@<TRIPOS>MOLECULE
*****
 44 49 0 0 0
SMALL
GASTEIGER

@<TRIPOS>ATOM
      1 C          -3.0350    3.5541   19.7552 C.ar    1  UNL1        0.1348
      2 C          -2.1241    3.8930   18.6127 C.ar    1  UNL1        0.0346
      3 C          -0.6400    3.7367   18.7648 C.ar    1  UNL1        0.0065
      4 C          -0.0669    3.2414   20.0594 C.ar    1  UNL1        0.0432
      5 C          -0.9778    2.9025   21.2020 C.ar    1  UNL1        0.1256
      6 N          -2.4619    3.0588   21.0498 N.ar    1  UNL1       -0.2222
      7 C           1.4172    3.0851   20.2116 C.ar    1  UNL1        0.0850
      8 C           2.3150    3.9551   21.0405 C.ar    1  UNL1        0.0991
      9 N           3.7166    3.4390   20.9028 N.ar    1  UNL1       -0.2265
     10 C           3.6851    2.2500   19.9889 C.ar    1  UNL1        0.1474
     11 C           4.7668    1.3382   19.4905 C.ar    1  UNL1        0.0332
     12 C           4.4275    0.2077   18.5649 C.ar    1  UNL1       -0.0174
     13 C           5.5093   -0.7041   18.0664 C.3     1  UNL1        0.0312
     14 C           3.0063   -0.0111   18.1377 C.ar    1  UNL1        0.0149
     15 C           1.9246    0.9007   18.6361 C.ar    1  UNL1        0.0811
     16 N           2.2640    2.0312   19.5617 N.ar    1  UNL1       -0.2888
     17 C           1.8863    5.1342   21.8626 C.ar    1  UNL1        0.0222
     18 C           1.3289    6.3541   21.1909 C.ar    1  UNL1        0.0222
     19 C           0.9003    7.5332   22.0131 C.ar    1  UNL1        0.0989
     20 N           1.0291    7.4924   23.5069 N.ar    1  UNL1       -0.2423
     21 C           1.5864    6.2726   24.1787 C.ar    1  UNL1        0.0989
     22 C           2.0151    5.0935   23.3565 C.ar    1  UNL1        0.0222
     23 C          -5.2514    4.7408   20.4105 C.2     1  UNL1        0.2414
     24 O          -4.4997    5.6148   21.3702 O.2     1  UNL1       -0.2733
     25 N          -4.5191    3.7105   19.6030 N.am    1  UNL1       -0.2682
     26 H          -5.0125    3.1368   18.9731 H       1  UNL1        0.1563
     27 C          -6.7355    4.8971   20.2582 C.3     1  UNL1        0.1319
     28 C          -7.3587    4.8486   18.8947 C.3     1  UNL1        0.0270
     29 C          -7.2952    4.3595   22.7376 C.3     1  UNL1        0.0862
     30 N          -7.5962    5.1019   21.4694 N.3     1  UNL1       -0.2902
     31 H          -7.5569    6.0962   21.6939 H       1  UNL1        0.1237
     32 C          -0.4047    2.4072   22.4967 C.1     1  UNL1       -0.0404
     33 C           0.1684    1.9118   23.7914 C.1     1  UNL1       -0.0583
     34 C           0.7415    1.4165   25.0861 C.ar    1  UNL1        0.0420
     35 C          -0.0980    1.4232   26.3292 C.ar    1  UNL1        0.0083
     36 C           0.4751    0.9279   27.6239 C.ar    1  UNL1        0.0022
     37 C           1.8878    0.4260   27.6754 C.ar    1  UNL1        0.0210
     38 C           2.7273    0.4193   26.4323 C.ar    1  UNL1        0.0022
     39 C           2.1541    0.9146   25.1377 C.ar    1  UNL1        0.0083
     40 C           2.4609   -0.0693   28.9701 C.ar    1  UNL1        0.1231
     41 C           3.9192   -0.2010   29.2957 C.ar    1  UNL1        0.0658
     42 C           4.0359   -0.7330   30.6933 C.ar    1  UNL1        0.2138
     43 O           2.6499   -0.9300   31.2316 O.2     1  UNL1       -0.3502
     44 N           1.6763   -0.5198   30.1665 N.ar    1  UNL1       -0.0768
@<TRIPOS>BOND
     1    29    30    1
     2    30    27    1
     3    27    28    1
     4    27    23    1
     5    23    24    2
     6    23    25   am
     7    25     1    1
     8     1     2   ar
     9     2     3   ar
    10     3     4   ar
    11     4     7    1
    12     7     8   ar
    13     8    17    1
    14    17    18   ar
    15    18    19   ar
    16    19    20   ar
    17    20    21   ar
    18    21    22   ar
    19     8     9   ar
    20     9    10   ar
    21    10    11   ar
    22    11    12   ar
    23    12    13    1
    24    12    14   ar
    25    14    15   ar
    26    15    16   ar
    27     4     5   ar
    28     5    32    1
    29    32    33    3
    30    33    34    1
    31    34    35   ar
    32    35    36   ar
    33    36    37   ar
    34    37    40    1
    35    40    41   ar
    36    41    42   ar
    37    42    43   ar
    38    43    44   ar
    39    37    38   ar
    40    38    39   ar
    41     5     6   ar
    42     6     1   ar
    43    16     7   ar
    44    39    34   ar
    45    22    17   ar
    46    16    10   ar
    47    44    40   ar
    48    30    31    1
    49    25    26    1
@<TRIPOS>MOLECULE
*****
 44 49 0 0 0
SMALL
GASTEIGER

@<TRIPOS>ATOM
      1 C          -2.6721    3.4663   20.8767 C.ar    1  UNL1        0.1348
      2 C          -2.7789    4.4788   21.9783 C.ar    1  UNL1        0.0346
      3 C          -1.7782    4.4798   23.0957 C.ar    1  UNL1        0.0065
      4 C          -0.6707    3.4683   23.1116 C.ar    1  UNL1        0.0432
      5 C          -0.5639    2.4558   22.0100 C.ar    1  UNL1        0.1256
      6 N          -1.5646    2.4548   20.8925 N.ar    1  UNL1       -0.2222
      7 C           0.3300    3.4693   24.2290 C.ar    1  UNL1        0.0850
      8 C           1.7092    4.0567   24.1768 C.ar    1  UNL1        0.0991
      9 N           2.3588    3.8335   25.5103 N.ar    1  UNL1       -0.2265
     10 C           1.3811    3.1081   26.3866 C.ar    1  UNL1        0.1474
     11 C           1.4705    2.6234   27.8033 C.ar    1  UNL1        0.0332
     12 C           0.3061    1.9137   28.4281 C.ar    1  UNL1       -0.0174
     13 C           0.3956    1.4290   29.8449 C.3     1  UNL1        0.0312
     14 C          -0.9478    1.6886   27.6362 C.ar    1  UNL1        0.0149
     15 C          -1.0372    2.1732   26.2195 C.ar    1  UNL1        0.0811
     16 N           0.1272    2.8830   25.5947 N.ar    1  UNL1       -0.2888
     17 C           2.3298    4.7463   22.9981 C.ar    1  UNL1        0.0222
     18 C           1.9516    6.1607   22.6720 C.ar    1  UNL1        0.0222
     19 C           2.5722    6.8502   21.4933 C.ar    1  UNL1        0.0989
     20 N           3.5711    6.1253   20.6408 N.ar    1  UNL1       -0.2423
     21 C           3.9493    4.7110   20.9669 C.ar    1  UNL1        0.0989
     22 C           3.3287    4.0214   22.1456 C.ar    1  UNL1        0.0222
     23 C          -3.3033    4.0334   18.4211 C.2     1  UNL1        0.2414
     24 O          -1.9331    4.6023   18.2003 O.2     1  UNL1       -0.2733
     25 N          -3.6728    3.4654   19.7593 N.am    1  UNL1       -0.2682
     26 H          -4.5721    3.0920   19.9042 H       1  UNL1        0.1563
     27 C          -4.3041    4.0324   17.3037 C.3     1  UNL1        0.1319
     28 C          -3.9570    3.4040   15.9866 C.3     1  UNL1        0.0270
     29 C          -5.7814    5.9177   18.3101 C.3     1  UNL1        0.0862
     30 N          -5.6518    4.6597   17.5035 N.3     1  UNL1       -0.2902
     31 H          -6.0212    4.8657   16.5753 H       1  UNL1        0.1237
     32 C           0.5436    1.4443   22.0258 C.1     1  UNL1       -0.0404
     33 C           1.6512    0.4327   22.0416 C.1     1  UNL1       -0.0583
     34 C           2.7587   -0.5788   22.0574 C.ar    1  UNL1        0.0420
     35 C           3.1977   -1.2303   20.7796 C.ar    1  UNL1        0.0083
     36 C           4.3052   -2.2418   20.7954 C.ar    1  UNL1        0.0022
     37 C           4.9736   -2.6018   22.0891 C.ar    1  UNL1        0.0210
     38 C           4.5346   -1.9503   23.3669 C.ar    1  UNL1        0.0022
     39 C           3.4271   -0.9388   23.3511 C.ar    1  UNL1        0.0083
     40 C           6.0811   -3.6133   22.1050 C.ar    1  UNL1        0.1231
     41 C           6.8536   -4.0562   23.3121 C.ar    1  UNL1        0.0658
     42 C           7.8605   -5.0761   22.8696 C.ar    1  UNL1        0.2138
     43 O           7.7104   -5.2636   21.3891 O.2     1  UNL1       -0.3502
     44 N           6.6107   -4.3596   20.9164 N.ar    1  UNL1       -0.0768
@<TRIPOS>BOND
     1    29    30    1
     2    30    27    1
     3    27    28    1
     4    27    23    1
     5    23    24    2
     6    23    25   am
     7    25     1    1
     8     1     2   ar
     9     2     3   ar
    10     3     4   ar
    11     4     7    1
    12     7     8   ar
    13     8    17    1
    14    17    18   ar
    15    18    19   ar
    16    19    20   ar
    17    20    21   ar
    18    21    22   ar
    19     8     9   ar
    20     9    10   ar
    21    10    11   ar
    22    11    12   ar
    23    12    13    1
    24    12    14   ar
    25    14    15   ar
    26    15    16   ar
    27     4     5   ar
    28     5    32    1
    29    32    33    3
    30    33    34    1
    31    34    35   ar
    32    35    36   ar
    33    36    37   ar
    34    37    40    1
    35    40    41   ar
    36    41    42   ar
    37    42    43   ar
    38    43    44   ar
    39    37    38   ar
    40    38    39   ar
    41     5     6   ar
    42     6     1   ar
    43    16     7   ar
    44    39    34   ar
    45    22    17   ar
    46    16    10   ar
    47    44    40   ar
    48    30    31    1
    49    25    26    1
@<TRIPOS>MOLECULE
*****
 44 49 0 0 0
SMALL
GASTEIGER

@<TRIPOS>ATOM
      1 C           3.6830   -1.2780   22.4179 C.ar    1  UNL1        0.1348
      2 C           4.9150   -1.1639   23.2660 C.ar    1  UNL1        0.0346
      3 C           4.9104   -0.2839   24.4807 C.ar    1  UNL1        0.0065
      4 C           3.6741    0.4820   24.8475 C.ar    1  UNL1        0.0432
      5 C           2.4420    0.3679   23.9994 C.ar    1  UNL1        0.1256
      6 N           2.4465   -0.5121   22.7846 N.ar    1  UNL1       -0.2222
      7 C           3.6695    1.3619   26.0623 C.ar    1  UNL1        0.0850
      8 C           3.9131    2.8419   26.0797 C.ar    1  UNL1        0.0991
      9 N           3.8148    3.3111   27.5010 N.ar    1  UNL1       -0.2265
     10 C           3.5104    2.1211   28.3620 C.ar    1  UNL1        0.1474
     11 C           3.3034    1.9788   29.8408 C.ar    1  UNL1        0.0332
     12 C           3.0067    0.6318   30.4304 C.ar    1  UNL1       -0.0174
     13 C           2.7997    0.4895   31.9093 C.3     1  UNL1        0.0312
     14 C           2.9169   -0.5729   29.5411 C.ar    1  UNL1        0.0149
     15 C           3.1239   -0.4306   28.0624 C.ar    1  UNL1        0.0811
     16 N           3.4207    0.9164   27.4728 N.ar    1  UNL1       -0.2888
     17 C           4.2039    3.7017   24.8855 C.ar    1  UNL1        0.0222
     18 C           3.1037    4.4982   24.2489 C.ar    1  UNL1        0.0222
     19 C           3.3946    5.3579   23.0547 C.ar    1  UNL1        0.0989
     20 N           4.7857    5.4213   22.4972 N.ar    1  UNL1       -0.2423
     21 C           5.8858    4.6249   23.1337 C.ar    1  UNL1        0.0989
     22 C           5.5950    3.7651   24.3279 C.ar    1  UNL1        0.0222
     23 C           4.3996   -1.7157   19.9593 C.2     1  UNL1        0.2414
     24 O           5.1073   -0.3934   19.9302 O.2     1  UNL1       -0.2733
     25 N           3.6875   -2.1579   21.2032 N.am    1  UNL1       -0.2682
     26 H           3.2231   -3.0258   21.2223 H       1  UNL1        0.1563
     27 C           4.4041   -2.5957   18.7445 C.3     1  UNL1        0.1319
     28 C           4.2019   -4.0749   18.8894 C.3     1  UNL1        0.0270
     29 C           3.7011   -0.9072   16.8995 C.3     1  UNL1        0.0862
     30 N           4.6108   -1.9965   17.3851 N.3     1  UNL1       -0.2902
     31 H           5.5576   -1.6175   17.3712 H       1  UNL1        0.1237
     32 C           1.2055    1.1338   24.3661 C.1     1  UNL1       -0.0404
     33 C          -0.0311    1.8997   24.7328 C.1     1  UNL1       -0.0583
     34 C          -1.2675    2.6656   25.0995 C.ar    1  UNL1        0.0420
     35 C          -1.6412    2.8407   26.5416 C.ar    1  UNL1        0.0083
     36 C          -2.8777    3.6067   26.9083 C.ar    1  UNL1        0.0022
     37 C          -3.7405    4.1974   25.8328 C.ar    1  UNL1        0.0210
     38 C          -3.3668    4.0223   24.3907 C.ar    1  UNL1        0.0022
     39 C          -2.1303    3.2564   24.0240 C.ar    1  UNL1        0.0083
     40 C          -4.9769    4.9633   26.1995 C.ar    1  UNL1        0.1231
     41 C          -6.0470    5.4167   25.2511 C.ar    1  UNL1        0.0658
     42 C          -7.0918    6.1439   26.0444 C.ar    1  UNL1        0.2138
     43 O          -6.6677    6.1400   27.4831 O.2     1  UNL1       -0.3502
     44 N          -5.3605    5.4104   27.5790 N.ar    1  UNL1       -0.0768
@<TRIPOS>BOND
     1    29    30    1
     2    30    27    1
     3    27    28    1
     4    27    23    1
     5    23    24    2
     6    23    25   am
     7    25     1    1
     8     1     2   ar
     9     2     3   ar
    10     3     4   ar
    11     4     7    1
    12     7     8   ar
    13     8    17    1
    14    17    18   ar
    15    18    19   ar
    16    19    20   ar
    17    20    21   ar
    18    21    22   ar
    19     8     9   ar
    20     9    10   ar
    21    10    11   ar
    22    11    12   ar
    23    12    13    1
    24    12    14   ar
    25    14    15   ar
    26    15    16   ar
    27     4     5   ar
    28     5    32    1
    29    32    33    3
    30    33    34    1
    31    34    35   ar
    32    35    36   ar
    33    36    37   ar
    34    37    40    1
    35    40    41   ar
    36    41    42   ar
    37    42    43   ar
    38    43    44   ar
    39    37    38   ar
    40    38    39   ar
    41     5     6   ar
    42     6     1   ar
    43    16     7   ar
    44    39    34   ar
    45    22    17   ar
    46    16    10   ar
    47    44    40   ar
    48    30    31    1
    49    25    26    1
