@<TRIPOS>MOLECULE
*****
 32 35 0 0 0
SMALL
GASTEIGER

@<TRIPOS>ATOM
      1 N           1.6819    2.1809   21.1217 N.am    1  UNL1       -0.2863
      2 C           0.1840    2.2121   21.0511 C.2     1  UNL1        0.3047
      3 O          -0.5795    0.9545   20.7583 O.2     1  UNL1       -0.2525
      4 N          -0.5507    3.5009   21.2733 N.am    1  UNL1       -0.2683
      5 H           2.1830    3.0063   21.3138 H       1  UNL1        0.1512
      6 H          -0.0496    4.3263   21.4654 H       1  UNL1        0.1564
      7 C           3.4130   -0.8798   19.2816 C.3     1  UNL1        0.1350
      8 C           2.6783    0.4090   19.5038 C.3     1  UNL1        0.0642
      9 C           2.4166    0.8921   20.8995 C.3     1  UNL1        0.1020
     10 C           2.8894    0.0864   22.0732 C.ar    1  UNL1        0.0319
     11 C           2.6276    0.5695   23.4689 C.ar    1  UNL1        0.0300
     12 C           3.1004   -0.2362   24.6424 C.ar    1  UNL1        0.1401
     13 F           2.8386    0.2469   26.0382 F       1  UNL1       -0.2042
     14 C           3.8350   -1.5250   24.4202 C.ar    1  UNL1        0.0327
     15 C           4.0968   -2.0081   23.0245 C.ar    1  UNL1        0.0389
     16 C           3.6240   -1.2024   21.8510 C.ar    1  UNL1        0.1358
     17 O           3.8858   -1.6855   20.4552 O.3     1  UNL1       -0.4828
     18 C           3.7889   -3.4355   19.0041 C.3     1  UNL1        0.0037
     19 C           4.0616   -2.0271   18.5656 C.3     1  UNL1        0.0401
     20 C           3.1654   -0.4725   17.8594 C.3     1  UNL1        0.0401
     21 C           4.2722   -0.5600   16.8507 C.3     1  UNL1        0.0037
     22 C          -2.0487    3.5321   21.2027 C.ar    1  UNL1        0.0516
     23 C          -2.7369    3.5337   19.8699 C.ar    1  UNL1        0.0147
     24 C          -4.2349    3.5649   19.7993 C.ar    1  UNL1        0.0013
     25 C          -5.0447    3.5944   21.0616 C.ar    1  UNL1        0.0016
     26 C          -4.3566    3.5928   22.3944 C.ar    1  UNL1        0.0204
     27 C          -5.1664    3.6223   23.6567 C.ar    1  UNL1        0.0984
     28 N          -4.4782    3.6206   24.9895 N.ar    1  UNL1       -0.2481
     29 C          -2.9802    3.5895   25.0600 C.ar    1  UNL1        0.0594
     30 C          -2.2920    3.5878   26.3928 C.3     1  UNL1        0.0521
     31 C          -2.1703    3.5600   23.7978 C.ar    1  UNL1        0.0160
     32 C          -2.8586    3.5616   22.4649 C.ar    1  UNL1        0.0162
@<TRIPOS>BOND
     1    18    19    1
     2    19     7    1
     3     7    20    1
     4    20    21    1
     5     7     8    1
     6     8     9    1
     7     9     1    1
     8     1     2   am
     9     2     3    2
    10     2     4   am
    11     4    22    1
    12    22    23   ar
    13    23    24   ar
    14    24    25   ar
    15    25    26   ar
    16    26    27   ar
    17    27    28   ar
    18    28    29   ar
    19    29    30    1
    20    29    31   ar
    21    31    32   ar
    22     9    10    1
    23    10    11   ar
    24    11    12   ar
    25    12    13    1
    26    12    14   ar
    27    14    15   ar
    28    15    16   ar
    29    16    17    1
    30    17     7    1
    31    32    22   ar
    32    16    10   ar
    33    32    26   ar
    34     1     5    1
    35     4     6    1
@<TRIPOS>MOLECULE
*****
 32 35 0 0 0
SMALL
GASTEIGER

@<TRIPOS>ATOM
      1 N           6.9254   -2.8163   25.0199 N.am    1  UNL1       -0.2863
      2 C           6.0522   -2.7783   23.8009 C.2     1  UNL1        0.3047
      3 O           5.4149   -4.0385   23.2952 O.2     1  UNL1       -0.2525
      4 N           5.8163   -1.4800   23.0875 N.am    1  UNL1       -0.2683
      5 H           7.3438   -1.9892   25.3518 H       1  UNL1        0.1512
      6 H           6.2346   -0.6529   23.4194 H       1  UNL1        0.1564
      7 C           7.7938   -6.6337   25.6707 C.3     1  UNL1        0.1350
      8 C           7.5578   -5.3354   24.9573 C.3     1  UNL1        0.0642
      9 C           7.1614   -4.1145   25.7333 C.3     1  UNL1        0.1020
     10 C           7.0008   -4.1918   27.2227 C.ar    1  UNL1        0.0319
     11 C           6.6043   -2.9709   27.9986 C.ar    1  UNL1        0.0300
     12 C           6.4437   -3.0483   29.4880 C.ar    1  UNL1        0.1401
     13 F           6.0472   -1.8273   30.2640 F       1  UNL1       -0.2042
     14 C           6.6796   -4.3465   30.2014 C.ar    1  UNL1        0.0327
     15 C           7.0761   -5.5674   29.4254 C.ar    1  UNL1        0.0389
     16 C           7.2367   -5.4901   27.9361 C.ar    1  UNL1        0.1358
     17 O           7.6332   -6.7110   27.1600 O.3     1  UNL1       -0.4828
     18 C           8.8111   -8.5052   27.1582 C.3     1  UNL1        0.0037
     19 C           8.1254   -8.0794   25.8937 C.3     1  UNL1        0.0401
     20 C           8.0695   -7.0584   24.2588 C.3     1  UNL1        0.0401
     21 C           9.4797   -7.3080   23.8125 C.3     1  UNL1        0.0037
     22 C           4.9430   -1.4420   21.8684 C.ar    1  UNL1        0.0516
     23 C           3.4798   -1.1408   22.0032 C.ar    1  UNL1        0.0147
     24 C           2.6066   -1.1028   20.7841 C.ar    1  UNL1        0.0013
     25 C           3.1967   -1.3661   19.4304 C.ar    1  UNL1        0.0016
     26 C           4.6599   -1.6673   19.2957 C.ar    1  UNL1        0.0204
     27 C           5.2499   -1.9305   17.9420 C.ar    1  UNL1        0.0984
     28 N           6.7131   -2.2317   17.8073 N.ar    1  UNL1       -0.2481
     29 C           7.5864   -2.2697   19.0263 C.ar    1  UNL1        0.0594
     30 C           9.0496   -2.5709   18.8916 C.3     1  UNL1        0.0521
     31 C           6.9964   -2.0065   20.3801 C.ar    1  UNL1        0.0160
     32 C           5.5331   -1.7053   20.5147 C.ar    1  UNL1        0.0162
@<TRIPOS>BOND
     1    18    19    1
     2    19     7    1
     3     7    20    1
     4    20    21    1
     5     7     8    1
     6     8     9    1
     7     9     1    1
     8     1     2   am
     9     2     3    2
    10     2     4   am
    11     4    22    1
    12    22    23   ar
    13    23    24   ar
    14    24    25   ar
    15    25    26   ar
    16    26    27   ar
    17    27    28   ar
    18    28    29   ar
    19    29    30    1
    20    29    31   ar
    21    31    32   ar
    22     9    10    1
    23    10    11   ar
    24    11    12   ar
    25    12    13    1
    26    12    14   ar
    27    14    15   ar
    28    15    16   ar
    29    16    17    1
    30    17     7    1
    31    32    22   ar
    32    16    10   ar
    33    32    26   ar
    34     1     5    1
    35     4     6    1
@<TRIPOS>MOLECULE
*****
 32 35 0 0 0
SMALL
GASTEIGER

@<TRIPOS>ATOM
      1 N          -0.5492    3.7335   21.0989 N.am    1  UNL1       -0.2863
      2 C           0.1331    2.4732   20.6562 C.2     1  UNL1        0.3047
      3 O          -0.5973    1.1643   20.7153 O.2     1  UNL1       -0.2525
      4 N           1.5458    2.5217   20.1544 N.am    1  UNL1       -0.2683
      5 H          -0.0699    4.5925   21.0601 H       1  UNL1        0.1512
      6 H           2.0252    3.3808   20.1156 H       1  UNL1        0.1564
      7 C          -3.6455    3.5813   23.5769 C.3     1  UNL1        0.1350
      8 C          -2.2327    3.6298   23.0750 C.3     1  UNL1        0.0642
      9 C          -1.9620    3.6850   21.6007 C.3     1  UNL1        0.1020
     10 C          -3.1040    3.6917   20.6282 C.ar    1  UNL1        0.0319
     11 C          -2.8333    3.7469   19.1539 C.ar    1  UNL1        0.0300
     12 C          -3.9753    3.7536   18.1814 C.ar    1  UNL1        0.1401
     13 F          -3.7045    3.8088   16.7070 F       1  UNL1       -0.2042
     14 C          -5.3880    3.7051   18.6832 C.ar    1  UNL1        0.0327
     15 C          -5.6587    3.6499   20.1575 C.ar    1  UNL1        0.0389
     16 C          -4.5167    3.6432   21.1300 C.ar    1  UNL1        0.1358
     17 O          -4.7875    3.5880   22.6044 O.3     1  UNL1       -0.4828
     18 C          -6.0180    4.3659   24.2880 C.3     1  UNL1        0.0037
     19 C          -4.8009    3.5235   24.5315 C.3     1  UNL1        0.0401
     20 C          -2.9047    3.5545   24.8809 C.3     1  UNL1        0.0401
     21 C          -1.6156    2.7961   24.9958 C.3     1  UNL1        0.0037
     22 C           2.2282    1.2614   19.7117 C.ar    1  UNL1        0.0516
     23 C           2.4135    0.9827   18.2495 C.ar    1  UNL1        0.0147
     24 C           3.0958   -0.2776   17.8069 C.ar    1  UNL1        0.0013
     25 C           3.5928   -1.2593   18.8264 C.ar    1  UNL1        0.0016
     26 C           3.4075   -0.9806   20.2885 C.ar    1  UNL1        0.0204
     27 C           3.9044   -1.9623   21.3080 C.ar    1  UNL1        0.0984
     28 N           3.7191   -1.6836   22.7702 N.ar    1  UNL1       -0.2481
     29 C           3.0367   -0.4232   23.2129 C.ar    1  UNL1        0.0594
     30 C           2.8514   -0.1445   24.6751 C.3     1  UNL1        0.0521
     31 C           2.5398    0.5584   22.1934 C.ar    1  UNL1        0.0160
     32 C           2.7252    0.2797   20.7312 C.ar    1  UNL1        0.0162
@<TRIPOS>BOND
     1    18    19    1
     2    19     7    1
     3     7    20    1
     4    20    21    1
     5     7     8    1
     6     8     9    1
     7     9     1    1
     8     1     2   am
     9     2     3    2
    10     2     4   am
    11     4    22    1
    12    22    23   ar
    13    23    24   ar
    14    24    25   ar
    15    25    26   ar
    16    26    27   ar
    17    27    28   ar
    18    28    29   ar
    19    29    30    1
    20    29    31   ar
    21    31    32   ar
    22     9    10    1
    23    10    11   ar
    24    11    12   ar
    25    12    13    1
    26    12    14   ar
    27    14    15   ar
    28    15    16   ar
    29    16    17    1
    30    17     7    1
    31    32    22   ar
    32    16    10   ar
    33    32    26   ar
    34     1     5    1
    35     4     6    1
@<TRIPOS>MOLECULE
*****
 32 35 0 0 0
SMALL
GASTEIGER

@<TRIPOS>ATOM
      1 N           7.9876   -3.3517   24.1128 N.am    1  UNL1       -0.2863
      2 C           7.0035   -3.4252   22.9832 C.2     1  UNL1        0.3047
      3 O           6.1056   -4.6191   22.8471 O.2     1  UNL1       -0.2525
      4 N           6.9172   -2.3048   21.9896 N.am    1  UNL1       -0.2683
      5 H           8.5769   -2.5681   24.2021 H       1  UNL1        0.1512
      6 H           7.5065   -1.5212   22.0789 H       1  UNL1        0.1564
      7 C           8.7720   -6.9028   25.7016 C.3     1  UNL1        0.1350
      8 C           8.6857   -5.7824   24.7080 C.3     1  UNL1        0.0642
      9 C           8.0739   -4.4721   25.1064 C.3     1  UNL1        0.1020
     10 C           7.5484   -4.2822   26.4985 C.ar    1  UNL1        0.0319
     11 C           6.9366   -2.9718   26.8969 C.ar    1  UNL1        0.0300
     12 C           6.4112   -2.7819   28.2889 C.ar    1  UNL1        0.1401
     13 F           5.7994   -1.4716   28.6874 F       1  UNL1       -0.2042
     14 C           6.4975   -3.9023   29.2825 C.ar    1  UNL1        0.0327
     15 C           7.1092   -5.2127   28.8841 C.ar    1  UNL1        0.0389
     16 C           7.6347   -5.4026   27.4921 C.ar    1  UNL1        0.1358
     17 O           8.2465   -6.7129   27.0936 O.3     1  UNL1       -0.4828
     18 C           8.1211   -8.8875   27.2468 C.3     1  UNL1        0.0037
     19 C           9.0776   -8.2519   26.2817 C.3     1  UNL1        0.0401
     20 C           9.4036   -7.5613   24.5110 C.3     1  UNL1        0.0401
     21 C           8.8813   -7.2797   23.1333 C.3     1  UNL1        0.0037
     22 C           5.9330   -2.3783   20.8599 C.ar    1  UNL1        0.0516
     23 C           6.3094   -3.0654   19.5808 C.ar    1  UNL1        0.0147
     24 C           5.3253   -3.1389   18.4512 C.ar    1  UNL1        0.0013
     25 C           3.9647   -2.5253   18.6008 C.ar    1  UNL1        0.0016
     26 C           3.5883   -1.8382   19.8799 C.ar    1  UNL1        0.0204
     27 C           2.2278   -1.2246   20.0294 C.ar    1  UNL1        0.0984
     28 N           1.8513   -0.5375   21.3085 N.ar    1  UNL1       -0.2481
     29 C           2.8355   -0.4640   22.4382 C.ar    1  UNL1        0.0594
     30 C           2.4591    0.2231   23.7173 C.3     1  UNL1        0.0521
     31 C           4.1961   -1.0776   22.2887 C.ar    1  UNL1        0.0160
     32 C           4.5725   -1.7647   21.0095 C.ar    1  UNL1        0.0162
@<TRIPOS>BOND
     1    18    19    1
     2    19     7    1
     3     7    20    1
     4    20    21    1
     5     7     8    1
     6     8     9    1
     7     9     1    1
     8     1     2   am
     9     2     3    2
    10     2     4   am
    11     4    22    1
    12    22    23   ar
    13    23    24   ar
    14    24    25   ar
    15    25    26   ar
    16    26    27   ar
    17    27    28   ar
    18    28    29   ar
    19    29    30    1
    20    29    31   ar
    21    31    32   ar
    22     9    10    1
    23    10    11   ar
    24    11    12   ar
    25    12    13    1
    26    12    14   ar
    27    14    15   ar
    28    15    16   ar
    29    16    17    1
    30    17     7    1
    31    32    22   ar
    32    16    10   ar
    33    32    26   ar
    34     1     5    1
    35     4     6    1
@<TRIPOS>MOLECULE
*****
 32 35 0 0 0
SMALL
GASTEIGER

@<TRIPOS>ATOM
      1 N           6.1664   -3.8391   25.2700 N.am    1  UNL1       -0.2863
      2 C           6.8427   -3.2644   24.0608 C.2     1  UNL1        0.3047
      3 O           8.2063   -3.7470   23.6636 O.2     1  UNL1       -0.2525
      4 N           6.1554   -2.2069   23.2487 N.am    1  UNL1       -0.2683
      5 H           5.2714   -3.5223   25.5307 H       1  UNL1        0.1512
      6 H           5.2604   -1.8901   23.5094 H       1  UNL1        0.1564
      7 C           8.1225   -7.1597   26.2174 C.3     1  UNL1        0.1350
      8 C           7.4352   -6.1023   25.4053 C.3     1  UNL1        0.0642
      9 C           6.8537   -4.8966   26.0821 C.3     1  UNL1        0.1020
     10 C           6.9594   -4.7482   27.5711 C.ar    1  UNL1        0.0319
     11 C           6.3779   -3.5425   28.2479 C.ar    1  UNL1        0.0300
     12 C           6.4837   -3.3943   29.7367 C.ar    1  UNL1        0.1401
     13 F           5.9022   -2.1885   30.4136 F       1  UNL1       -0.2042
     14 C           7.1710   -4.4517   30.5488 C.ar    1  UNL1        0.0327
     15 C           7.7525   -5.6574   29.8720 C.ar    1  UNL1        0.0389
     16 C           7.6467   -5.8057   28.3832 C.ar    1  UNL1        0.1358
     17 O           8.2282   -7.0114   27.7063 O.3     1  UNL1       -0.4828
     18 C           8.3357   -9.3390   27.6158 C.3     1  UNL1        0.0037
     19 C           8.8622   -8.4207   26.5529 C.3     1  UNL1        0.0401
     20 C           8.2736   -7.7459   24.8450 C.3     1  UNL1        0.0401
     21 C           9.4785   -7.4131   24.0158 C.3     1  UNL1        0.0037
     22 C           6.8317   -1.6322   22.0394 C.ar    1  UNL1        0.0516
     23 C           7.9106   -0.6028   22.2018 C.ar    1  UNL1        0.0147
     24 C           8.5868   -0.0281   20.9925 C.ar    1  UNL1        0.0013
     25 C           8.1842   -0.4827   19.6209 C.ar    1  UNL1        0.0016
     26 C           7.1054   -1.5121   19.4586 C.ar    1  UNL1        0.0204
     27 C           6.7028   -1.9668   18.0871 C.ar    1  UNL1        0.0984
     28 N           5.6239   -2.9962   17.9247 N.ar    1  UNL1       -0.2481
     29 C           4.9476   -3.5709   19.1340 C.ar    1  UNL1        0.0594
     30 C           3.8687   -4.6003   18.9717 C.3     1  UNL1        0.0521
     31 C           5.3502   -3.1163   20.5056 C.ar    1  UNL1        0.0160
     32 C           6.4291   -2.0868   20.6679 C.ar    1  UNL1        0.0162
@<TRIPOS>BOND
     1    18    19    1
     2    19     7    1
     3     7    20    1
     4    20    21    1
     5     7     8    1
     6     8     9    1
     7     9     1    1
     8     1     2   am
     9     2     3    2
    10     2     4   am
    11     4    22    1
    12    22    23   ar
    13    23    24   ar
    14    24    25   ar
    15    25    26   ar
    16    26    27   ar
    17    27    28   ar
    18    28    29   ar
    19    29    30    1
    20    29    31   ar
    21    31    32   ar
    22     9    10    1
    23    10    11   ar
    24    11    12   ar
    25    12    13    1
    26    12    14   ar
    27    14    15   ar
    28    15    16   ar
    29    16    17    1
    30    17     7    1
    31    32    22   ar
    32    16    10   ar
    33    32    26   ar
    34     1     5    1
    35     4     6    1
@<TRIPOS>MOLECULE
*****
 32 35 0 0 0
SMALL
GASTEIGER

@<TRIPOS>ATOM
      1 N          -0.9915    3.7355   20.5517 N.am    1  UNL1       -0.2863
      2 C          -0.1934    2.4678   20.4751 C.2     1  UNL1        0.3047
      3 O          -0.8943    1.1441   20.3923 O.2     1  UNL1       -0.2525
      4 N           1.3055    2.5236   20.4814 N.am    1  UNL1       -0.2683
      5 H          -0.5315    4.6042   20.6061 H       1  UNL1        0.1512
      6 H           1.7655    3.3923   20.5358 H       1  UNL1        0.1564
      7 C          -4.7352    3.6426   19.2379 C.3     1  UNL1        0.1350
      8 C          -3.2363    3.6984   19.2442 C.3     1  UNL1        0.0642
      9 C          -2.4905    3.6796   20.5455 C.3     1  UNL1        0.1020
     10 C          -3.2436    3.6050   21.8406 C.ar    1  UNL1        0.0319
     11 C          -2.4978    3.5862   23.1419 C.ar    1  UNL1        0.0300
     12 C          -3.2510    3.5116   24.4369 C.ar    1  UNL1        0.1401
     13 F          -2.5052    3.4928   25.7383 F       1  UNL1       -0.2042
     14 C          -4.7499    3.4557   24.4307 C.ar    1  UNL1        0.0327
     15 C          -5.4957    3.4745   23.1294 C.ar    1  UNL1        0.0389
     16 C          -4.7426    3.5491   21.8343 C.ar    1  UNL1        0.1358
     17 O          -5.4884    3.5679   20.5330 O.3     1  UNL1       -0.4828
     18 C          -7.1310    4.6450   19.1648 C.3     1  UNL1        0.0037
     19 C          -6.1423    3.6086   18.7194 C.3     1  UNL1        0.0401
     20 C          -4.4707    3.7054   17.7628 C.3     1  UNL1        0.0401
     21 C          -3.9762    4.9788   17.1431 C.3     1  UNL1        0.0037
     22 C           2.1036    1.2558   20.4048 C.ar    1  UNL1        0.0516
     23 C           2.5103    0.7050   19.0702 C.ar    1  UNL1        0.0147
     24 C           3.3083   -0.5627   18.9936 C.ar    1  UNL1        0.0013
     25 C           3.6997   -1.2797   20.2517 C.ar    1  UNL1        0.0016
     26 C           3.2930   -0.7290   21.5863 C.ar    1  UNL1        0.0204
     27 C           3.6843   -1.4460   22.8444 C.ar    1  UNL1        0.0984
     28 N           3.2777   -0.8952   24.1790 N.ar    1  UNL1       -0.2481
     29 C           2.4796    0.3726   24.2556 C.ar    1  UNL1        0.0594
     30 C           2.0729    0.9233   25.5902 C.3     1  UNL1        0.0521
     31 C           2.0882    1.0896   22.9975 C.ar    1  UNL1        0.0160
     32 C           2.4950    0.5388   21.6629 C.ar    1  UNL1        0.0162
@<TRIPOS>BOND
     1    18    19    1
     2    19     7    1
     3     7    20    1
     4    20    21    1
     5     7     8    1
     6     8     9    1
     7     9     1    1
     8     1     2   am
     9     2     3    2
    10     2     4   am
    11     4    22    1
    12    22    23   ar
    13    23    24   ar
    14    24    25   ar
    15    25    26   ar
    16    26    27   ar
    17    27    28   ar
    18    28    29   ar
    19    29    30    1
    20    29    31   ar
    21    31    32   ar
    22     9    10    1
    23    10    11   ar
    24    11    12   ar
    25    12    13    1
    26    12    14   ar
    27    14    15   ar
    28    15    16   ar
    29    16    17    1
    30    17     7    1
    31    32    22   ar
    32    16    10   ar
    33    32    26   ar
    34     1     5    1
    35     4     6    1
@<TRIPOS>MOLECULE
*****
 32 35 0 0 0
SMALL
GASTEIGER

@<TRIPOS>ATOM
      1 N           6.2100   -1.3998   27.5401 N.am    1  UNL1       -0.2863
      2 C           4.7665   -0.9921   27.5512 C.2     1  UNL1        0.3047
      3 O           3.6916   -2.0372   27.5026 O.2     1  UNL1       -0.2525
      4 N           4.3979    0.4607   27.6109 N.am    1  UNL1       -0.2683
      5 H           6.9155   -0.7139   27.5720 H       1  UNL1        0.1512
      6 H           5.1034    1.1466   27.6428 H       1  UNL1        0.1564
      7 C           7.1741   -4.9677   26.0942 C.3     1  UNL1        0.1350
      8 C           6.8055   -3.5149   26.1538 C.3     1  UNL1        0.0642
      9 C           6.5786   -2.8526   27.4804 C.3     1  UNL1        0.1020
     10 C           6.7203   -3.6430   28.7474 C.ar    1  UNL1        0.0319
     11 C           6.4935   -2.9807   30.0739 C.ar    1  UNL1        0.0300
     12 C           6.6352   -3.7712   31.3408 C.ar    1  UNL1        0.1401
     13 F           6.4084   -3.1089   32.6675 F       1  UNL1       -0.2042
     14 C           7.0038   -5.2240   31.2811 C.ar    1  UNL1        0.0327
     15 C           7.2307   -5.8863   29.9546 C.ar    1  UNL1        0.0389
     16 C           7.0890   -5.0958   28.6877 C.ar    1  UNL1        0.1358
     17 O           7.3158   -5.7581   27.3610 O.3     1  UNL1       -0.4828
     18 C           7.1461   -7.5609   26.2515 C.3     1  UNL1        0.0037
     19 C           7.5372   -6.3075   25.5260 C.3     1  UNL1        0.0401
     20 C           7.1584   -4.6425   24.6299 C.3     1  UNL1        0.0401
     21 C           6.0572   -3.7978   24.0609 C.3     1  UNL1        0.0037
     22 C           2.9544    0.8683   27.6220 C.ar    1  UNL1        0.0516
     23 C           2.2146    1.0438   26.3290 C.ar    1  UNL1        0.0147
     24 C           0.7712    1.4515   26.3401 C.ar    1  UNL1        0.0013
     25 C           0.0674    1.6836   27.6443 C.ar    1  UNL1        0.0016
     26 C           0.8072    1.5081   28.9373 C.ar    1  UNL1        0.0204
     27 C           0.1034    1.7402   30.2415 C.ar    1  UNL1        0.0984
     28 N           0.8432    1.5647   31.5345 N.ar    1  UNL1       -0.2481
     29 C           2.2867    1.1570   31.5234 C.ar    1  UNL1        0.0594
     30 C           3.0264    0.9815   32.8164 C.3     1  UNL1        0.0521
     31 C           2.9905    0.9249   30.2192 C.ar    1  UNL1        0.0160
     32 C           2.2506    1.1004   28.9262 C.ar    1  UNL1        0.0162
@<TRIPOS>BOND
     1    18    19    1
     2    19     7    1
     3     7    20    1
     4    20    21    1
     5     7     8    1
     6     8     9    1
     7     9     1    1
     8     1     2   am
     9     2     3    2
    10     2     4   am
    11     4    22    1
    12    22    23   ar
    13    23    24   ar
    14    24    25   ar
    15    25    26   ar
    16    26    27   ar
    17    27    28   ar
    18    28    29   ar
    19    29    30    1
    20    29    31   ar
    21    31    32   ar
    22     9    10    1
    23    10    11   ar
    24    11    12   ar
    25    12    13    1
    26    12    14   ar
    27    14    15   ar
    28    15    16   ar
    29    16    17    1
    30    17     7    1
    31    32    22   ar
    32    16    10   ar
    33    32    26   ar
    34     1     5    1
    35     4     6    1
@<TRIPOS>MOLECULE
*****
 32 35 0 0 0
SMALL
GASTEIGER

@<TRIPOS>ATOM
      1 N          -8.2848  -18.6731   20.7982 N.am    1  UNL1       -0.2863
      2 C          -6.9722  -18.4704   21.4954 C.2     1  UNL1        0.3047
      3 O          -6.9447  -18.0681   22.9402 O.2     1  UNL1       -0.2525
      4 N          -5.6872  -18.6700   20.7478 N.am    1  UNL1       -0.2683
      5 H          -8.3028  -18.9371   19.8499 H       1  UNL1        0.1512
      6 H          -5.7052  -18.9340   19.7996 H       1  UNL1        0.1564
      7 C         -11.1269  -19.0612   23.5407 C.3     1  UNL1        0.1350
      8 C          -9.8419  -19.2608   22.7932 C.3     1  UNL1        0.0642
      9 C          -9.5698  -18.4735   21.5457 C.3     1  UNL1        0.1020
     10 C         -10.5828  -17.4866   21.0458 C.ar    1  UNL1        0.0319
     11 C         -10.3108  -16.6994   19.7983 C.ar    1  UNL1        0.0300
     12 C         -11.3238  -15.7126   19.2984 C.ar    1  UNL1        0.1401
     13 F         -11.0518  -14.9252   18.0509 F       1  UNL1       -0.2042
     14 C         -12.6088  -15.5130   20.0460 C.ar    1  UNL1        0.0327
     15 C         -12.8809  -16.3002   21.2934 C.ar    1  UNL1        0.0389
     16 C         -11.8679  -17.2871   21.7933 C.ar    1  UNL1        0.1358
     17 O         -12.1399  -18.0744   23.0408 O.3     1  UNL1       -0.4828
     18 C         -13.4165  -18.3638   24.5514 C.3     1  UNL1        0.0037
     19 C         -12.1881  -19.2240   24.5882 C.3     1  UNL1        0.0401
     20 C         -10.4824  -20.1046   24.4044 C.3     1  UNL1        0.0401
     21 C          -9.1750  -20.7149   23.9941 C.3     1  UNL1        0.0037
     22 C          -4.3746  -18.4673   21.4451 C.ar    1  UNL1        0.0516
     23 C          -4.3001  -18.5460   22.9412 C.ar    1  UNL1        0.0147
     24 C          -2.9876  -18.3433   23.6384 C.ar    1  UNL1        0.0013
     25 C          -1.7496  -18.0619   22.8395 C.ar    1  UNL1        0.0016
     26 C          -1.8241  -17.9832   21.3435 C.ar    1  UNL1        0.0204
     27 C          -0.5861  -17.7017   20.5447 C.ar    1  UNL1        0.0984
     28 N          -0.6606  -17.6230   19.0486 N.ar    1  UNL1       -0.2481
     29 C          -1.9732  -17.8257   18.3513 C.ar    1  UNL1        0.0594
     30 C          -2.0477  -17.7470   16.8553 C.3     1  UNL1        0.0521
     31 C          -3.2112  -18.1071   19.1502 C.ar    1  UNL1        0.0160
     32 C          -3.1366  -18.1859   20.6463 C.ar    1  UNL1        0.0162
@<TRIPOS>BOND
     1    18    19    1
     2    19     7    1
     3     7    20    1
     4    20    21    1
     5     7     8    1
     6     8     9    1
     7     9     1    1
     8     1     2   am
     9     2     3    2
    10     2     4   am
    11     4    22    1
    12    22    23   ar
    13    23    24   ar
    14    24    25   ar
    15    25    26   ar
    16    26    27   ar
    17    27    28   ar
    18    28    29   ar
    19    29    30    1
    20    29    31   ar
    21    31    32   ar
    22     9    10    1
    23    10    11   ar
    24    11    12   ar
    25    12    13    1
    26    12    14   ar
    27    14    15   ar
    28    15    16   ar
    29    16    17    1
    30    17     7    1
    31    32    22   ar
    32    16    10   ar
    33    32    26   ar
    34     1     5    1
    35     4     6    1
@<TRIPOS>MOLECULE
*****
 32 35 0 0 0
SMALL
GASTEIGER

@<TRIPOS>ATOM
      1 N          -8.7270  -17.1626   22.7187 N.am    1  UNL1       -0.2863
      2 C          -7.8836  -18.1734   21.9997 C.2     1  UNL1        0.3047
      3 O          -8.5361  -19.2858   21.2336 O.2     1  UNL1       -0.2525
      4 N          -6.3878  -18.0719   22.0468 N.am    1  UNL1       -0.2683
      5 H          -8.2987  -16.4325   23.2216 H       1  UNL1        0.1512
      6 H          -5.9595  -17.3418   22.5497 H       1  UNL1        0.1564
      7 C         -12.4566  -18.0806   23.7173 C.3     1  UNL1        0.1350
      8 C         -10.9607  -17.9791   23.7644 C.3     1  UNL1        0.0642
      9 C         -10.2228  -17.2642   22.6716 C.3     1  UNL1        0.1020
     10 C         -10.9806  -16.6507   21.5317 C.ar    1  UNL1        0.0319
     11 C         -10.2426  -15.9358   20.4389 C.ar    1  UNL1        0.0300
     12 C         -11.0005  -15.3224   19.2990 C.ar    1  UNL1        0.1401
     13 F         -10.2625  -14.6074   18.2061 F       1  UNL1       -0.2042
     14 C         -12.4963  -15.4239   19.2519 C.ar    1  UNL1        0.0327
     15 C         -13.2343  -16.1389   20.3447 C.ar    1  UNL1        0.0389
     16 C         -12.4764  -16.7523   21.4846 C.ar    1  UNL1        0.1358
     17 O         -13.2144  -17.4672   22.5774 O.3     1  UNL1       -0.4828
     18 C         -14.2577  -18.4150   25.5596 C.3     1  UNL1        0.0037
     19 C         -13.8582  -18.4383   24.1139 C.3     1  UNL1        0.0401
     20 C         -12.1855  -18.8183   24.9950 C.3     1  UNL1        0.0401
     21 C         -10.8471  -19.4560   25.2233 C.3     1  UNL1        0.0037
     22 C          -5.5444  -19.0828   21.3278 C.ar    1  UNL1        0.0516
     23 C          -6.1530  -20.3723   20.8622 C.ar    1  UNL1        0.0147
     24 C          -5.3096  -21.3831   20.1432 C.ar    1  UNL1        0.0013
     25 C          -3.8577  -21.1043   19.8898 C.ar    1  UNL1        0.0016
     26 C          -3.2492  -19.8148   20.3553 C.ar    1  UNL1        0.0204
     27 C          -1.7972  -19.5361   20.1018 C.ar    1  UNL1        0.0984
     28 N          -1.1887  -18.2466   20.5674 N.ar    1  UNL1       -0.2481
     29 C          -2.0320  -17.2357   21.2864 C.ar    1  UNL1        0.0594
     30 C          -1.4235  -15.9462   21.7519 C.3     1  UNL1        0.0521
     31 C          -3.4839  -17.5145   21.5399 C.ar    1  UNL1        0.0160
     32 C          -4.0925  -18.8041   21.0743 C.ar    1  UNL1        0.0162
@<TRIPOS>BOND
     1    18    19    1
     2    19     7    1
     3     7    20    1
     4    20    21    1
     5     7     8    1
     6     8     9    1
     7     9     1    1
     8     1     2   am
     9     2     3    2
    10     2     4   am
    11     4    22    1
    12    22    23   ar
    13    23    24   ar
    14    24    25   ar
    15    25    26   ar
    16    26    27   ar
    17    27    28   ar
    18    28    29   ar
    19    29    30    1
    20    29    31   ar
    21    31    32   ar
    22     9    10    1
    23    10    11   ar
    24    11    12   ar
    25    12    13    1
    26    12    14   ar
    27    14    15   ar
    28    15    16   ar
    29    16    17    1
    30    17     7    1
    31    32    22   ar
    32    16    10   ar
    33    32    26   ar
    34     1     5    1
    35     4     6    1
