@<TRIPOS>MOLECULE
*****
 31 34 0 0 0
SMALL
GASTEIGER

@<TRIPOS>ATOM
      1 C          -1.6674    3.8327   19.8813 C.3     1  UNL1        0.2108
      2 C          -1.1264    2.4617   20.1600 C.3     1  UNL1        0.1468
      3 N           0.2324    2.3632   19.5325 N.am    1  UNL1       -0.2213
      4 C           0.5313    3.6734   18.8661 C.2     1  UNL1        0.4088
      5 O           1.7844    4.0153   18.1158 O.2     1  UNL1       -0.2258
      6 O          -0.6428    4.5816   19.0816 O.3     1  UNL1       -0.4345
      7 C           1.1342    1.1649   19.5657 C.ar    1  UNL1        0.0572
      8 C           2.0032    0.8473   18.3851 C.ar    1  UNL1        0.0163
      9 C           2.9048   -0.3510   18.4183 C.ar    1  UNL1        0.0162
     10 C           2.9375   -1.2316   19.6321 C.ar    1  UNL1        0.0541
     11 C           2.0686   -0.9140   20.8128 C.ar    1  UNL1        0.0162
     12 C           1.1669    0.2843   20.7796 C.ar    1  UNL1        0.0163
     13 N           3.8393   -2.4299   19.6653 N.am    1  UNL1       -0.2540
     14 C           3.3864   -3.7262   19.0618 C.3     1  UNL1        0.1303
     15 C           4.2882   -4.9245   19.0950 C.3     1  UNL1        0.1646
     16 O           5.6428   -4.8264   19.7317 O.3     1  UNL1       -0.3426
     17 C           6.0956   -3.5299   20.3352 C.3     1  UNL1        0.2275
     18 C           5.1939   -2.3317   20.3020 C.2     1  UNL1        0.2596
     19 O           5.6467   -1.0353   20.9056 O.2     1  UNL1       -0.2718
     20 C          -2.9991    4.3620   20.3245 C.3     1  UNL1        0.1470
     21 O          -2.8641    6.1950   23.8418 O.2     1  UNL1       -0.2645
     22 C          -2.6234    5.8877   22.3935 C.2     1  UNL1        0.3094
     23 N          -3.2398    4.6692   21.7728 N.am    1  UNL1       -0.2149
     24 C          -4.0969    3.7579   22.6004 C.2     1  UNL1        0.2612
     25 O          -4.7133    2.5394   21.9797 O.2     1  UNL1       -0.2689
     26 C          -4.3376    4.0652   24.0487 C.ar    1  UNL1        0.0842
     27 C          -3.5061    3.5863   25.2017 C.ar    1  UNL1        0.0125
     28 C          -4.1066    4.1304   26.4639 C.ar    1  UNL1        0.0186
     29 C          -5.3093    4.9456   26.0911 C.ar    1  UNL1        0.0871
     30 CL         -6.2110    5.6733   27.0437 Cl      1  UNL1       -0.0752
     31 S          -5.4521    4.9053   24.5985 S.2     1  UNL1       -0.0709
@<TRIPOS>BOND
     1    21    22    2
     2    22    23   am
     3    23    20    1
     4     1    20    1
     5     1     2    1
     6     2     3    1
     7     3     7    1
     8     7     8   ar
     9     8     9   ar
    10     9    10   ar
    11    10    13    1
    12    13    14    1
    13    14    15    1
    14    15    16    1
    15    16    17    1
    16    17    18    1
    17    18    19    2
    18    10    11   ar
    19    11    12   ar
    20     3     4   am
    21     4     5    2
    22     4     6    1
    23    23    24   am
    24    24    25    2
    25    24    26    1
    26    26    27   ar
    27    27    28   ar
    28    28    29   ar
    29    29    30    1
    30    29    31   ar
    31     6     1    1
    32    31    26   ar
    33    12     7   ar
    34    18    13   am
@<TRIPOS>MOLECULE
*****
 31 34 0 0 0
SMALL
GASTEIGER

@<TRIPOS>ATOM
      1 C          -0.8706    2.4654   25.3458 C.3     1  UNL1        0.2108
      2 C           0.0841    1.4297   24.8301 C.3     1  UNL1        0.1468
      3 N           0.2722    1.6636   23.3604 N.am    1  UNL1       -0.2213
      4 C          -0.5663    2.8437   22.9678 C.2     1  UNL1        0.4088
      5 O          -0.6788    3.4261   21.5901 O.2     1  UNL1       -0.2258
      6 O          -1.2726    3.3393   24.1948 O.3     1  UNL1       -0.4345
      7 C           1.1455    0.8586   22.4442 C.ar    1  UNL1        0.0572
      8 C           0.6097    0.3774   21.1284 C.ar    1  UNL1        0.0163
      9 C           1.4830   -0.4276   20.2122 C.ar    1  UNL1        0.0162
     10 C           2.8920   -0.7514   20.6119 C.ar    1  UNL1        0.0541
     11 C           3.4278   -0.2702   21.9277 C.ar    1  UNL1        0.0162
     12 C           2.5546    0.5348   22.8438 C.ar    1  UNL1        0.0163
     13 N           3.7653   -1.5564   19.6956 N.am    1  UNL1       -0.2540
     14 C           3.6769   -3.0537   19.6991 C.3     1  UNL1        0.1303
     15 C           4.5502   -3.8587   18.7828 C.3     1  UNL1        0.1646
     16 O           5.5118   -3.1663   17.8632 O.3     1  UNL1       -0.3426
     17 C           5.6002   -1.6688   17.8597 C.3     1  UNL1        0.2275
     18 C           4.7269   -0.8639   18.7760 C.2     1  UNL1        0.2596
     19 O           4.8153    0.6335   18.7725 O.2     1  UNL1       -0.2718
     20 C          -1.3408    2.6030   26.7636 C.3     1  UNL1        0.1470
     21 O          -0.4698   -0.1388   29.4974 O.2     1  UNL1       -0.2645
     22 C          -1.1835    0.5884   28.3966 C.2     1  UNL1        0.3094
     23 N          -0.6271    1.8757   27.8643 N.am    1  UNL1       -0.2149
     24 C           0.6430    2.4358   28.4328 C.2     1  UNL1        0.2612
     25 O           1.1994    3.7231   27.9006 O.2     1  UNL1       -0.2689
     26 C           1.3567    1.7086   29.5336 C.ar    1  UNL1        0.0842
     27 C           1.1721    1.9357   31.0048 C.ar    1  UNL1        0.0125
     28 C           2.0816    0.9940   31.7369 C.ar    1  UNL1        0.0186
     29 C           2.8283    0.1849   30.7183 C.ar    1  UNL1        0.0871
     30 CL          3.8446   -0.8790   31.0100 Cl      1  UNL1       -0.0752
     31 S           2.3803    0.6265   29.3566 S.2     1  UNL1       -0.0709
@<TRIPOS>BOND
     1    21    22    2
     2    22    23   am
     3    23    20    1
     4     1    20    1
     5     1     2    1
     6     2     3    1
     7     3     7    1
     8     7     8   ar
     9     8     9   ar
    10     9    10   ar
    11    10    13    1
    12    13    14    1
    13    14    15    1
    14    15    16    1
    15    16    17    1
    16    17    18    1
    17    18    19    2
    18    10    11   ar
    19    11    12   ar
    20     3     4   am
    21     4     5    2
    22     4     6    1
    23    23    24   am
    24    24    25    2
    25    24    26    1
    26    26    27   ar
    27    27    28   ar
    28    28    29   ar
    29    29    30    1
    30    29    31   ar
    31     6     1    1
    32    31    26   ar
    33    12     7   ar
    34    18    13   am
@<TRIPOS>MOLECULE
*****
 31 34 0 0 0
SMALL
GASTEIGER

@<TRIPOS>ATOM
      1 C          -0.5907    2.1939   25.3192 C.3     1  UNL1        0.2108
      2 C           0.4553    1.2894   24.7381 C.3     1  UNL1        0.1468
      3 N           0.6045    1.6273   23.2843 N.am    1  UNL1       -0.2213
      4 C          -0.3494    2.7406   22.9669 C.2     1  UNL1        0.4088
      5 O          -0.5324    3.3897   21.6271 O.2     1  UNL1       -0.2258
      6 O          -1.0881    3.0908   24.2245 O.3     1  UNL1       -0.4345
      7 C           1.5428    0.9676   22.3175 C.ar    1  UNL1        0.0572
      8 C           3.0230    1.0203   22.5545 C.ar    1  UNL1        0.0163
      9 C           3.9612    0.3607   21.5877 C.ar    1  UNL1        0.0162
     10 C           3.4192   -0.3517   20.3841 C.ar    1  UNL1        0.0541
     11 C           1.9390   -0.4044   20.1471 C.ar    1  UNL1        0.0162
     12 C           1.0008    0.2553   21.1139 C.ar    1  UNL1        0.0163
     13 N           4.3574   -1.0113   19.4173 N.am    1  UNL1       -0.2540
     14 C           5.1440   -0.1787   18.4488 C.3     1  UNL1        0.1303
     15 C           6.0822   -0.8384   17.4820 C.3     1  UNL1        0.1646
     16 O           6.2340   -2.3307   17.4839 O.3     1  UNL1       -0.3426
     17 C           5.4474   -3.1633   18.4525 C.3     1  UNL1        0.2275
     18 C           4.5092   -2.5036   19.4191 C.2     1  UNL1        0.2596
     19 O           3.7226   -3.3363   20.3877 O.2     1  UNL1       -0.2718
     20 C          -1.0574    2.2005   26.7448 C.3     1  UNL1        0.1470
     21 O          -0.1398   -0.5391   29.4655 O.2     1  UNL1       -0.2645
     22 C          -0.9027    0.2232   28.4231 C.2     1  UNL1        0.3094
     23 N          -0.2945    1.4381   27.7872 N.am    1  UNL1       -0.2149
     24 C           1.0765    1.8906   28.1938 C.2     1  UNL1        0.2612
     25 O           1.6847    3.1055   27.5580 O.2     1  UNL1       -0.2689
     26 C           1.8395    1.1282   29.2363 C.ar    1  UNL1        0.0842
     27 C           2.6374   -0.1211   29.0074 C.ar    1  UNL1        0.0125
     28 C           3.2295   -0.5401   30.3203 C.ar    1  UNL1        0.0186
     29 C           2.7975    0.4503   31.3608 C.ar    1  UNL1        0.0871
     30 CL          3.1607    0.4156   32.8157 Cl      1  UNL1       -0.0752
     31 S           1.9384    1.4814   30.6908 S.2     1  UNL1       -0.0709
@<TRIPOS>BOND
     1    21    22    2
     2    22    23   am
     3    23    20    1
     4     1    20    1
     5     1     2    1
     6     2     3    1
     7     3     7    1
     8     7     8   ar
     9     8     9   ar
    10     9    10   ar
    11    10    13    1
    12    13    14    1
    13    14    15    1
    14    15    16    1
    15    16    17    1
    16    17    18    1
    17    18    19    2
    18    10    11   ar
    19    11    12   ar
    20     3     4   am
    21     4     5    2
    22     4     6    1
    23    23    24   am
    24    24    25    2
    25    24    26    1
    26    26    27   ar
    27    27    28   ar
    28    28    29   ar
    29    29    30    1
    30    29    31   ar
    31     6     1    1
    32    31    26   ar
    33    12     7   ar
    34    18    13   am
@<TRIPOS>MOLECULE
*****
 31 34 0 0 0
SMALL
GASTEIGER

@<TRIPOS>ATOM
      1 C           7.1939   -3.3619   21.1624 C.3     1  UNL1        0.2108
      2 C           7.0826   -2.7673   22.5351 C.3     1  UNL1        0.1468
      3 N           7.4090   -3.8391   23.5323 N.am    1  UNL1       -0.2213
      4 C           7.7221   -5.0961   22.7761 C.2     1  UNL1        0.4088
      5 O           8.1015   -6.4163   23.3787 O.2     1  UNL1       -0.2258
      6 O           7.5891   -4.8012   21.3114 O.3     1  UNL1       -0.4345
      7 C           7.4204   -3.6816   25.0241 C.ar    1  UNL1        0.0572
      8 C           6.2590   -3.0350   25.7188 C.ar    1  UNL1        0.0163
      9 C           6.2704   -2.8775   27.2105 C.ar    1  UNL1        0.0162
     10 C           7.4433   -3.3667   28.0073 C.ar    1  UNL1        0.0541
     11 C           8.6048   -4.0134   27.3125 C.ar    1  UNL1        0.0162
     12 C           8.5933   -4.1709   25.8209 C.ar    1  UNL1        0.0163
     13 N           7.4547   -3.2092   29.4991 N.am    1  UNL1       -0.2540
     14 C           7.9084   -1.9183   30.1135 C.3     1  UNL1        0.1303
     15 C           7.9198   -1.7608   31.6052 C.3     1  UNL1        0.1646
     16 O           7.4775   -2.8943   32.4824 O.3     1  UNL1       -0.3426
     17 C           7.0238   -4.1853   31.8679 C.3     1  UNL1        0.2275
     18 C           7.0124   -4.3428   30.3763 C.2     1  UNL1        0.2596
     19 O           6.5588   -5.6338   29.7618 O.2     1  UNL1       -0.2718
     20 C           6.9523   -2.6433   19.8681 C.3     1  UNL1        0.1470
     21 O           4.8610    0.7254   20.0357 O.2     1  UNL1       -0.2645
     22 C           6.0003   -0.2430   20.1547 C.2     1  UNL1        0.3094
     23 N           5.8130   -1.6749   19.7491 N.am    1  UNL1       -0.2149
     24 C           4.4864   -2.1385   19.2246 C.2     1  UNL1        0.2612
     25 O           4.2991   -3.5705   18.8191 O.2     1  UNL1       -0.2689
     26 C           3.3470   -1.1702   19.1057 C.ar    1  UNL1        0.0842
     27 C           3.1000   -0.2360   17.9584 C.ar    1  UNL1        0.0125
     28 C           1.8550    0.5456   18.2568 C.ar    1  UNL1        0.0186
     29 C           1.3325    0.0944   19.5885 C.ar    1  UNL1        0.0871
     30 CL          0.1036    0.6127   20.2750 Cl      1  UNL1       -0.0752
     31 S           2.2546   -0.9659   20.1132 S.2     1  UNL1       -0.0709
@<TRIPOS>BOND
     1    21    22    2
     2    22    23   am
     3    23    20    1
     4     1    20    1
     5     1     2    1
     6     2     3    1
     7     3     7    1
     8     7     8   ar
     9     8     9   ar
    10     9    10   ar
    11    10    13    1
    12    13    14    1
    13    14    15    1
    14    15    16    1
    15    16    17    1
    16    17    18    1
    17    18    19    2
    18    10    11   ar
    19    11    12   ar
    20     3     4   am
    21     4     5    2
    22     4     6    1
    23    23    24   am
    24    24    25    2
    25    24    26    1
    26    26    27   ar
    27    27    28   ar
    28    28    29   ar
    29    29    30    1
    30    29    31   ar
    31     6     1    1
    32    31    26   ar
    33    12     7   ar
    34    18    13   am
@<TRIPOS>MOLECULE
*****
 31 34 0 0 0
SMALL
GASTEIGER

@<TRIPOS>ATOM
      1 C          -0.1594    3.2889   19.5256 C.3     1  UNL1        0.2108
      2 C          -0.8345    3.5890   20.8310 C.3     1  UNL1        0.1468
      3 N          -2.2483    3.9960   20.5390 N.am    1  UNL1       -0.2213
      4 C          -2.4471    3.9474   19.0530 C.2     1  UNL1        0.4088
      5 O          -3.7144    4.2778   18.3217 O.2     1  UNL1       -0.2258
      6 O          -1.1562    3.5104   18.4266 O.3     1  UNL1       -0.4345
      7 C          -3.2820    4.3836   21.5546 C.ar    1  UNL1        0.0572
      8 C          -4.1790    3.3383   22.1483 C.ar    1  UNL1        0.0163
      9 C          -5.2126    3.7259   23.1639 C.ar    1  UNL1        0.0162
     10 C          -5.3491    5.1589   23.5857 C.ar    1  UNL1        0.0541
     11 C          -4.4521    6.2042   22.9920 C.ar    1  UNL1        0.0162
     12 C          -3.4185    5.8166   21.9764 C.ar    1  UNL1        0.0163
     13 N          -6.3828    5.5465   24.6013 N.am    1  UNL1       -0.2540
     14 C          -5.9863    5.7557   26.0327 C.3     1  UNL1        0.1303
     15 C          -7.0200    6.1433   27.0483 C.3     1  UNL1        0.1646
     16 O          -8.4501    6.3217   26.6325 O.3     1  UNL1       -0.3426
     17 C          -8.8465    6.1124   25.2010 C.3     1  UNL1        0.2275
     18 C          -7.8129    5.7248   24.1854 C.2     1  UNL1        0.2596
     19 O          -8.2094    5.5156   22.7539 O.2     1  UNL1       -0.2718
     20 C           1.2626    2.8451   19.3498 C.3     1  UNL1        0.1470
     21 O           0.9546   -1.0280   20.1588 O.2     1  UNL1       -0.2645
     22 C           0.5762    0.3993   19.8945 C.2     1  UNL1        0.3094
     23 N           1.6410    1.4179   19.6141 N.am    1  UNL1       -0.2149
     24 C           3.0842    1.0093   19.5978 C.2     1  UNL1        0.2612
     25 O           4.1490    2.0280   19.3173 O.2     1  UNL1       -0.2689
     26 C           3.4626   -0.4179   19.8620 C.ar    1  UNL1        0.0842
     27 C           3.6810   -1.0370   21.2108 C.ar    1  UNL1        0.0125
     28 C           4.0424   -2.4783   21.0062 C.ar    1  UNL1        0.0186
     29 C           4.0474   -2.7501   19.5311 C.ar    1  UNL1        0.0871
     30 CL          4.3565   -4.0645   18.8777 Cl      1  UNL1       -0.0752
     31 S           3.6891   -1.4767   18.8239 S.2     1  UNL1       -0.0709
@<TRIPOS>BOND
     1    21    22    2
     2    22    23   am
     3    23    20    1
     4     1    20    1
     5     1     2    1
     6     2     3    1
     7     3     7    1
     8     7     8   ar
     9     8     9   ar
    10     9    10   ar
    11    10    13    1
    12    13    14    1
    13    14    15    1
    14    15    16    1
    15    16    17    1
    16    17    18    1
    17    18    19    2
    18    10    11   ar
    19    11    12   ar
    20     3     4   am
    21     4     5    2
    22     4     6    1
    23    23    24   am
    24    24    25    2
    25    24    26    1
    26    26    27   ar
    27    27    28   ar
    28    28    29   ar
    29    29    30    1
    30    29    31   ar
    31     6     1    1
    32    31    26   ar
    33    12     7   ar
    34    18    13   am
@<TRIPOS>MOLECULE
*****
 31 34 0 0 0
SMALL
GASTEIGER

@<TRIPOS>ATOM
      1 C          -6.1008    5.7449   24.6476 C.3     1  UNL1        0.2108
      2 C          -7.4414    5.3848   24.0792 C.3     1  UNL1        0.1468
      3 N          -8.4948    5.8954   25.0170 N.am    1  UNL1       -0.2213
      4 C          -7.8052    6.5710   26.1651 C.2     1  UNL1        0.4088
      5 O          -8.4773    7.2249   27.3359 O.2     1  UNL1       -0.2258
      6 O          -6.3256    6.4780   25.9368 O.3     1  UNL1       -0.4345
      7 C          -9.9775    5.7550   24.8382 C.ar    1  UNL1        0.0572
      8 C         -10.8172    6.9659   24.5584 C.ar    1  UNL1        0.0163
      9 C         -12.2998    6.8255   24.3796 C.ar    1  UNL1        0.0162
     10 C         -12.9428    5.4740   24.4807 C.ar    1  UNL1        0.0541
     11 C         -12.1031    4.2631   24.7606 C.ar    1  UNL1        0.0162
     12 C         -10.6205    4.4035   24.9393 C.ar    1  UNL1        0.0163
     13 N         -14.4255    5.3336   24.3019 N.am    1  UNL1       -0.2540
     14 C         -15.3469    5.5750   25.4607 C.3     1  UNL1        0.1303
     15 C         -16.8296    5.4346   25.2819 C.3     1  UNL1        0.1646
     16 O         -17.3909    5.0528   23.9443 O.3     1  UNL1       -0.3426
     17 C         -16.4694    4.8114   22.7855 C.3     1  UNL1        0.2275
     18 C         -14.9868    4.9518   22.9643 C.2     1  UNL1        0.2596
     19 O         -14.0654    4.7105   21.8055 O.2     1  UNL1       -0.2718
     20 C          -4.7690    5.4276   24.0345 C.3     1  UNL1        0.1470
     21 O          -4.3842    2.5984   21.2781 O.2     1  UNL1       -0.2645
     22 C          -4.4522    3.2745   22.6154 C.2     1  UNL1        0.3094
     23 N          -4.7010    4.7514   22.6973 N.am    1  UNL1       -0.2149
     24 C          -4.8818    5.5523   21.4419 C.2     1  UNL1        0.2612
     25 O          -5.1306    7.0293   21.5238 O.2     1  UNL1       -0.2689
     26 C          -4.8138    4.8762   20.1047 C.ar    1  UNL1        0.0842
     27 C          -5.9435    4.1706   19.4149 C.ar    1  UNL1        0.0125
     28 C          -5.4320    3.6453   18.1063 C.ar    1  UNL1        0.0186
     29 C          -3.9861    4.0262   17.9873 C.ar    1  UNL1        0.0871
     30 CL         -3.0811    3.7032   16.8355 Cl      1  UNL1       -0.0752
     31 S          -3.6039    4.7870   19.2223 S.2     1  UNL1       -0.0709
@<TRIPOS>BOND
     1    21    22    2
     2    22    23   am
     3    23    20    1
     4     1    20    1
     5     1     2    1
     6     2     3    1
     7     3     7    1
     8     7     8   ar
     9     8     9   ar
    10     9    10   ar
    11    10    13    1
    12    13    14    1
    13    14    15    1
    14    15    16    1
    15    16    17    1
    16    17    18    1
    17    18    19    2
    18    10    11   ar
    19    11    12   ar
    20     3     4   am
    21     4     5    2
    22     4     6    1
    23    23    24   am
    24    24    25    2
    25    24    26    1
    26    26    27   ar
    27    27    28   ar
    28    28    29   ar
    29    29    30    1
    30    29    31   ar
    31     6     1    1
    32    31    26   ar
    33    12     7   ar
    34    18    13   am
@<TRIPOS>MOLECULE
*****
 31 34 0 0 0
SMALL
GASTEIGER

@<TRIPOS>ATOM
      1 C          -1.5201    3.6800   23.4546 C.3     1  UNL1        0.2108
      2 C          -0.8288    2.9900   22.3162 C.3     1  UNL1        0.1468
      3 N           0.0878    1.9514   22.8915 N.am    1  UNL1       -0.2213
      4 C          -0.0371    1.9993   24.3855 C.2     1  UNL1        0.4088
      5 O           0.7020    1.1314   25.3604 O.2     1  UNL1       -0.2258
      6 O          -1.0308    3.0677   24.7336 O.3     1  UNL1       -0.4345
      7 C           0.9737    1.0269   22.1100 C.ar    1  UNL1        0.0572
      8 C           2.3487    0.7019   22.6137 C.ar    1  UNL1        0.0163
      9 C           3.2346   -0.2224   21.8322 C.ar    1  UNL1        0.0162
     10 C           2.7455   -0.8218   20.5471 C.ar    1  UNL1        0.0541
     11 C           1.3705   -0.4968   20.0435 C.ar    1  UNL1        0.0162
     12 C           0.4846    0.4276   20.8249 C.ar    1  UNL1        0.0163
     13 N           3.6314   -1.7462   19.7656 N.am    1  UNL1       -0.2540
     14 C           3.4825   -3.2314   19.9140 C.3     1  UNL1        0.1303
     15 C           4.3685   -4.1558   19.1326 C.3     1  UNL1        0.1646
     16 O           5.4033   -3.5950   18.2027 O.3     1  UNL1       -0.3426
     17 C           5.5522   -2.1097   18.0543 C.3     1  UNL1        0.2275
     18 C           4.6662   -1.1854   18.8358 C.2     1  UNL1        0.2596
     19 O           4.8151    0.2999   18.6874 O.2     1  UNL1       -0.2718
     20 C          -2.5244    4.7877   23.3350 C.3     1  UNL1        0.1470
     21 O          -3.8762    5.7979   19.7431 O.2     1  UNL1       -0.2645
     22 C          -2.9938    5.7129   20.9531 C.2     1  UNL1        0.3094
     23 N          -3.4069    4.8727   22.1251 N.am    1  UNL1       -0.2149
     24 C          -4.7023    4.1175   22.0870 C.2     1  UNL1        0.2612
     25 O          -5.1153    3.2773   23.2590 O.2     1  UNL1       -0.2689
     26 C          -5.5847    4.2025   20.8771 C.ar    1  UNL1        0.0842
     27 C          -5.4913    3.3375   19.6551 C.ar    1  UNL1        0.0125
     28 C          -6.5643    3.7679   18.6994 C.ar    1  UNL1        0.0186
     29 C          -7.3210    4.8987   19.3307 C.ar    1  UNL1        0.0871
     30 CL         -8.4797    5.6323   18.7228 Cl      1  UNL1       -0.0752
     31 S          -6.7156    5.1674   20.6765 S.2     1  UNL1       -0.0709
@<TRIPOS>BOND
     1    21    22    2
     2    22    23   am
     3    23    20    1
     4     1    20    1
     5     1     2    1
     6     2     3    1
     7     3     7    1
     8     7     8   ar
     9     8     9   ar
    10     9    10   ar
    11    10    13    1
    12    13    14    1
    13    14    15    1
    14    15    16    1
    15    16    17    1
    16    17    18    1
    17    18    19    2
    18    10    11   ar
    19    11    12   ar
    20     3     4   am
    21     4     5    2
    22     4     6    1
    23    23    24   am
    24    24    25    2
    25    24    26    1
    26    26    27   ar
    27    27    28   ar
    28    28    29   ar
    29    29    30    1
    30    29    31   ar
    31     6     1    1
    32    31    26   ar
    33    12     7   ar
    34    18    13   am
@<TRIPOS>MOLECULE
*****
 31 34 0 0 0
SMALL
GASTEIGER

@<TRIPOS>ATOM
      1 C          -0.3901    2.6090   20.9550 C.3     1  UNL1        0.2108
      2 C          -1.7008    3.2805   21.2398 C.3     1  UNL1        0.1468
      3 N          -1.7995    3.4949   22.7211 N.am    1  UNL1       -0.2213
      4 C          -0.5499    2.9558   23.3518 C.2     1  UNL1        0.4088
      5 O          -0.2278    2.9630   24.8168 O.2     1  UNL1       -0.2258
      6 O           0.3213    2.4083   22.2603 O.3     1  UNL1       -0.4345
      7 C          -2.9466    4.1358   23.4447 C.ar    1  UNL1        0.0572
      8 C          -2.9552    5.6183   23.6727 C.ar    1  UNL1        0.0163
      9 C          -4.1023    6.2591   24.3963 C.ar    1  UNL1        0.0162
     10 C          -5.2407    5.4174   24.8919 C.ar    1  UNL1        0.0541
     11 C          -5.2320    3.9349   24.6639 C.ar    1  UNL1        0.0162
     12 C          -4.0850    3.2941   23.9403 C.ar    1  UNL1        0.0163
     13 N          -6.3877    6.0583   25.6155 N.am    1  UNL1       -0.2540
     14 C          -7.5165    6.6696   24.8395 C.3     1  UNL1        0.1303
     15 C          -8.6636    7.3105   25.5632 C.3     1  UNL1        0.1646
     16 O          -8.6818    7.3400   27.0628 O.3     1  UNL1       -0.3426
     17 C          -7.5529    6.7287   27.8387 C.3     1  UNL1        0.2275
     18 C          -6.4060    6.0879   27.1151 C.2     1  UNL1        0.2596
     19 O          -5.2771    5.4765   27.8911 O.2     1  UNL1       -0.2718
     20 C           0.1198    2.2085   19.6023 C.3     1  UNL1        0.1470
     21 O           1.9154   -1.3155   19.9303 O.2     1  UNL1       -0.2645
     22 C           0.8837   -0.2336   20.0527 C.2     1  UNL1        0.3094
     23 N           1.1516    1.1266   19.4799 N.am    1  UNL1       -0.2149
     24 C           2.4513    1.4050   18.7847 C.2     1  UNL1        0.2612
     25 O           2.7192    2.7652   18.2119 O.2     1  UNL1       -0.2689
     26 C           3.4830    0.3231   18.6622 C.ar    1  UNL1        0.0842
     27 C           3.5985   -0.6619   17.5369 C.ar    1  UNL1        0.0125
     28 C           4.7673   -1.5575   17.8228 C.ar    1  UNL1        0.0186
     29 C           5.3742   -1.1261   19.1249 C.ar    1  UNL1        0.0871
     30 CL          6.5657   -1.7477   19.7912 Cl      1  UNL1       -0.0752
     31 S           4.5805    0.0362   19.6437 S.2     1  UNL1       -0.0709
@<TRIPOS>BOND
     1    21    22    2
     2    22    23   am
     3    23    20    1
     4     1    20    1
     5     1     2    1
     6     2     3    1
     7     3     7    1
     8     7     8   ar
     9     8     9   ar
    10     9    10   ar
    11    10    13    1
    12    13    14    1
    13    14    15    1
    14    15    16    1
    15    16    17    1
    16    17    18    1
    17    18    19    2
    18    10    11   ar
    19    11    12   ar
    20     3     4   am
    21     4     5    2
    22     4     6    1
    23    23    24   am
    24    24    25    2
    25    24    26    1
    26    26    27   ar
    27    27    28   ar
    28    28    29   ar
    29    29    30    1
    30    29    31   ar
    31     6     1    1
    32    31    26   ar
    33    12     7   ar
    34    18    13   am
@<TRIPOS>MOLECULE
*****
 31 34 0 0 0
SMALL
GASTEIGER

@<TRIPOS>ATOM
      1 C          -0.5683    2.5666   27.1565 C.3     1  UNL1        0.2108
      2 C           0.4922    2.7985   28.1916 C.3     1  UNL1        0.1468
      3 N           0.4086    1.6890   29.1975 N.am    1  UNL1       -0.2213
      4 C          -0.7036    0.7713   28.7840 C.2     1  UNL1        0.4088
      5 O          -1.1361   -0.4708   29.5053 O.2     1  UNL1       -0.2258
      6 O          -1.3074    1.3137   27.5226 O.3     1  UNL1       -0.4345
      7 C           1.2835    1.5257   30.4050 C.ar    1  UNL1        0.0572
      8 C           2.5589    0.7423   30.3066 C.ar    1  UNL1        0.0163
      9 C           3.4338    0.5791   31.5140 C.ar    1  UNL1        0.0162
     10 C           3.0333    1.1992   32.8198 C.ar    1  UNL1        0.0541
     11 C           1.7579    1.9825   32.9182 C.ar    1  UNL1        0.0162
     12 C           0.8830    2.1458   31.7107 C.ar    1  UNL1        0.0163
     13 N           3.9083    1.0359   34.0272 N.am    1  UNL1       -0.2540
     14 C           4.3866    2.2445   34.7758 C.3     1  UNL1        0.1303
     15 C           5.2615    2.0812   35.9833 C.3     1  UNL1        0.1646
     16 O           5.6581    0.7093   36.4421 O.3     1  UNL1       -0.3426
     17 C           5.1798   -0.4994   35.6934 C.3     1  UNL1        0.2275
     18 C           4.3049   -0.3360   34.4860 C.2     1  UNL1        0.2596
     19 O           3.8265   -1.5447   33.7374 O.2     1  UNL1       -0.2718
     20 C          -0.8418    3.4352   25.9644 C.3     1  UNL1        0.1470
     21 O          -4.7469    4.1066   26.1861 O.2     1  UNL1       -0.2645
     22 C          -3.3329    3.8178   26.5951 C.2     1  UNL1        0.3094
     23 N          -2.2557    3.7240   25.5554 N.am    1  UNL1       -0.2149
     24 C          -2.5925    3.9189   24.1068 C.2     1  UNL1        0.2612
     25 O          -1.5153    3.8250   23.0671 O.2     1  UNL1       -0.2689
     26 C          -4.0064    4.2077   23.6978 C.ar    1  UNL1        0.0842
     27 C          -5.0514    3.1872   23.3563 C.ar    1  UNL1        0.0125
     28 C          -6.3145    3.9165   23.0059 C.ar    1  UNL1        0.0186
     29 C          -6.0502    5.3877   23.1309 C.ar    1  UNL1        0.0871
     30 CL         -7.0387    6.4862   22.8734 Cl      1  UNL1       -0.0752
     31 S          -4.6237    5.5677   23.5585 S.2     1  UNL1       -0.0709
@<TRIPOS>BOND
     1    21    22    2
     2    22    23   am
     3    23    20    1
     4     1    20    1
     5     1     2    1
     6     2     3    1
     7     3     7    1
     8     7     8   ar
     9     8     9   ar
    10     9    10   ar
    11    10    13    1
    12    13    14    1
    13    14    15    1
    14    15    16    1
    15    16    17    1
    16    17    18    1
    17    18    19    2
    18    10    11   ar
    19    11    12   ar
    20     3     4   am
    21     4     5    2
    22     4     6    1
    23    23    24   am
    24    24    25    2
    25    24    26    1
    26    26    27   ar
    27    27    28   ar
    28    28    29   ar
    29    29    30    1
    30    29    31   ar
    31     6     1    1
    32    31    26   ar
    33    12     7   ar
    34    18    13   am
