@<TRIPOS>MOLECULE
*****
 32 35 0 0 0
SMALL
GASTEIGER

@<TRIPOS>ATOM
      1 C           8.0514   -7.8098   26.0605 C.ar    1  UNL1       -0.0045
      2 C           8.8402   -8.0628   24.8100 C.ar    1  UNL1       -0.0026
      3 C           8.8334   -7.0521   23.7017 C.ar    1  UNL1        0.0029
      4 C           8.0377   -5.7885   23.8439 C.ar    1  UNL1        0.0391
      5 C           7.2489   -5.5355   25.0944 C.ar    1  UNL1        0.0029
      6 C           7.2557   -6.5462   26.2027 C.ar    1  UNL1       -0.0026
      7 C           8.0310   -4.7777   22.7355 C.ar    1  UNL1        0.2033
      8 N           9.1985   -3.9460   22.2936 N.ar    1  UNL1       -0.0560
      9 O           8.7446   -3.0756   21.1594 O.2     1  UNL1       -0.3370
     10 C           7.2966   -3.3693   20.9005 C.ar    1  UNL1        0.2366
     11 N           6.8556   -4.4213   21.8745 N.ar    1  UNL1       -0.1907
     12 C           6.4400   -2.7242   19.8515 C.3     1  UNL1        0.0880
     13 C           4.9814   -3.0626   19.7620 C.3     1  UNL1        0.0098
     14 C           3.9640   -2.1749   20.4153 C.3     1  UNL1        0.0005
     15 C           2.7291   -1.6232   19.7669 C.3     1  UNL1        0.0000
     16 C           2.0048   -0.7904   20.7826 C.3     1  UNL1        0.0000
     17 C           2.7921   -0.8274   22.0589 C.3     1  UNL1        0.0000
     18 C           4.0029   -1.6831   21.8318 C.3     1  UNL1        0.0000
     19 C           9.3034   -9.0407   27.9756 C.3     1  UNL1        0.0262
     20 C           8.0581   -8.8206   27.1689 C.3     1  UNL1        0.0942
     21 N           6.8196   -9.6111   27.4706 N.am    1  UNL1       -0.3010
     22 C           6.9229  -11.0716   27.7968 C.2     1  UNL1        0.2394
     23 O           8.2648  -11.7415   27.8213 O.2     1  UNL1       -0.2736
     24 H           5.9389   -9.1715   27.4545 H       1  UNL1        0.1497
     25 C           5.6843  -11.8621   28.0984 C.3     1  UNL1        0.1586
     26 N           4.7168  -11.5940   29.2128 N.3     1  UNL1       -0.2893
     27 C           3.6303  -12.6258   29.1418 C.3     1  UNL1        0.0715
     28 C           3.9264  -13.5316   27.9834 C.3     1  UNL1        0.0482
     29 C           5.1959  -13.0597   27.3386 C.3     1  UNL1        0.1350
     30 O           5.8602  -13.6769   26.1438 O.3     1  UNL1       -0.3825
     31 H           4.3164  -10.6619   29.1068 H       1  UNL1        0.1237
     32 H           5.3410  -14.4390   25.8429 H       1  UNL1        0.2104
@<TRIPOS>BOND
     1    20    19    1
     2    20    21    1
     3    21    22   am
     4    22    23    2
     5    25    22    1
     6    25    26    1
     7    26    27    1
     8    27    28    1
     9    28    29    1
    10    29    30    1
    11    20     1    1
    12     1     2   ar
    13     2     3   ar
    14     3     4   ar
    15     4     7    1
    16     7     8   ar
    17     8     9   ar
    18     9    10   ar
    19    10    12    1
    20    12    13    1
    21    13    14    1
    22    14    15    1
    23    15    16    1
    24    16    17    1
    25    17    18    1
    26    10    11   ar
    27     4     5   ar
    28     5     6   ar
    29    29    25    1
    30     6     1   ar
    31    11     7   ar
    32    18    14    1
    33    21    24    1
    34    26    31    1
    35    30    32    1
@<TRIPOS>MOLECULE
*****
 32 35 0 0 0
SMALL
GASTEIGER

@<TRIPOS>ATOM
      1 C           8.0189   -7.8831   26.2486 C.ar    1  UNL1       -0.0045
      2 C           8.8808   -7.9742   25.0245 C.ar    1  UNL1       -0.0026
      3 C           8.8984   -6.8478   24.0341 C.ar    1  UNL1        0.0029
      4 C           8.0540   -5.6303   24.2679 C.ar    1  UNL1        0.0391
      5 C           7.1920   -5.5392   25.4920 C.ar    1  UNL1        0.0029
      6 C           7.1745   -6.6655   26.4824 C.ar    1  UNL1       -0.0026
      7 C           8.0716   -4.5039   23.2774 C.ar    1  UNL1        0.2033
      8 N           8.2277   -3.0476   23.6011 N.ar    1  UNL1       -0.0560
      9 O           8.1887   -2.2797   22.3131 O.2     1  UNL1       -0.3370
     10 C           8.0085   -3.2615   21.1934 C.ar    1  UNL1        0.2366
     11 N           7.9361   -4.6361   21.7894 N.ar    1  UNL1       -0.1907
     12 C           7.9169   -2.9272   19.7340 C.3     1  UNL1        0.0880
     13 C           6.6583   -2.3288   19.1793 C.3     1  UNL1        0.0098
     14 C           5.3879   -3.1264   19.1729 C.3     1  UNL1        0.0005
     15 C           5.2860   -4.6224   19.2112 C.3     1  UNL1        0.0000
     16 C           3.8316   -4.9887   19.1891 C.3     1  UNL1        0.0000
     17 C           3.0346   -3.7190   19.1372 C.3     1  UNL1        0.0000
     18 C           3.9965   -2.5681   19.1272 C.3     1  UNL1        0.0000
     19 C           9.2496   -9.3679   27.9895 C.3     1  UNL1        0.0262
     20 C           8.0013   -9.0095   27.2391 C.3     1  UNL1        0.0942
     21 N           6.7353   -9.7774   27.4792 N.am    1  UNL1       -0.3010
     22 C           6.7941  -11.2464   27.7765 C.2     1  UNL1        0.2394
     23 O           8.1190  -11.9476   27.8339 O.2     1  UNL1       -0.2736
     24 H           5.8658   -9.3172   27.4415 H       1  UNL1        0.1497
     25 C           5.5281  -12.0143   28.0166 C.3     1  UNL1        0.1586
     26 N           5.4230  -13.3567   28.6776 N.3     1  UNL1       -0.2893
     27 C           3.9749  -13.7467   28.7073 C.3     1  UNL1        0.0715
     28 C           3.1850  -12.6454   28.0646 C.3     1  UNL1        0.0482
     29 C           4.1450  -11.5747   27.6377 C.3     1  UNL1        0.1350
     30 O           3.7849  -10.2899   26.9523 O.3     1  UNL1       -0.3825
     31 H           5.7867  -13.3034   29.6290 H       1  UNL1        0.1237
     32 H           2.8244  -10.2508   26.8227 H       1  UNL1        0.2104
@<TRIPOS>BOND
     1    20    19    1
     2    20    21    1
     3    21    22   am
     4    22    23    2
     5    25    22    1
     6    25    26    1
     7    26    27    1
     8    27    28    1
     9    28    29    1
    10    29    30    1
    11    20     1    1
    12     1     2   ar
    13     2     3   ar
    14     3     4   ar
    15     4     7    1
    16     7     8   ar
    17     8     9   ar
    18     9    10   ar
    19    10    12    1
    20    12    13    1
    21    13    14    1
    22    14    15    1
    23    15    16    1
    24    16    17    1
    25    17    18    1
    26    10    11   ar
    27     4     5   ar
    28     5     6   ar
    29    29    25    1
    30     6     1   ar
    31    11     7   ar
    32    18    14    1
    33    21    24    1
    34    26    31    1
    35    30    32    1
@<TRIPOS>MOLECULE
*****
 32 35 0 0 0
SMALL
GASTEIGER

@<TRIPOS>ATOM
      1 C          -0.2256    2.2898   24.9509 C.ar    1  UNL1       -0.0045
      2 C           0.7241    1.1777   24.6173 C.ar    1  UNL1       -0.0026
      3 C           1.0840    0.9025   23.1874 C.ar    1  UNL1        0.0029
      4 C           0.4941    1.7392   22.0911 C.ar    1  UNL1        0.0391
      5 C          -0.4557    2.8512   22.4246 C.ar    1  UNL1        0.0029
      6 C          -0.8155    3.1265   23.8546 C.ar    1  UNL1       -0.0026
      7 C           0.8540    1.4638   20.6611 C.ar    1  UNL1        0.2033
      8 N           0.0982    1.9369   19.4549 N.ar    1  UNL1       -0.0560
      9 O           0.8099    1.4326   18.2346 O.2     1  UNL1       -0.3370
     10 C           2.0057    0.6478   18.6867 C.ar    1  UNL1        0.2366
     11 N           2.0329    0.6671   20.1863 N.ar    1  UNL1       -0.1907
     12 C           2.9996   -0.0363   17.7956 C.3     1  UNL1        0.0880
     13 C           4.2239   -0.6708   18.3858 C.3     1  UNL1        0.0098
     14 C           4.2333   -2.1387   18.6943 C.3     1  UNL1        0.0005
     15 C           5.2567   -3.1312   18.2278 C.3     1  UNL1        0.0000
     16 C           4.8768   -4.4777   18.7687 C.3     1  UNL1        0.0000
     17 C           3.6186   -4.3174   19.5696 C.3     1  UNL1        0.0000
     18 C           3.2209   -2.8719   19.5236 C.3     1  UNL1        0.0000
     19 C          -1.9123    3.1796   26.7153 C.3     1  UNL1        0.0262
     20 C          -0.5855    2.5651   26.3808 C.3     1  UNL1        0.0942
     21 N           0.3814    2.2258   27.4763 N.am    1  UNL1       -0.3010
     22 C           0.2018    0.9670   28.2719 C.2     1  UNL1        0.2394
     23 O          -0.9447    0.0474   27.9722 O.2     1  UNL1       -0.2736
     24 H           1.1339    2.8294   27.6730 H       1  UNL1        0.1497
     25 C           1.1687    0.6278   29.3673 C.3     1  UNL1        0.1586
     26 N           1.2171    1.2586   30.7274 N.3     1  UNL1       -0.2893
     27 C           2.3353    0.6189   31.4957 C.3     1  UNL1        0.0715
     28 C           2.9781   -0.4074   30.6104 C.3     1  UNL1        0.0482
     29 C           2.2572   -0.4018   29.2951 C.3     1  UNL1        0.1350
     30 O           2.5698   -1.2730   28.1147 O.3     1  UNL1       -0.3825
     31 H           0.3325    1.1054   31.2116 H       1  UNL1        0.1237
     32 H           3.3189   -1.8508   28.3286 H       1  UNL1        0.2104
@<TRIPOS>BOND
     1    20    19    1
     2    20    21    1
     3    21    22   am
     4    22    23    2
     5    25    22    1
     6    25    26    1
     7    26    27    1
     8    27    28    1
     9    28    29    1
    10    29    30    1
    11    20     1    1
    12     1     2   ar
    13     2     3   ar
    14     3     4   ar
    15     4     7    1
    16     7     8   ar
    17     8     9   ar
    18     9    10   ar
    19    10    12    1
    20    12    13    1
    21    13    14    1
    22    14    15    1
    23    15    16    1
    24    16    17    1
    25    17    18    1
    26    10    11   ar
    27     4     5   ar
    28     5     6   ar
    29    29    25    1
    30     6     1   ar
    31    11     7   ar
    32    18    14    1
    33    21    24    1
    34    26    31    1
    35    30    32    1
@<TRIPOS>MOLECULE
*****
 32 35 0 0 0
SMALL
GASTEIGER

@<TRIPOS>ATOM
      1 C           6.8520   -4.7588   29.0659 C.ar    1  UNL1       -0.0045
      2 C           7.0344   -5.9454   28.1667 C.ar    1  UNL1       -0.0026
      3 C           6.9308   -5.7822   26.6793 C.ar    1  UNL1        0.0029
      4 C           6.6450   -4.4323   26.0910 C.ar    1  UNL1        0.0391
      5 C           6.4626   -3.2456   26.9902 C.ar    1  UNL1        0.0029
      6 C           6.5662   -3.4089   28.4777 C.ar    1  UNL1       -0.0026
      7 C           6.5415   -4.2690   24.6035 C.ar    1  UNL1        0.2033
      8 N           7.2405   -5.1064   23.5738 N.ar    1  UNL1       -0.0560
      9 O           6.8518   -4.5948   22.2185 O.2     1  UNL1       -0.3370
     10 C           5.9126   -3.4410   22.4104 C.ar    1  UNL1        0.2366
     11 N           5.7208   -3.2398   23.8844 N.ar    1  UNL1       -0.1907
     12 C           5.2767   -2.6309   21.3198 C.3     1  UNL1        0.0880
     13 C           3.8041   -2.3482   21.3568 C.3     1  UNL1        0.0098
     14 C           3.1915   -1.4272   20.3436 C.3     1  UNL1        0.0005
     15 C           3.8453   -0.9424   19.0837 C.3     1  UNL1        0.0000
     16 C           2.8755   -0.0449   18.3739 C.3     1  UNL1        0.0000
     17 C           1.6222    0.0251   19.1952 C.3     1  UNL1        0.0000
     18 C           1.8176   -0.8293   20.4125 C.3     1  UNL1        0.0000
     19 C           7.8071   -6.0136   31.1307 C.3     1  UNL1        0.0262
     20 C           6.9555   -4.9220   30.5535 C.3     1  UNL1        0.0942
     21 N           6.2075   -3.9937   31.4637 N.am    1  UNL1       -0.3010
     22 C           6.9168   -2.8368   32.1028 C.2     1  UNL1        0.2394
     23 O           8.3744   -2.6083   31.8317 O.2     1  UNL1       -0.2736
     24 H           5.2508   -4.1436   31.6416 H       1  UNL1        0.1497
     25 C           6.1687   -1.9085   33.0130 C.3     1  UNL1        0.1586
     26 N           6.6760   -0.6040   33.5525 N.3     1  UNL1       -0.2893
     27 C           5.6028   -0.0109   34.4164 C.3     1  UNL1        0.0715
     28 C           4.4322   -0.9488   34.4110 C.3     1  UNL1        0.0482
     29 C           4.7820   -2.1216   33.5436 C.3     1  UNL1        0.1350
     30 O           3.8998   -3.3004   33.2571 O.3     1  UNL1       -0.3825
     31 H           6.8897    0.0295   32.7821 H       1  UNL1        0.1237
     32 H           3.0554   -3.1929   33.7222 H       1  UNL1        0.2104
@<TRIPOS>BOND
     1    20    19    1
     2    20    21    1
     3    21    22   am
     4    22    23    2
     5    25    22    1
     6    25    26    1
     7    26    27    1
     8    27    28    1
     9    28    29    1
    10    29    30    1
    11    20     1    1
    12     1     2   ar
    13     2     3   ar
    14     3     4   ar
    15     4     7    1
    16     7     8   ar
    17     8     9   ar
    18     9    10   ar
    19    10    12    1
    20    12    13    1
    21    13    14    1
    22    14    15    1
    23    15    16    1
    24    16    17    1
    25    17    18    1
    26    10    11   ar
    27     4     5   ar
    28     5     6   ar
    29    29    25    1
    30     6     1   ar
    31    11     7   ar
    32    18    14    1
    33    21    24    1
    34    26    31    1
    35    30    32    1
@<TRIPOS>MOLECULE
*****
 32 35 0 0 0
SMALL
GASTEIGER

@<TRIPOS>ATOM
      1 C           3.6780   -1.0940   19.4963 C.ar    1  UNL1       -0.0045
      2 C           3.7194    0.1762   18.6995 C.ar    1  UNL1       -0.0026
      3 C           2.5765    1.1450   18.7727 C.ar    1  UNL1        0.0029
      4 C           1.3923    0.8435   19.6426 C.ar    1  UNL1        0.0391
      5 C           1.3510   -0.4266   20.4394 C.ar    1  UNL1        0.0029
      6 C           2.4938   -1.3954   20.3662 C.ar    1  UNL1       -0.0026
      7 C           0.2495    1.8124   19.7158 C.ar    1  UNL1        0.2033
      8 N          -0.1866    2.7454   18.6252 N.ar    1  UNL1       -0.0560
      9 O          -1.3635    3.5279   19.1277 O.2     1  UNL1       -0.3370
     10 C          -1.6547    3.0786   20.5289 C.ar    1  UNL1        0.2366
     11 N          -0.6578    2.0184   20.8924 N.ar    1  UNL1       -0.1907
     12 C          -2.7505    3.5983   21.4117 C.3     1  UNL1        0.0880
     13 C          -4.1786    3.2415   21.1235 C.3     1  UNL1        0.0098
     14 C          -5.2719    3.7383   22.0224 C.3     1  UNL1        0.0005
     15 C          -6.5705    4.3443   21.5793 C.3     1  UNL1        0.0000
     16 C          -7.3597    4.6968   22.8052 C.3     1  UNL1        0.0000
     17 C          -6.5488    4.3088   24.0060 C.3     1  UNL1        0.0000
     18 C          -5.2585    3.7164   23.5221 C.3     1  UNL1        0.0000
     19 C           5.1920   -2.6871   18.1107 C.3     1  UNL1        0.0262
     20 C           4.8209   -2.0628   19.4231 C.3     1  UNL1        0.0942
     21 N           5.5925   -2.4073   20.6624 N.am    1  UNL1       -0.3010
     22 C           5.2974   -3.6794   21.4003 C.2     1  UNL1        0.2394
     23 O           4.2305   -4.6071   20.8990 O.2     1  UNL1       -0.2736
     24 H           6.2927   -1.7985   20.9914 H       1  UNL1        0.1497
     25 C           6.0690   -4.0239   22.6396 C.3     1  UNL1        0.1586
     26 N           7.2600   -4.9329   22.7126 N.3     1  UNL1       -0.2893
     27 C           7.7122   -4.9907   24.1416 C.3     1  UNL1        0.0715
     28 C           6.8008   -4.1174   24.9519 C.3     1  UNL1        0.0482
     29 C           5.7852   -3.5199   24.0236 C.3     1  UNL1        0.1350
     30 O           4.6799   -2.5829   24.4113 O.3     1  UNL1       -0.3825
     31 H           8.0106   -4.5676   22.1264 H       1  UNL1        0.1237
     32 H           4.7174   -2.4161   25.3661 H       1  UNL1        0.2104
@<TRIPOS>BOND
     1    20    19    1
     2    20    21    1
     3    21    22   am
     4    22    23    2
     5    25    22    1
     6    25    26    1
     7    26    27    1
     8    27    28    1
     9    28    29    1
    10    29    30    1
    11    20     1    1
    12     1     2   ar
    13     2     3   ar
    14     3     4   ar
    15     4     7    1
    16     7     8   ar
    17     8     9   ar
    18     9    10   ar
    19    10    12    1
    20    12    13    1
    21    13    14    1
    22    14    15    1
    23    15    16    1
    24    16    17    1
    25    17    18    1
    26    10    11   ar
    27     4     5   ar
    28     5     6   ar
    29    29    25    1
    30     6     1   ar
    31    11     7   ar
    32    18    14    1
    33    21    24    1
    34    26    31    1
    35    30    32    1
@<TRIPOS>MOLECULE
*****
 32 35 0 0 0
SMALL
GASTEIGER

@<TRIPOS>ATOM
      1 C           3.5619   -1.1124   19.4623 C.ar    1  UNL1       -0.0045
      2 C           2.4358   -1.2940   20.4363 C.ar    1  UNL1       -0.0026
      3 C           1.3129   -0.3004   20.4782 C.ar    1  UNL1        0.0029
      4 C           1.3162    0.8749   19.5461 C.ar    1  UNL1        0.0391
      5 C           2.4424    1.0565   18.5721 C.ar    1  UNL1        0.0029
      6 C           3.5652    0.0628   18.5302 C.ar    1  UNL1       -0.0026
      7 C           0.1933    1.8685   19.5881 C.ar    1  UNL1        0.2033
      8 N          -0.1393    2.8688   18.5208 N.ar    1  UNL1       -0.0560
      9 O          -1.3323    3.6549   18.9777 O.2     1  UNL1       -0.3370
     10 C          -1.7371    3.1404   20.3274 C.ar    1  UNL1        0.2366
     11 N          -0.7943    2.0364   20.7046 N.ar    1  UNL1       -0.1907
     12 C          -2.8835    3.6419   21.1546 C.3     1  UNL1        0.0880
     13 C          -4.2442    3.0299   20.9999 C.3     1  UNL1        0.0098
     14 C          -5.2529    3.6647   20.0889 C.3     1  UNL1        0.0005
     15 C          -5.1920    3.6946   18.5905 C.3     1  UNL1        0.0000
     16 C          -6.4010    4.4293   18.0920 C.3     1  UNL1        0.0000
     17 C          -7.2091    4.8535   19.2824 C.3     1  UNL1        0.0000
     18 C          -6.4995    4.3809   20.5165 C.3     1  UNL1        0.0000
     19 C           5.0267   -2.7976   18.1339 C.3     1  UNL1        0.0262
     20 C           4.6849   -2.1061   19.4203 C.3     1  UNL1        0.0942
     21 N           5.4659   -2.4081   20.6648 N.am    1  UNL1       -0.3010
     22 C           5.2255   -3.6881   21.4090 C.2     1  UNL1        0.2394
     23 O           4.2040   -4.6660   20.9088 O.2     1  UNL1       -0.2736
     24 H           6.1363   -1.7663   20.9931 H       1  UNL1        0.1497
     25 C           6.0065   -3.9901   22.6535 C.3     1  UNL1        0.1586
     26 N           7.2083   -4.8830   22.7453 N.3     1  UNL1       -0.2893
     27 C           7.6675   -4.8971   24.1732 C.3     1  UNL1        0.0715
     28 C           6.7494   -4.0129   24.9640 C.3     1  UNL1        0.0482
     29 C           5.7229   -3.4524   24.0248 C.3     1  UNL1        0.1350
     30 O           4.6084   -2.5182   24.3923 O.3     1  UNL1       -0.3825
     31 H           7.9521   -4.5249   22.1461 H       1  UNL1        0.1237
     32 H           4.6480   -2.3254   25.3421 H       1  UNL1        0.2104
@<TRIPOS>BOND
     1    20    19    1
     2    20    21    1
     3    21    22   am
     4    22    23    2
     5    25    22    1
     6    25    26    1
     7    26    27    1
     8    27    28    1
     9    28    29    1
    10    29    30    1
    11    20     1    1
    12     1     2   ar
    13     2     3   ar
    14     3     4   ar
    15     4     7    1
    16     7     8   ar
    17     8     9   ar
    18     9    10   ar
    19    10    12    1
    20    12    13    1
    21    13    14    1
    22    14    15    1
    23    15    16    1
    24    16    17    1
    25    17    18    1
    26    10    11   ar
    27     4     5   ar
    28     5     6   ar
    29    29    25    1
    30     6     1   ar
    31    11     7   ar
    32    18    14    1
    33    21    24    1
    34    26    31    1
    35    30    32    1
@<TRIPOS>MOLECULE
*****
 32 35 0 0 0
SMALL
GASTEIGER

@<TRIPOS>ATOM
      1 C           7.0185   -4.7016   28.9735 C.ar    1  UNL1       -0.0045
      2 C           7.0955   -5.9399   28.1305 C.ar    1  UNL1       -0.0026
      3 C           7.1991   -5.8261   26.6384 C.ar    1  UNL1        0.0029
      4 C           7.2258   -4.4740   25.9894 C.ar    1  UNL1        0.0391
      5 C           7.1488   -3.2358   26.8324 C.ar    1  UNL1        0.0029
      6 C           7.0451   -3.3496   28.3245 C.ar    1  UNL1       -0.0026
      7 C           7.3294   -4.3603   24.4973 C.ar    1  UNL1        0.2033
      8 N           7.3647   -5.5030   23.5263 N.ar    1  UNL1       -0.0560
      9 O           7.4730   -4.9329   22.1431 O.2     1  UNL1       -0.3370
     10 C           7.5047   -3.4377   22.2593 C.ar    1  UNL1        0.2366
     11 N           7.4159   -3.0838   23.7142 N.ar    1  UNL1       -0.1907
     12 C           7.6072   -2.4668   21.1204 C.3     1  UNL1        0.0880
     13 C           7.0674   -2.8350   19.7702 C.3     1  UNL1        0.0098
     14 C           5.6029   -3.1096   19.5973 C.3     1  UNL1        0.0005
     15 C           4.4912   -2.1227   19.7976 C.3     1  UNL1        0.0000
     16 C           3.1943   -2.8224   19.5178 C.3     1  UNL1        0.0000
     17 C           3.5044   -4.2418   19.1445 C.3     1  UNL1        0.0000
     18 C           4.9931   -4.4192   19.1937 C.3     1  UNL1        0.0000
     19 C           7.5711   -5.9608   31.1779 C.3     1  UNL1        0.0262
     20 C           6.9148   -4.8154   30.4657 C.3     1  UNL1        0.0942
     21 N           6.1549   -3.7837   31.2455 N.am    1  UNL1       -0.3010
     22 C           6.8813   -2.8705   32.1880 C.2     1  UNL1        0.2394
     23 O           8.3678   -2.9890   32.3507 O.2     1  UNL1       -0.2736
     24 H           5.1793   -3.7060   31.1387 H       1  UNL1        0.1497
     25 C           6.1214   -1.8388   32.9678 C.3     1  UNL1        0.1586
     26 N           6.6096   -0.4658   33.3230 N.3     1  UNL1       -0.2893
     27 C           5.5297    0.2226   34.1041 C.3     1  UNL1        0.0715
     28 C           4.3740   -0.7251   34.2315 C.3     1  UNL1        0.0482
     29 C           4.7397   -1.9991   33.5293 C.3     1  UNL1        0.1350
     30 O           3.8754   -3.2192   33.4096 O.3     1  UNL1       -0.3825
     31 H           6.8111    0.0607   32.4729 H       1  UNL1        0.1237
     32 H           3.0307   -3.0625   33.8599 H       1  UNL1        0.2104
@<TRIPOS>BOND
     1    20    19    1
     2    20    21    1
     3    21    22   am
     4    22    23    2
     5    25    22    1
     6    25    26    1
     7    26    27    1
     8    27    28    1
     9    28    29    1
    10    29    30    1
    11    20     1    1
    12     1     2   ar
    13     2     3   ar
    14     3     4   ar
    15     4     7    1
    16     7     8   ar
    17     8     9   ar
    18     9    10   ar
    19    10    12    1
    20    12    13    1
    21    13    14    1
    22    14    15    1
    23    15    16    1
    24    16    17    1
    25    17    18    1
    26    10    11   ar
    27     4     5   ar
    28     5     6   ar
    29    29    25    1
    30     6     1   ar
    31    11     7   ar
    32    18    14    1
    33    21    24    1
    34    26    31    1
    35    30    32    1
@<TRIPOS>MOLECULE
*****
 32 35 0 0 0
SMALL
GASTEIGER

@<TRIPOS>ATOM
      1 C           1.0600    3.3010   18.5627 C.ar    1  UNL1       -0.0045
      2 C           0.4164    1.9478   18.4950 C.ar    1  UNL1       -0.0026
      3 C           1.2643    0.7215   18.3301 C.ar    1  UNL1        0.0029
      4 C           2.7557    0.8484   18.2328 C.ar    1  UNL1        0.0391
      5 C           3.3993    2.2016   18.3004 C.ar    1  UNL1        0.0029
      6 C           2.5515    3.4279   18.4654 C.ar    1  UNL1       -0.0026
      7 C           3.6036   -0.3780   18.0678 C.ar    1  UNL1        0.2033
      8 N           4.6291   -0.6034   16.9965 N.ar    1  UNL1       -0.0560
      9 O           5.2341   -1.9590   17.2118 O.2     1  UNL1       -0.3370
     10 C           4.5825   -2.5714   18.4161 C.ar    1  UNL1        0.2366
     11 N           3.5748   -1.5943   18.9452 N.ar    1  UNL1       -0.1907
     12 C           4.8855   -3.9235   18.9906 C.3     1  UNL1        0.0880
     13 C           4.3616   -4.2973   20.3455 C.3     1  UNL1        0.0098
     14 C           5.0285   -3.7669   21.5800 C.3     1  UNL1        0.0005
     15 C           6.4929   -3.8471   21.8947 C.3     1  UNL1        0.0000
     16 C           6.7175   -3.1930   23.2257 C.3     1  UNL1        0.0000
     17 C           5.3919   -2.7085   23.7336 C.3     1  UNL1        0.0000
     18 C           4.3481   -3.0632   22.7165 C.3     1  UNL1        0.0000
     19 C           0.8266    5.8029   19.2233 C.3     1  UNL1        0.0262
     20 C           0.2122    4.5274   18.7276 C.3     1  UNL1        0.0942
     21 N          -1.2501    4.4783   18.3969 N.am    1  UNL1       -0.3010
     22 C          -2.2453    4.0961   19.4521 C.2     1  UNL1        0.2394
     23 O          -1.7782    3.7631   20.8381 O.2     1  UNL1       -0.2736
     24 H          -1.5566    4.6969   17.4872 H       1  UNL1        0.1497
     25 C          -3.7075    4.0470   19.1214 C.3     1  UNL1        0.1586
     26 N          -4.3722    4.7254   17.9603 N.3     1  UNL1       -0.2893
     27 C          -5.8373    4.4085   18.0150 C.3     1  UNL1        0.0715
     28 C          -6.0782    3.5343   19.2099 C.3     1  UNL1        0.0482
     29 C          -4.7619    3.3109   19.8936 C.3     1  UNL1        0.1350
     30 O          -4.5392    2.4947   21.1323 O.3     1  UNL1       -0.3825
     31 H          -3.9761    4.3815   17.0855 H       1  UNL1        0.1237
     32 H          -5.3845    2.1256   21.4326 H       1  UNL1        0.2104
@<TRIPOS>BOND
     1    20    19    1
     2    20    21    1
     3    21    22   am
     4    22    23    2
     5    25    22    1
     6    25    26    1
     7    26    27    1
     8    27    28    1
     9    28    29    1
    10    29    30    1
    11    20     1    1
    12     1     2   ar
    13     2     3   ar
    14     3     4   ar
    15     4     7    1
    16     7     8   ar
    17     8     9   ar
    18     9    10   ar
    19    10    12    1
    20    12    13    1
    21    13    14    1
    22    14    15    1
    23    15    16    1
    24    16    17    1
    25    17    18    1
    26    10    11   ar
    27     4     5   ar
    28     5     6   ar
    29    29    25    1
    30     6     1   ar
    31    11     7   ar
    32    18    14    1
    33    21    24    1
    34    26    31    1
    35    30    32    1
@<TRIPOS>MOLECULE
*****
 32 35 0 0 0
SMALL
GASTEIGER

@<TRIPOS>ATOM
      1 C           8.0671   -4.7642   26.1846 C.ar    1  UNL1       -0.0045
      2 C           8.5735   -5.5188   24.9912 C.ar    1  UNL1       -0.0026
      3 C           7.9667   -5.2804   23.6404 C.ar    1  UNL1        0.0029
      4 C           6.8534   -4.2874   23.4829 C.ar    1  UNL1        0.0391
      5 C           6.3470   -3.5329   24.6762 C.ar    1  UNL1        0.0029
      6 C           6.9538   -3.7713   26.0271 C.ar    1  UNL1       -0.0026
      7 C           6.2466   -4.0491   22.1319 C.ar    1  UNL1        0.2033
      8 N           6.9000   -4.3265   20.8105 N.ar    1  UNL1       -0.0560
      9 O           5.9372   -3.9403   19.7271 O.2     1  UNL1       -0.3370
     10 C           4.6887   -3.4242   20.3790 C.ar    1  UNL1        0.2366
     11 N           4.8799   -3.4914   21.8652 N.ar    1  UNL1       -0.1907
     12 C           3.4639   -2.9280   19.6692 C.3     1  UNL1        0.0880
     13 C           3.2989   -1.4629   19.3932 C.3     1  UNL1        0.0098
     14 C           2.3263   -0.6529   20.1983 C.3     1  UNL1        0.0005
     15 C           0.9866   -0.1653   19.7320 C.3     1  UNL1        0.0000
     16 C           0.3550    0.6006   20.8565 C.3     1  UNL1        0.0000
     17 C           1.3044    0.5863   22.0178 C.3     1  UNL1        0.0000
     18 C           2.5227   -0.1884   21.6109 C.3     1  UNL1        0.0000
     19 C           9.5360   -6.2078   27.7684 C.3     1  UNL1        0.0262
     20 C           8.6739   -5.0026   27.5356 C.3     1  UNL1        0.0942
     21 N           8.4186   -4.0358   28.6536 N.am    1  UNL1       -0.3010
     22 C           7.3007   -4.2869   29.6218 C.2     1  UNL1        0.2394
     23 O           6.4382   -5.5050   29.4719 O.2     1  UNL1       -0.2736
     24 H           8.9847   -3.2363   28.7520 H       1  UNL1        0.1497
     25 C           7.0454   -3.3201   30.7398 C.3     1  UNL1        0.1586
     26 N           7.2691   -1.8376   30.6918 N.3     1  UNL1       -0.2893
     27 C           6.8835   -1.2673   32.0245 C.3     1  UNL1        0.0715
     28 C           6.4214   -2.3972   32.8961 C.3     1  UNL1        0.0482
     29 C           6.5215   -3.6659   32.1021 C.3     1  UNL1        0.1350
     30 O           6.1609   -5.0393   32.5856 O.3     1  UNL1       -0.3825
     31 H           6.6931   -1.4242   29.9586 H       1  UNL1        0.1237
     32 H           5.8481   -4.9876   33.5023 H       1  UNL1        0.2104
@<TRIPOS>BOND
     1    20    19    1
     2    20    21    1
     3    21    22   am
     4    22    23    2
     5    25    22    1
     6    25    26    1
     7    26    27    1
     8    27    28    1
     9    28    29    1
    10    29    30    1
    11    20     1    1
    12     1     2   ar
    13     2     3   ar
    14     3     4   ar
    15     4     7    1
    16     7     8   ar
    17     8     9   ar
    18     9    10   ar
    19    10    12    1
    20    12    13    1
    21    13    14    1
    22    14    15    1
    23    15    16    1
    24    16    17    1
    25    17    18    1
    26    10    11   ar
    27     4     5   ar
    28     5     6   ar
    29    29    25    1
    30     6     1   ar
    31    11     7   ar
    32    18    14    1
    33    21    24    1
    34    26    31    1
    35    30    32    1
