@<TRIPOS>MOLECULE
*****
 30 33 0 0 0
SMALL
GASTEIGER

@<TRIPOS>ATOM
      1 C          -4.9389  -18.8031   20.5639 C.ar    1  UNL1        0.1355
      2 C          -5.6323  -19.3715   19.3613 C.ar    1  UNL1        0.0996
      3 N          -7.0862  -19.5274   19.6952 N.ar    1  UNL1       -0.3063
      4 C          -7.2916  -19.0555   21.1041 C.ar    1  UNL1        0.1470
      5 N          -5.9644  -18.6078   21.6411 N.ar    1  UNL1       -0.2236
      6 C          -8.5627  -19.0093   21.8992 C.ar    1  UNL1        0.0683
      7 C          -8.3278  -18.4648   23.2770 C.ar    1  UNL1        0.0091
      8 C          -9.4728  -18.3347   24.2372 C.ar    1  UNL1        0.0372
      9 C         -10.8526  -18.7491   23.8197 C.ar    1  UNL1        0.1421
     10 C         -11.0875  -19.2936   22.4419 C.ar    1  UNL1        0.0739
     11 C          -9.9425  -19.4237   21.4817 C.ar    1  UNL1        0.1445
     12 O         -10.3919  -19.9866   20.1660 O.3     1  UNL1       -0.4732
     13 C          -9.5727  -20.2742   18.9428 C.3     1  UNL1        0.2298
     14 C          -8.1015  -20.0698   18.7333 C.3     1  UNL1        0.1547
     15 N          -2.8136  -17.7525   21.7987 N.ar    1  UNL1       -0.2333
     16 N          -1.3481  -17.6596   21.4931 N.ar    1  UNL1       -0.1453
     17 C          -1.1053  -18.3354   20.1762 C.ar    1  UNL1        0.2209
     18 N          -2.4209  -18.8461   19.6679 N.ar    1  UNL1       -0.2021
     19 C          -3.4767  -18.4858   20.6706 C.ar    1  UNL1        0.1804
     20 C          -4.1064  -15.8377   22.9872 C.3     1  UNL1        0.0264
     21 C          -3.4964  -17.2077   23.0182 C.3     1  UNL1        0.1070
     22 C          -3.5690  -18.0330   24.2686 C.3     1  UNL1        0.0264
     23 O         -11.9976  -18.6189   24.7800 O.3     1  UNL1       -0.4699
     24 C         -13.3201  -18.0955   24.3037 C.3     1  UNL1        0.2409
     25 C         -13.3863  -17.2196   23.0877 C.3     1  UNL1        0.0574
     26 C         -14.5766  -18.4480   25.0433 C.2     1  UNL1        0.2596
     27 N         -14.6031  -18.3998   26.5424 N.am    1  UNL1       -0.3259
     28 O         -15.8066  -18.8487   24.2840 O.2     1  UNL1       -0.2715
     29 H         -13.7958  -18.1368   27.0408 H       1  UNL1        0.1451
     30 H         -15.4278  -18.6311   27.0278 H       1  UNL1        0.1451
@<TRIPOS>BOND
     1    20    21    1
     2    21    22    1
     3    21    15    1
     4    15    16   ar
     5    16    17   ar
     6    17    18   ar
     7    18    19   ar
     8    19     1    1
     9     1     2   ar
    10     2     3   ar
    11     3     4   ar
    12     4     5   ar
    13     4     6    1
    14     6     7   ar
    15     7     8   ar
    16     8     9   ar
    17     9    23    1
    18    23    24    1
    19    24    25    1
    20    24    26    1
    21    26    27   am
    22    26    28    2
    23     9    10   ar
    24    10    11   ar
    25    11    12    1
    26    12    13    1
    27    13    14    1
    28    19    15   ar
    29     5     1   ar
    30    11     6   ar
    31    14     3    1
    32    27    29    1
    33    27    30    1
@<TRIPOS>MOLECULE
*****
 30 33 0 0 0
SMALL
GASTEIGER

@<TRIPOS>ATOM
      1 C           2.9584    3.1417   36.3368 C.ar    1  UNL1        0.1355
      2 C           2.0586    4.3321   36.1836 C.ar    1  UNL1        0.0996
      3 N           1.4550    4.2833   34.8114 N.ar    1  UNL1       -0.3063
      4 C           1.9816    3.0628   34.1164 C.ar    1  UNL1        0.1470
      5 N           2.9108    2.3572   35.0592 N.ar    1  UNL1       -0.2236
      6 C           1.6799    2.5717   32.7315 C.ar    1  UNL1        0.0683
      7 C           2.4207    1.3037   32.4262 C.ar    1  UNL1        0.0091
      8 C           2.2586    0.6438   31.0890 C.ar    1  UNL1        0.0372
      9 C           1.3558    1.2520   30.0570 C.ar    1  UNL1        0.1421
     10 C           0.6150    2.5201   30.3623 C.ar    1  UNL1        0.0739
     11 C           0.7771    3.1799   31.6996 C.ar    1  UNL1        0.1445
     12 O          -0.0471    4.4294   31.7977 O.3     1  UNL1       -0.4732
     13 C          -0.1720    5.3793   32.9518 C.3     1  UNL1        0.2298
     14 C           0.4965    5.3142   34.2931 C.3     1  UNL1        0.1547
     15 N           3.2508    2.1135   38.7868 N.ar    1  UNL1       -0.2333
     16 N           4.3943    1.9685   39.7466 N.ar    1  UNL1       -0.1453
     17 C           5.6145    2.5619   39.1071 C.ar    1  UNL1        0.2209
     18 N           5.2251    3.0736   37.7519 N.ar    1  UNL1       -0.2021
     19 C           3.7642    2.7965   37.5539 C.ar    1  UNL1        0.1804
     20 C           0.7345    2.6623   39.1293 C.3     1  UNL1        0.0264
     21 C           1.8413    1.6558   39.0190 C.3     1  UNL1        0.1070
     22 C           1.5386    0.1918   39.1408 C.3     1  UNL1        0.0264
     23 O           1.1937    0.5921   28.7197 O.3     1  UNL1       -0.4699
     24 C          -0.1686    0.4694   28.1041 C.3     1  UNL1        0.2409
     25 C          -1.1997   -0.4184   28.7354 C.3     1  UNL1        0.0574
     26 C          -0.4998    1.2345   26.8571 C.2     1  UNL1        0.2596
     27 N           0.0774    0.8079   25.5399 N.am    1  UNL1       -0.3259
     28 O          -1.4081    2.4261   26.9273 O.2     1  UNL1       -0.2715
     29 H           0.6736    0.0258   25.4938 H       1  UNL1        0.1451
     30 H          -0.1400    1.3101   24.7214 H       1  UNL1        0.1451
@<TRIPOS>BOND
     1    20    21    1
     2    21    22    1
     3    21    15    1
     4    15    16   ar
     5    16    17   ar
     6    17    18   ar
     7    18    19   ar
     8    19     1    1
     9     1     2   ar
    10     2     3   ar
    11     3     4   ar
    12     4     5   ar
    13     4     6    1
    14     6     7   ar
    15     7     8   ar
    16     8     9   ar
    17     9    23    1
    18    23    24    1
    19    24    25    1
    20    24    26    1
    21    26    27   am
    22    26    28    2
    23     9    10   ar
    24    10    11   ar
    25    11    12    1
    26    12    13    1
    27    13    14    1
    28    19    15   ar
    29     5     1   ar
    30    11     6   ar
    31    14     3    1
    32    27    29    1
    33    27    30    1
@<TRIPOS>MOLECULE
*****
 30 33 0 0 0
SMALL
GASTEIGER

@<TRIPOS>ATOM
      1 C           4.6855    1.1558   36.3800 C.ar    1  UNL1        0.1355
      2 C           5.3096   -0.0942   35.8341 C.ar    1  UNL1        0.0996
      3 N           4.7449   -0.3348   34.4656 N.ar    1  UNL1       -0.3063
      4 C           3.7718    0.7666   34.1654 C.ar    1  UNL1        0.1470
      5 N           3.7351    1.6879   35.3487 N.ar    1  UNL1       -0.2236
      6 C           2.9480    0.9758   32.9295 C.ar    1  UNL1        0.0683
      7 C           2.1000    2.2083   33.0382 C.ar    1  UNL1        0.0091
      8 C           1.1979    2.6002   31.9057 C.ar    1  UNL1        0.0372
      9 C           1.1438    1.7596   30.6645 C.ar    1  UNL1        0.1421
     10 C           1.9918    0.5272   30.5558 C.ar    1  UNL1        0.0739
     11 C           2.8939    0.1353   31.6883 C.ar    1  UNL1        0.1445
     12 O           3.6502   -1.1221   31.3766 O.3     1  UNL1       -0.4732
     13 C           4.6474   -1.8494   32.2289 C.3     1  UNL1        0.2298
     14 C           5.1345   -1.4990   33.6037 C.3     1  UNL1        0.1547
     15 N           3.9371    2.1357   38.7517 N.ar    1  UNL1       -0.2333
     16 N           4.6554    2.7127   39.9353 N.ar    1  UNL1       -0.1453
     17 C           6.1254    2.7002   39.6368 C.ar    1  UNL1        0.2209
     18 N           6.3155    2.1155   38.2686 N.ar    1  UNL1       -0.2021
     19 C           4.9631    1.7666   37.7216 C.ar    1  UNL1        0.1804
     20 C           1.6057    3.0864   38.1109 C.3     1  UNL1        0.0264
     21 C           2.4533    1.9589   38.6210 C.3     1  UNL1        0.1070
     22 C           1.8172    0.6545   39.0003 C.3     1  UNL1        0.0264
     23 O           0.2416    2.1516   29.5320 O.3     1  UNL1       -0.4699
     24 C          -0.2814    1.1053   28.5931 C.3     1  UNL1        0.2409
     25 C          -1.3378    0.1450   29.0534 C.3     1  UNL1        0.0574
     26 C           0.2520    1.0192   27.1938 C.2     1  UNL1        0.2596
     27 N           1.6041    0.4205   26.9420 N.am    1  UNL1       -0.3259
     28 O          -0.5666    1.5319   26.0462 O.2     1  UNL1       -0.2715
     29 H           2.1415    0.0840   27.6952 H       1  UNL1        0.1451
     30 H           1.9542    0.3640   26.0236 H       1  UNL1        0.1451
@<TRIPOS>BOND
     1    20    21    1
     2    21    22    1
     3    21    15    1
     4    15    16   ar
     5    16    17   ar
     6    17    18   ar
     7    18    19   ar
     8    19     1    1
     9     1     2   ar
    10     2     3   ar
    11     3     4   ar
    12     4     5   ar
    13     4     6    1
    14     6     7   ar
    15     7     8   ar
    16     8     9   ar
    17     9    23    1
    18    23    24    1
    19    24    25    1
    20    24    26    1
    21    26    27   am
    22    26    28    2
    23     9    10   ar
    24    10    11   ar
    25    11    12    1
    26    12    13    1
    27    13    14    1
    28    19    15   ar
    29     5     1   ar
    30    11     6   ar
    31    14     3    1
    32    27    29    1
    33    27    30    1
@<TRIPOS>MOLECULE
*****
 30 33 0 0 0
SMALL
GASTEIGER

@<TRIPOS>ATOM
      1 C           2.8793   -0.1581   27.1828 C.ar    1  UNL1        0.1355
      2 C           2.1783    0.8926   26.3738 C.ar    1  UNL1        0.0996
      3 N           2.4742    0.6368   24.9257 N.ar    1  UNL1       -0.3063
      4 C           3.3580   -0.5721   24.8397 C.ar    1  UNL1        0.1470
      5 N           3.6084   -1.0634   26.2347 N.ar    1  UNL1       -0.2236
      6 C           3.9277   -1.2291   23.6175 C.ar    1  UNL1        0.0683
      7 C           4.7652   -2.4208   23.9759 C.ar    1  UNL1        0.0091
      8 C           5.4293   -3.2228   22.8962 C.ar    1  UNL1        0.0372
      9 C           5.2560   -2.8331   21.4582 C.ar    1  UNL1        0.1421
     10 C           4.4185   -1.6414   21.0997 C.ar    1  UNL1        0.0739
     11 C           3.7544   -0.8395   22.1794 C.ar    1  UNL1        0.1445
     12 O           2.9684    0.3035   21.6084 O.3     1  UNL1       -0.4732
     13 C           2.1617    1.3390   22.3343 C.3     1  UNL1        0.2298
     14 C           1.9418    1.4873   23.8107 C.3     1  UNL1        0.1547
     15 N           1.6949    0.0428   29.5707 N.ar    1  UNL1       -0.2333
     16 N           2.1101   -0.2267   30.9866 N.ar    1  UNL1       -0.1453
     17 C           3.5273   -0.7180   30.9686 C.ar    1  UNL1        0.2209
     18 N           3.9878   -0.7521   29.5414 N.ar    1  UNL1       -0.2021
     19 C           2.8554   -0.2819   28.6775 C.ar    1  UNL1        0.1804
     20 C           0.1171    2.0231   28.9882 C.3     1  UNL1        0.0264
     21 C           0.3545    0.5484   29.1259 C.3     1  UNL1        0.1070
     22 C          -0.7484   -0.4208   28.8189 C.3     1  UNL1        0.0264
     23 O           5.9201   -3.6352   20.3785 O.3     1  UNL1       -0.4699
     24 C           5.2508   -3.7985   19.0461 C.3     1  UNL1        0.2409
     25 C           4.4393   -5.0271   18.7599 C.3     1  UNL1        0.0574
     26 C           5.3930   -2.7331   17.9997 C.2     1  UNL1        0.2596
     27 N           4.1793   -2.0094   17.4965 N.am    1  UNL1       -0.3259
     28 O           6.7488   -2.3915   17.4566 O.2     1  UNL1       -0.2715
     29 H           3.2894   -2.2336   17.8530 H       1  UNL1        0.1451
     30 H           4.2726   -1.3101   16.8098 H       1  UNL1        0.1451
@<TRIPOS>BOND
     1    20    21    1
     2    21    22    1
     3    21    15    1
     4    15    16   ar
     5    16    17   ar
     6    17    18   ar
     7    18    19   ar
     8    19     1    1
     9     1     2   ar
    10     2     3   ar
    11     3     4   ar
    12     4     5   ar
    13     4     6    1
    14     6     7   ar
    15     7     8   ar
    16     8     9   ar
    17     9    23    1
    18    23    24    1
    19    24    25    1
    20    24    26    1
    21    26    27   am
    22    26    28    2
    23     9    10   ar
    24    10    11   ar
    25    11    12    1
    26    12    13    1
    27    13    14    1
    28    19    15   ar
    29     5     1   ar
    30    11     6   ar
    31    14     3    1
    32    27    29    1
    33    27    30    1
@<TRIPOS>MOLECULE
*****
 30 33 0 0 0
SMALL
GASTEIGER

@<TRIPOS>ATOM
      1 C          -2.5059    3.6732   21.0450 C.ar    1  UNL1        0.1355
      2 C          -1.8464    4.8076   20.3182 C.ar    1  UNL1        0.0996
      3 N          -0.5877    4.2866   19.6905 N.ar    1  UNL1       -0.3063
      4 C          -0.4691    2.8302   20.0294 C.ar    1  UNL1        0.1470
      5 N          -1.6547    2.4511   20.8665 N.ar    1  UNL1       -0.2236
      6 C           0.6094    1.8637   19.6386 C.ar    1  UNL1        0.0683
      7 C           0.3439    0.4940   20.1894 C.ar    1  UNL1        0.0091
      8 C           1.3048   -0.6243   19.9141 C.ar    1  UNL1        0.0372
      9 C           2.5313   -0.3730   19.0879 C.ar    1  UNL1        0.1421
     10 C           2.7968    0.9967   18.5370 C.ar    1  UNL1        0.0739
     11 C           1.8359    2.1150   18.8124 C.ar    1  UNL1        0.1445
     12 O           2.2867    3.3948   18.1729 O.3     1  UNL1       -0.4732
     13 C           1.6224    4.7394   18.2017 C.3     1  UNL1        0.2298
     14 C           0.3432    5.1362   18.8771 C.3     1  UNL1        0.1547
     15 N          -5.1437    4.0566   21.2452 N.ar    1  UNL1       -0.2333
     16 N          -6.1376    4.0264   22.3682 N.ar    1  UNL1       -0.1453
     17 C          -5.3992    3.6991   23.6322 C.ar    1  UNL1        0.2209
     18 N          -3.9489    3.5269   23.2903 N.ar    1  UNL1       -0.2021
     19 C          -3.7909    3.7479   21.8151 C.ar    1  UNL1        0.1804
     20 C          -5.2178    5.7191   19.2500 C.3     1  UNL1        0.0264
     21 C          -5.4489    4.3449   19.8051 C.3     1  UNL1        0.1070
     22 C          -5.9852    3.2589   18.9202 C.3     1  UNL1        0.0264
     23 O           3.4922   -1.4914   18.8125 O.3     1  UNL1       -0.4699
     24 C           4.0902   -2.2638   19.9508 C.3     1  UNL1        0.2409
     25 C           4.7202   -1.5366   21.1016 C.3     1  UNL1        0.0574
     26 C           4.0581   -3.7635   19.9384 C.2     1  UNL1        0.2596
     27 N           3.7219   -4.4960   18.6733 N.am    1  UNL1       -0.3259
     28 O           4.3623   -4.5305   21.1910 O.2     1  UNL1       -0.2715
     29 H           3.5222   -3.9925   17.8512 H       1  UNL1        0.1451
     30 H           3.7008   -5.4802   18.6651 H       1  UNL1        0.1451
@<TRIPOS>BOND
     1    20    21    1
     2    21    22    1
     3    21    15    1
     4    15    16   ar
     5    16    17   ar
     6    17    18   ar
     7    18    19   ar
     8    19     1    1
     9     1     2   ar
    10     2     3   ar
    11     3     4   ar
    12     4     5   ar
    13     4     6    1
    14     6     7   ar
    15     7     8   ar
    16     8     9   ar
    17     9    23    1
    18    23    24    1
    19    24    25    1
    20    24    26    1
    21    26    27   am
    22    26    28    2
    23     9    10   ar
    24    10    11   ar
    25    11    12    1
    26    12    13    1
    27    13    14    1
    28    19    15   ar
    29     5     1   ar
    30    11     6   ar
    31    14     3    1
    32    27    29    1
    33    27    30    1
@<TRIPOS>MOLECULE
*****
 30 33 0 0 0
SMALL
GASTEIGER

@<TRIPOS>ATOM
      1 C           7.3270   -4.8251   27.5456 C.ar    1  UNL1        0.1355
      2 C           8.3821   -5.6010   26.8145 C.ar    1  UNL1        0.0996
      3 N           8.1887   -5.3749   25.3444 N.ar    1  UNL1       -0.3063
      4 C           7.0140   -4.4592   25.1668 C.ar    1  UNL1        0.1470
      5 N           6.4814   -4.1193   26.5273 N.ar    1  UNL1       -0.2236
      6 C           6.4210   -3.9349   23.8926 C.ar    1  UNL1        0.0683
      7 C           5.2459   -3.0422   24.1616 C.ar    1  UNL1        0.0091
      8 C           4.5061   -2.4116   23.0193 C.ar    1  UNL1        0.0372
      9 C           4.9413   -2.6737   21.6079 C.ar    1  UNL1        0.1421
     10 C           6.1164   -3.5663   21.3389 C.ar    1  UNL1        0.0739
     11 C           6.8562   -4.1969   22.4812 C.ar    1  UNL1        0.1445
     12 O           7.9919   -5.0480   21.9955 O.3     1  UNL1       -0.4732
     13 C           8.9730   -5.8471   22.8011 C.3     1  UNL1        0.2298
     14 C           9.0605   -5.9926   24.2915 C.3     1  UNL1        0.1547
     15 N           6.9199   -3.5247   29.8453 N.ar    1  UNL1       -0.2333
     16 N           6.7977   -3.9284   31.2847 N.ar    1  UNL1       -0.1453
     17 C           6.9509   -5.4185   31.3629 C.ar    1  UNL1        0.2209
     18 N           7.1678   -5.9357   29.9717 N.ar    1  UNL1       -0.2021
     19 C           7.1487   -4.7653   29.0337 C.ar    1  UNL1        0.1804
     20 C           5.4877   -1.5118   29.0409 C.3     1  UNL1        0.0264
     21 C           6.8292   -2.1259   29.3110 C.3     1  UNL1        0.1070
     22 C           8.0802   -1.3415   29.0469 C.3     1  UNL1        0.0264
     23 O           4.2015   -2.0430   20.4656 O.3     1  UNL1       -0.4699
     24 C           4.0764   -2.7708   19.1600 C.3     1  UNL1        0.2409
     25 C           3.3314   -4.0711   19.0945 C.3     1  UNL1        0.0574
     26 C           4.6963   -2.1983   17.9198 C.2     1  UNL1        0.2596
     27 N           3.8826   -1.3295   17.0070 N.am    1  UNL1       -0.3259
     28 O           6.1298   -2.4946   17.5924 O.2     1  UNL1       -0.2715
     29 H           2.9417   -1.1350   17.2219 H       1  UNL1        0.1451
     30 H           4.2894   -0.9537   16.1930 H       1  UNL1        0.1451
@<TRIPOS>BOND
     1    20    21    1
     2    21    22    1
     3    21    15    1
     4    15    16   ar
     5    16    17   ar
     6    17    18   ar
     7    18    19   ar
     8    19     1    1
     9     1     2   ar
    10     2     3   ar
    11     3     4   ar
    12     4     5   ar
    13     4     6    1
    14     6     7   ar
    15     7     8   ar
    16     8     9   ar
    17     9    23    1
    18    23    24    1
    19    24    25    1
    20    24    26    1
    21    26    27   am
    22    26    28    2
    23     9    10   ar
    24    10    11   ar
    25    11    12    1
    26    12    13    1
    27    13    14    1
    28    19    15   ar
    29     5     1   ar
    30    11     6   ar
    31    14     3    1
    32    27    29    1
    33    27    30    1
@<TRIPOS>MOLECULE
*****
 30 33 0 0 0
SMALL
GASTEIGER

@<TRIPOS>ATOM
      1 C           3.0784    0.3469   28.0155 C.ar    1  UNL1        0.1355
      2 C           4.1598   -0.6139   28.4121 C.ar    1  UNL1        0.0996
      3 N           4.6110   -1.3387   27.1789 N.ar    1  UNL1       -0.3063
      4 C           3.8085   -0.8259   26.0201 C.ar    1  UNL1        0.1470
      5 N           2.8612    0.2159   26.5371 N.ar    1  UNL1       -0.2236
      6 C           3.8829   -1.2323   24.5781 C.ar    1  UNL1        0.0683
      7 C           2.8992   -0.4685   23.7420 C.ar    1  UNL1        0.0091
      8 C           2.8110   -0.7243   22.2666 C.ar    1  UNL1        0.0372
      9 C           3.7064   -1.7439   21.6274 C.ar    1  UNL1        0.1421
     10 C           4.6900   -2.5077   22.4634 C.ar    1  UNL1        0.0739
     11 C           4.7782   -2.2519   23.9388 C.ar    1  UNL1        0.1445
     12 O           5.8203   -3.1169   24.5836 O.3     1  UNL1       -0.4732
     13 C           6.2245   -3.1760   26.0269 C.3     1  UNL1        0.2298
     14 C           5.6863   -2.3846   27.1820 C.3     1  UNL1        0.1547
     15 N           0.8578    1.4807   28.9794 N.ar    1  UNL1       -0.2333
     16 N           0.5609    2.4943   30.0446 N.ar    1  UNL1       -0.1453
     17 C           1.8627    2.9157   30.6593 C.ar    1  UNL1        0.2209
     18 N           2.9642    2.1625   29.9740 N.ar    1  UNL1       -0.2021
     19 C           2.3432    1.2757   28.9358 C.ar    1  UNL1        0.1804
     20 C          -0.4181    1.2991   26.7235 C.3     1  UNL1        0.0264
     21 C          -0.1530    0.7929   28.1104 C.3     1  UNL1        0.1070
     22 C          -0.8988   -0.4010   28.6284 C.3     1  UNL1        0.0264
     23 O           3.6181   -1.9997   20.1519 O.3     1  UNL1       -0.4699
     24 C           4.7771   -1.6621   19.2615 C.3     1  UNL1        0.2409
     25 C           5.3544   -0.2777   19.2744 C.3     1  UNL1        0.0574
     26 C           5.3587   -2.7089   18.3583 C.2     1  UNL1        0.2596
     27 N           4.7649   -4.0860   18.3263 N.am    1  UNL1       -0.3259
     28 O           6.5342   -2.3786   17.4870 O.2     1  UNL1       -0.2715
     29 H           3.9934   -4.3028   18.8982 H       1  UNL1        0.1451
     30 H           5.1467   -4.7731   17.7335 H       1  UNL1        0.1451
@<TRIPOS>BOND
     1    20    21    1
     2    21    22    1
     3    21    15    1
     4    15    16   ar
     5    16    17   ar
     6    17    18   ar
     7    18    19   ar
     8    19     1    1
     9     1     2   ar
    10     2     3   ar
    11     3     4   ar
    12     4     5   ar
    13     4     6    1
    14     6     7   ar
    15     7     8   ar
    16     8     9   ar
    17     9    23    1
    18    23    24    1
    19    24    25    1
    20    24    26    1
    21    26    27   am
    22    26    28    2
    23     9    10   ar
    24    10    11   ar
    25    11    12    1
    26    12    13    1
    27    13    14    1
    28    19    15   ar
    29     5     1   ar
    30    11     6   ar
    31    14     3    1
    32    27    29    1
    33    27    30    1
@<TRIPOS>MOLECULE
*****
 30 33 0 0 0
SMALL
GASTEIGER

@<TRIPOS>ATOM
      1 C           4.4942   -2.6241   22.1314 C.ar    1  UNL1        0.1355
      2 C           3.5593   -1.5181   22.5222 C.ar    1  UNL1        0.0996
      3 N           3.7752   -1.2210   23.9765 N.ar    1  UNL1       -0.3063
      4 C           4.8434   -2.1433   24.4845 C.ar    1  UNL1        0.1470
      5 N           5.2879   -3.0105   23.3442 N.ar    1  UNL1       -0.2236
      6 C           5.4156   -2.2398   25.8678 C.ar    1  UNL1        0.0683
      7 C           6.4719   -3.3015   25.9511 C.ar    1  UNL1        0.0091
      8 C           7.1732   -3.5613   27.2513 C.ar    1  UNL1        0.0372
      9 C           6.8184   -2.7592   28.4682 C.ar    1  UNL1        0.1421
     10 C           5.7622   -1.6974   28.3849 C.ar    1  UNL1        0.0739
     11 C           5.0608   -1.4377   27.0847 C.ar    1  UNL1        0.1445
     12 O           4.0461   -0.3411   27.2188 O.3     1  UNL1       -0.4732
     13 C           3.1357    0.2243   26.1693 C.3     1  UNL1        0.2298
     14 C           3.0152   -0.1673   24.7263 C.3     1  UNL1        0.1547
     15 N           5.1084   -2.5451   19.5310 N.ar    1  UNL1       -0.2333
     16 N           5.0608   -3.5288   18.3997 N.ar    1  UNL1       -0.1453
     17 C           4.5374   -4.8279   18.9366 C.ar    1  UNL1        0.2209
     18 N           4.2615   -4.6471   20.3998 N.ar    1  UNL1       -0.2021
     19 C           4.6143   -3.2363   20.7673 C.ar    1  UNL1        0.1804
     20 C           4.6693   -0.0769   18.8489 C.3     1  UNL1        0.0264
     21 C           5.5690   -1.1203   19.4419 C.3     1  UNL1        0.1070
     22 C           6.9294   -0.7391   19.9459 C.3     1  UNL1        0.0264
     23 O           7.5198   -3.0190   29.7684 O.3     1  UNL1       -0.4699
     24 C           6.8107   -3.7487   30.8705 C.3     1  UNL1        0.2409
     25 C           6.0060   -2.9843   31.8796 C.3     1  UNL1        0.0574
     26 C           6.9061   -5.2427   30.9634 C.2     1  UNL1        0.2596
     27 N           6.7023   -5.9266   32.2829 N.am    1  UNL1       -0.3259
     28 O           7.2053   -6.0529   29.7371 O.2     1  UNL1       -0.2715
     29 H           6.5059   -5.3949   33.0878 H       1  UNL1        0.1451
     30 H           6.7649   -6.9072   32.3439 H       1  UNL1        0.1451
@<TRIPOS>BOND
     1    20    21    1
     2    21    22    1
     3    21    15    1
     4    15    16   ar
     5    16    17   ar
     6    17    18   ar
     7    18    19   ar
     8    19     1    1
     9     1     2   ar
    10     2     3   ar
    11     3     4   ar
    12     4     5   ar
    13     4     6    1
    14     6     7   ar
    15     7     8   ar
    16     8     9   ar
    17     9    23    1
    18    23    24    1
    19    24    25    1
    20    24    26    1
    21    26    27   am
    22    26    28    2
    23     9    10   ar
    24    10    11   ar
    25    11    12    1
    26    12    13    1
    27    13    14    1
    28    19    15   ar
    29     5     1   ar
    30    11     6   ar
    31    14     3    1
    32    27    29    1
    33    27    30    1
@<TRIPOS>MOLECULE
*****
 30 33 0 0 0
SMALL
GASTEIGER

@<TRIPOS>ATOM
      1 C           3.2576    2.7335   36.5023 C.ar    1  UNL1        0.1355
      2 C           2.2652    3.2369   35.4964 C.ar    1  UNL1        0.0996
      3 N           2.3793    2.3857   34.2667 N.ar    1  UNL1       -0.3063
      4 C           3.4421    1.3561   34.5125 C.ar    1  UNL1        0.1470
      5 N           3.9849    1.5711   35.8943 N.ar    1  UNL1       -0.2236
      6 C           3.9285    0.2759   33.5924 C.ar    1  UNL1        0.0683
      7 C           5.0106   -0.5426   34.2320 C.ar    1  UNL1        0.0091
      8 C           5.6363   -1.6786   33.4784 C.ar    1  UNL1        0.0372
      9 C           5.1801   -1.9960   32.0852 C.ar    1  UNL1        0.1421
     10 C           4.0980   -1.1775   31.4456 C.ar    1  UNL1        0.0739
     11 C           3.4723   -0.0415   32.1992 C.ar    1  UNL1        0.1445
     12 O           2.4169    0.6429   31.3820 O.3     1  UNL1       -0.4732
     13 C           1.5571    1.8137   31.7562 C.3     1  UNL1        0.2298
     14 C           1.5404    2.5893   33.0400 C.3     1  UNL1        0.1547
     15 N           2.7028    2.9468   39.1085 N.ar    1  UNL1       -0.2333
     16 N           3.2658    3.7385   40.2513 N.ar    1  UNL1       -0.1453
     17 C           4.3940    4.5750   39.7246 C.ar    1  UNL1        0.2209
     18 N           4.5282    4.3003   38.2560 N.ar    1  UNL1       -0.2021
     19 C           3.4830    3.2941   37.8752 C.ar    1  UNL1        0.1804
     20 C           0.1547    2.4849   39.3179 C.3     1  UNL1        0.0264
     21 C           1.5602    1.9780   39.1852 C.3     1  UNL1        0.1070
     22 C           1.8232    0.5023   39.1292 C.3     1  UNL1        0.0264
     23 O           5.8059   -3.1321   31.3316 O.3     1  UNL1       -0.4699
     24 C           6.5748   -2.8633   30.0721 C.3     1  UNL1        0.2409
     25 C           7.4899   -1.6775   29.9906 C.3     1  UNL1        0.0574
     26 C           6.4286   -3.7802   28.8940 C.2     1  UNL1        0.2596
     27 N           5.7646   -3.2912   27.6409 N.am    1  UNL1       -0.3259
     28 O           6.9463   -5.1859   28.9689 O.2     1  UNL1       -0.2715
     29 H           5.4248   -2.3685   27.5917 H       1  UNL1        0.1451
     30 H           5.6686   -3.8930   26.8676 H       1  UNL1        0.1451
@<TRIPOS>BOND
     1    20    21    1
     2    21    22    1
     3    21    15    1
     4    15    16   ar
     5    16    17   ar
     6    17    18   ar
     7    18    19   ar
     8    19     1    1
     9     1     2   ar
    10     2     3   ar
    11     3     4   ar
    12     4     5   ar
    13     4     6    1
    14     6     7   ar
    15     7     8   ar
    16     8     9   ar
    17     9    23    1
    18    23    24    1
    19    24    25    1
    20    24    26    1
    21    26    27   am
    22    26    28    2
    23     9    10   ar
    24    10    11   ar
    25    11    12    1
    26    12    13    1
    27    13    14    1
    28    19    15   ar
    29     5     1   ar
    30    11     6   ar
    31    14     3    1
    32    27    29    1
    33    27    30    1
