@<TRIPOS>MOLECULE
*****
 32 37 0 0 0
SMALL
GASTEIGER

@<TRIPOS>ATOM
      1 N          -0.6514    2.7613   26.9039 N.pl3   1  UNL1       -0.3058
      2 C           0.3433    3.7446   27.4457 C.3     1  UNL1        0.0909
      3 C           1.0317    3.4733   28.7505 C.3     1  UNL1        0.0237
      4 C           0.7255    2.2187   29.5134 C.3     1  UNL1        0.0285
      5 C          -0.2693    1.2353   28.9716 C.3     1  UNL1        0.0237
      6 C          -0.9577    1.5066   27.6668 C.3     1  UNL1        0.0909
      7 C           1.4139    1.9474   30.8182 C.3     1  UNL1        0.1117
      8 C           1.3395    2.8020   32.0488 C.ar    1  UNL1        0.0272
      9 C           0.6171    4.0844   32.3380 C.ar    1  UNL1        0.1379
     10 F          -0.2206    4.7297   31.2742 F       1  UNL1       -0.2044
     11 C           0.7325    4.7215   33.6912 C.ar    1  UNL1        0.0294
     12 C           1.5702    4.0761   34.7549 C.ar    1  UNL1        0.0023
     13 C           2.2926    2.7937   34.4657 C.ar    1  UNL1        0.0014
     14 C           2.1772    2.1566   33.1126 C.ar    1  UNL1        0.0173
     15 C           2.7694    0.9033   32.5396 C.ar    1  UNL1        0.0804
     16 C           3.6531   -0.2702   32.8429 C.ar    1  UNL1        0.1178
     17 N           3.7275   -1.1247   31.6124 N.ar    1  UNL1       -0.2223
     18 C           2.8898   -0.4794   30.5485 C.ar    1  UNL1        0.1788
     19 N           2.2976    0.7740   31.1216 N.ar    1  UNL1       -0.3069
     20 C          -2.7167    3.5752   22.9895 C.ar    1  UNL1        0.0054
     21 C          -1.2549    3.2396   23.0107 C.ar    1  UNL1        0.0015
     22 C          -0.5665    2.9683   24.3155 C.ar    1  UNL1        0.0168
     23 C          -1.3398    3.0326   25.5991 C.ar    1  UNL1        0.0757
     24 C          -2.8017    3.3683   25.5780 C.ar    1  UNL1        0.1533
     25 F          -3.5750    3.4326   26.8616 F       1  UNL1       -0.2029
     26 C          -3.4901    3.6396   24.2732 C.ar    1  UNL1        0.0310
     27 C          -6.1048    3.3080   18.9484 C.3     1  UNL1        0.1538
     28 N          -4.9624    3.7237   19.8273 N.ar    1  UNL1       -0.2473
     29 C          -4.6154    3.1318   21.1612 C.ar    1  UNL1        0.0967
     30 C          -3.4051    3.8465   21.6847 C.ar    1  UNL1        0.0397
     31 C          -3.0040    4.8803   20.6745 C.ar    1  UNL1        0.1216
     32 N          -3.9665    4.8043   19.5266 N.ar    1  UNL1       -0.1676
@<TRIPOS>BOND
     1    27    28    1
     2    28    29   ar
     3    29    30   ar
     4    30    20    1
     5    20    21   ar
     6    21    22   ar
     7    22    23   ar
     8    23     1    1
     9     1     2    1
    10     2     3    1
    11     3     4    1
    12     4     7    1
    13     7     8    1
    14     8     9   ar
    15     9    10    1
    16     9    11   ar
    17    11    12   ar
    18    12    13   ar
    19    13    14   ar
    20    14    15    1
    21    15    16   ar
    22    16    17   ar
    23    17    18   ar
    24    18    19   ar
    25     4     5    1
    26     5     6    1
    27    23    24   ar
    28    24    25    1
    29    24    26   ar
    30    30    31   ar
    31    31    32   ar
    32    32    28   ar
    33    26    20   ar
    34     6     1    1
    35    19     7    1
    36    14     8   ar
    37    19    15   ar
@<TRIPOS>MOLECULE
*****
 32 37 0 0 0
SMALL
GASTEIGER

@<TRIPOS>ATOM
      1 N           0.3570    1.7569   23.4629 N.pl3   1  UNL1       -0.3058
      2 C          -0.0100    1.3214   24.8506 C.3     1  UNL1        0.0909
      3 C          -0.8029    2.2345   25.7381 C.3     1  UNL1        0.0237
      4 C          -1.2287    3.5830   25.2380 C.3     1  UNL1        0.0285
      5 C          -0.8617    4.0185   23.8503 C.3     1  UNL1        0.0237
      6 C          -0.0688    3.1055   22.9628 C.3     1  UNL1        0.0909
      7 C          -2.0216    4.4960   26.1256 C.3     1  UNL1        0.1117
      8 C          -3.4941    4.7637   26.0249 C.ar    1  UNL1        0.0272
      9 C          -4.5461    4.2487   25.0878 C.ar    1  UNL1        0.1379
     10 F          -4.1765    3.2777   24.0060 F       1  UNL1       -0.2044
     11 C          -5.9678    4.7048   25.2326 C.ar    1  UNL1        0.0294
     12 C          -6.3373    5.6758   26.3145 C.ar    1  UNL1        0.0023
     13 C          -5.2853    6.1908   27.2516 C.ar    1  UNL1        0.0014
     14 C          -3.8637    5.7348   27.1068 C.ar    1  UNL1        0.0173
     15 C          -2.6197    6.0672   27.8761 C.ar    1  UNL1        0.0804
     16 C          -2.0793    6.8728   29.0202 C.ar    1  UNL1        0.1178
     17 N          -0.6068    6.6051   29.1209 N.ar    1  UNL1       -0.2223
     18 C          -0.2372    5.6340   28.0391 C.ar    1  UNL1        0.1788
     19 N          -1.4812    5.3016   27.2697 N.ar    1  UNL1       -0.3069
     20 C           2.7356   -0.9821   20.8002 C.ar    1  UNL1        0.0054
     21 C           3.1656   -0.7561   22.2194 C.ar    1  UNL1        0.0015
     22 C           2.3727    0.1569   23.1069 C.ar    1  UNL1        0.0168
     23 C           1.1499    0.8439   22.5754 C.ar    1  UNL1        0.0757
     24 C           0.7198    0.6180   21.1561 C.ar    1  UNL1        0.1533
     25 F          -0.5030    1.3050   20.6246 F       1  UNL1       -0.2029
     26 C           1.5127   -0.2950   20.2686 C.ar    1  UNL1        0.0310
     27 C           4.7945   -5.3315   18.6266 C.3     1  UNL1        0.1538
     28 N           4.4748   -3.8943   18.9136 N.ar    1  UNL1       -0.2473
     29 C           3.5516   -3.3931   19.9844 C.ar    1  UNL1        0.0967
     30 C           3.5285   -1.8951   19.9127 C.ar    1  UNL1        0.0397
     31 C           4.4374   -1.4702   18.7976 C.ar    1  UNL1        0.1216
     32 N           5.0223   -2.7058   18.1801 N.ar    1  UNL1       -0.1676
@<TRIPOS>BOND
     1    27    28    1
     2    28    29   ar
     3    29    30   ar
     4    30    20    1
     5    20    21   ar
     6    21    22   ar
     7    22    23   ar
     8    23     1    1
     9     1     2    1
    10     2     3    1
    11     3     4    1
    12     4     7    1
    13     7     8    1
    14     8     9   ar
    15     9    10    1
    16     9    11   ar
    17    11    12   ar
    18    12    13   ar
    19    13    14   ar
    20    14    15    1
    21    15    16   ar
    22    16    17   ar
    23    17    18   ar
    24    18    19   ar
    25     4     5    1
    26     5     6    1
    27    23    24   ar
    28    24    25    1
    29    24    26   ar
    30    30    31   ar
    31    31    32   ar
    32    32    28   ar
    33    26    20   ar
    34     6     1    1
    35    19     7    1
    36    14     8   ar
    37    19    15   ar
@<TRIPOS>MOLECULE
*****
 32 37 0 0 0
SMALL
GASTEIGER

@<TRIPOS>ATOM
      1 N          -0.8150    2.7585   20.7901 N.pl3   1  UNL1       -0.3058
      2 C           0.2083    2.0493   21.6267 C.3     1  UNL1        0.0909
      3 C           1.4921    1.5835   21.0062 C.3     1  UNL1        0.0237
      4 C           1.7525    1.8270   19.5492 C.3     1  UNL1        0.0285
      5 C           0.7292    2.5363   18.7126 C.3     1  UNL1        0.0237
      6 C          -0.5546    3.0020   19.3331 C.3     1  UNL1        0.0909
      7 C           3.0363    1.3612   18.9287 C.3     1  UNL1        0.1117
      8 C           3.5121   -0.0591   18.8477 C.ar    1  UNL1        0.0272
      9 C           2.9080   -1.3484   19.3197 C.ar    1  UNL1        0.1379
     10 F           1.5806   -1.3433   20.0181 F       1  UNL1       -0.2044
     11 C           3.6315   -2.6428   19.0932 C.ar    1  UNL1        0.0294
     12 C           4.9589   -2.6477   18.3948 C.ar    1  UNL1        0.0023
     13 C           5.5630   -1.3584   17.9228 C.ar    1  UNL1        0.0014
     14 C           4.8396   -0.0641   18.1492 C.ar    1  UNL1        0.0173
     15 C           5.1842    1.3531   17.7986 C.ar    1  UNL1        0.0804
     16 C           6.2177    2.2258   17.1502 C.ar    1  UNL1        0.1178
     17 N           5.7419    3.6460   17.2312 N.ar    1  UNL1       -0.2223
     18 C           4.4144    3.6511   17.9297 C.ar    1  UNL1        0.1788
     19 N           4.0698    2.2339   18.2803 N.ar    1  UNL1       -0.3069
     20 C          -4.6663    4.1558   22.6515 C.ar    1  UNL1        0.0054
     21 C          -4.6626    3.6139   21.2529 C.ar    1  UNL1        0.0015
     22 C          -3.3788    3.1482   20.6324 C.ar    1  UNL1        0.0168
     23 C          -2.0988    3.2243   21.4106 C.ar    1  UNL1        0.0757
     24 C          -2.1025    3.7661   22.8094 C.ar    1  UNL1        0.1533
     25 F          -0.8224    3.8422   23.5876 F       1  UNL1       -0.2029
     26 C          -3.3863    4.2319   23.4298 C.ar    1  UNL1        0.0310
     27 C          -8.1246    6.4188   25.9379 C.3     1  UNL1        0.1538
     28 N          -7.5396    5.6617   24.7826 N.ar    1  UNL1       -0.2473
     29 C          -6.0801    5.4187   24.5359 C.ar    1  UNL1        0.0967
     30 C          -5.9501    4.6215   23.2720 C.ar    1  UNL1        0.0397
     31 C          -7.3292    4.3718   22.7374 C.ar    1  UNL1        0.1216
     32 N          -8.3116    5.0148   23.6710 N.ar    1  UNL1       -0.1676
@<TRIPOS>BOND
     1    27    28    1
     2    28    29   ar
     3    29    30   ar
     4    30    20    1
     5    20    21   ar
     6    21    22   ar
     7    22    23   ar
     8    23     1    1
     9     1     2    1
    10     2     3    1
    11     3     4    1
    12     4     7    1
    13     7     8    1
    14     8     9   ar
    15     9    10    1
    16     9    11   ar
    17    11    12   ar
    18    12    13   ar
    19    13    14   ar
    20    14    15    1
    21    15    16   ar
    22    16    17   ar
    23    17    18   ar
    24    18    19   ar
    25     4     5    1
    26     5     6    1
    27    23    24   ar
    28    24    25    1
    29    24    26   ar
    30    30    31   ar
    31    31    32   ar
    32    32    28   ar
    33    26    20   ar
    34     6     1    1
    35    19     7    1
    36    14     8   ar
    37    19    15   ar
@<TRIPOS>MOLECULE
*****
 32 37 0 0 0
SMALL
GASTEIGER

@<TRIPOS>ATOM
      1 N           0.6195    2.2132   29.5281 N.pl3   1  UNL1       -0.3058
      2 C          -0.2379    1.1707   28.8738 C.3     1  UNL1        0.0909
      3 C          -1.0537    1.5213   27.6649 C.3     1  UNL1        0.0237
      4 C          -1.0121    2.9143   27.1102 C.3     1  UNL1        0.0285
      5 C          -0.1546    3.9568   27.7644 C.3     1  UNL1        0.0237
      6 C           0.6612    3.6063   28.9734 C.3     1  UNL1        0.0909
      7 C          -1.8279    3.2649   25.9012 C.3     1  UNL1        0.1117
      8 C          -1.3906    3.1291   24.4727 C.ar    1  UNL1        0.0272
      9 C          -0.1125    2.6429   23.8563 C.ar    1  UNL1        0.1379
     10 F           1.0135    2.1789   24.7318 F       1  UNL1       -0.2044
     11 C           0.0395    2.6207   22.3641 C.ar    1  UNL1        0.0294
     12 C          -1.0865    3.0847   21.4886 C.ar    1  UNL1        0.0023
     13 C          -2.3646    3.5709   22.1051 C.ar    1  UNL1        0.0014
     14 C          -2.5167    3.5931   23.5972 C.ar    1  UNL1        0.0173
     15 C          -3.6499    4.0157   24.4844 C.ar    1  UNL1        0.0804
     16 C          -5.0462    4.5636   24.4916 C.ar    1  UNL1        0.1178
     17 N          -5.4835    4.6994   25.9200 N.ar    1  UNL1       -0.2223
     18 C          -4.3575    4.2354   26.7956 C.ar    1  UNL1        0.1788
     19 N          -3.2242    3.8128   25.9084 N.ar    1  UNL1       -0.3069
     20 C           3.0669    1.1614   33.1549 C.ar    1  UNL1        0.0054
     21 C           3.3737    0.5238   31.8324 C.ar    1  UNL1        0.0015
     22 C           2.5579    0.8743   30.6234 C.ar    1  UNL1        0.0168
     23 C           1.4353    1.8626   30.7370 C.ar    1  UNL1        0.0757
     24 C           1.1284    2.5003   32.0596 C.ar    1  UNL1        0.1533
     25 F           0.0057    3.4886   32.1732 F       1  UNL1       -0.2029
     26 C           1.9442    2.1497   33.2686 C.ar    1  UNL1        0.0310
     27 C           5.5048    1.4656   37.8288 C.3     1  UNL1        0.1538
     28 N           5.0032    0.9507   36.5122 N.ar    1  UNL1       -0.2473
     29 C           4.1440    1.7039   35.5403 C.ar    1  UNL1        0.0967
     30 C           3.8827    0.8109   34.3639 C.ar    1  UNL1        0.0397
     31 C           4.5803   -0.4943   34.6085 C.ar    1  UNL1        0.1216
     32 N           5.2728   -0.4079   35.9363 N.ar    1  UNL1       -0.1676
@<TRIPOS>BOND
     1    27    28    1
     2    28    29   ar
     3    29    30   ar
     4    30    20    1
     5    20    21   ar
     6    21    22   ar
     7    22    23   ar
     8    23     1    1
     9     1     2    1
    10     2     3    1
    11     3     4    1
    12     4     7    1
    13     7     8    1
    14     8     9   ar
    15     9    10    1
    16     9    11   ar
    17    11    12   ar
    18    12    13   ar
    19    13    14   ar
    20    14    15    1
    21    15    16   ar
    22    16    17   ar
    23    17    18   ar
    24    18    19   ar
    25     4     5    1
    26     5     6    1
    27    23    24   ar
    28    24    25    1
    29    24    26   ar
    30    30    31   ar
    31    31    32   ar
    32    32    28   ar
    33    26    20   ar
    34     6     1    1
    35    19     7    1
    36    14     8   ar
    37    19    15   ar
@<TRIPOS>MOLECULE
*****
 32 37 0 0 0
SMALL
GASTEIGER

@<TRIPOS>ATOM
      1 N           3.0944    0.2992   27.8897 N.pl3   1  UNL1       -0.3058
      2 C           4.0298    1.3533   28.4031 C.3     1  UNL1        0.0909
      3 C           4.0000    1.7415   29.8517 C.3     1  UNL1        0.0237
      4 C           3.0346    1.0755   30.7869 C.3     1  UNL1        0.0285
      5 C           2.0991    0.0213   30.2735 C.3     1  UNL1        0.0237
      6 C           2.1290   -0.3669   28.8249 C.3     1  UNL1        0.0909
      7 C           3.0048    1.4637   32.2355 C.3     1  UNL1        0.1117
      8 C           3.7137    0.7567   33.3525 C.ar    1  UNL1        0.0272
      9 C           4.5982   -0.4546   33.3724 C.ar    1  UNL1        0.1379
     10 F           4.9040   -1.1809   32.0962 F       1  UNL1       -0.2044
     11 C           5.1768   -0.9395   34.6686 C.ar    1  UNL1        0.0294
     12 C           4.8709   -0.2131   35.9448 C.ar    1  UNL1        0.0023
     13 C           3.9864    0.9982   35.9249 C.ar    1  UNL1        0.0014
     14 C           3.4078    1.4831   34.6288 C.ar    1  UNL1        0.0173
     15 C           2.5098    2.6390   34.3005 C.ar    1  UNL1        0.0804
     16 C           1.7659    3.8022   34.8865 C.ar    1  UNL1        0.1178
     17 N           1.0570    4.5091   33.7694 N.ar    1  UNL1       -0.2223
     18 C           1.3629    3.7828   32.4932 C.ar    1  UNL1        0.1788
     19 N           2.2608    2.6270   32.8214 N.ar    1  UNL1       -0.3069
     20 C           3.1840   -0.8654   23.5439 C.ar    1  UNL1        0.0054
     21 C           2.3198    0.2737   23.9975 C.ar    1  UNL1        0.0015
     22 C           2.2900    0.6619   25.4461 C.ar    1  UNL1        0.0168
     23 C           3.1242   -0.0890   26.4411 C.ar    1  UNL1        0.0757
     24 C           3.9884   -1.2281   25.9875 C.ar    1  UNL1        0.1533
     25 F           4.8227   -1.9790   26.9826 F       1  UNL1       -0.2029
     26 C           4.0183   -1.6163   24.5390 C.ar    1  UNL1        0.0310
     27 C           4.5108   -3.1975   18.9962 C.3     1  UNL1        0.1538
     28 N           3.8237   -2.3255   20.0050 N.ar    1  UNL1       -0.2473
     29 C           4.1438   -2.2496   21.4685 C.ar    1  UNL1        0.0967
     30 C           3.2139   -1.2536   22.0953 C.ar    1  UNL1        0.0397
     31 C           2.3190   -0.7137   21.0193 C.ar    1  UNL1        0.1216
     32 N           2.6959   -1.3763   19.7274 N.ar    1  UNL1       -0.1676
@<TRIPOS>BOND
     1    27    28    1
     2    28    29   ar
     3    29    30   ar
     4    30    20    1
     5    20    21   ar
     6    21    22   ar
     7    22    23   ar
     8    23     1    1
     9     1     2    1
    10     2     3    1
    11     3     4    1
    12     4     7    1
    13     7     8    1
    14     8     9   ar
    15     9    10    1
    16     9    11   ar
    17    11    12   ar
    18    12    13   ar
    19    13    14   ar
    20    14    15    1
    21    15    16   ar
    22    16    17   ar
    23    17    18   ar
    24    18    19   ar
    25     4     5    1
    26     5     6    1
    27    23    24   ar
    28    24    25    1
    29    24    26   ar
    30    30    31   ar
    31    31    32   ar
    32    32    28   ar
    33    26    20   ar
    34     6     1    1
    35    19     7    1
    36    14     8   ar
    37    19    15   ar
@<TRIPOS>MOLECULE
*****
 32 37 0 0 0
SMALL
GASTEIGER

@<TRIPOS>ATOM
      1 N           1.4468    2.0832   27.5608 N.pl3   1  UNL1       -0.3058
      2 C           2.6601    2.2950   26.7046 C.3     1  UNL1        0.0909
      3 C           2.6086    1.9781   25.2394 C.3     1  UNL1        0.0237
      4 C           1.3439    1.4494   24.6303 C.3     1  UNL1        0.0285
      5 C           0.1306    1.2376   25.4866 C.3     1  UNL1        0.0237
      6 C           0.1820    1.5545   26.9518 C.3     1  UNL1        0.0909
      7 C           1.2924    1.1326   23.1651 C.3     1  UNL1        0.1117
      8 C           2.0874    0.0710   22.4641 C.ar    1  UNL1        0.0272
      9 C           3.0957   -0.9214   22.9626 C.ar    1  UNL1        0.1379
     10 F           3.4598   -0.9543   24.4173 F       1  UNL1       -0.2044
     11 C           3.7399   -1.8808   22.0062 C.ar    1  UNL1        0.0294
     12 C           3.3757   -1.8478   20.5515 C.ar    1  UNL1        0.0023
     13 C           2.3674   -0.8554   20.0530 C.ar    1  UNL1        0.0014
     14 C           1.7232    0.1040   21.0093 C.ar    1  UNL1        0.0173
     15 C           0.7033    1.1859   20.8112 C.ar    1  UNL1        0.0804
     16 C          -0.1521    1.8749   19.7896 C.ar    1  UNL1        0.1178
     17 N          -0.9470    2.9364   20.4906 N.ar    1  UNL1       -0.2223
     18 C          -0.5829    2.9035   21.9454 C.ar    1  UNL1        0.1788
     19 N           0.4371    1.8216   22.1435 N.ar    1  UNL1       -0.3069
     20 C           1.6013    3.0338   31.9566 C.ar    1  UNL1        0.0054
     21 C           1.6290    4.1435   30.9478 C.ar    1  UNL1        0.0015
     22 C           1.5775    3.8267   29.4826 C.ar    1  UNL1        0.0168
     23 C           1.4983    2.4000   29.0261 C.ar    1  UNL1        0.0757
     24 C           1.4706    1.2902   30.0348 C.ar    1  UNL1        0.1533
     25 F           1.3914   -0.1364   29.5784 F       1  UNL1       -0.2029
     26 C           1.5221    1.6071   31.5001 C.ar    1  UNL1        0.0310
     27 C           0.9871    5.4974   36.5863 C.3     1  UNL1        0.1538
     28 N           1.3704    4.4831   35.5498 N.ar    1  UNL1       -0.2473
     29 C           1.0981    4.5802   34.0779 C.ar    1  UNL1        0.0967
     30 C           1.6527    3.3507   33.4218 C.ar    1  UNL1        0.0397
     31 C           2.2679    2.4935   34.4881 C.ar    1  UNL1        0.1216
     32 N           2.0934    3.1935   35.8033 N.ar    1  UNL1       -0.1676
@<TRIPOS>BOND
     1    27    28    1
     2    28    29   ar
     3    29    30   ar
     4    30    20    1
     5    20    21   ar
     6    21    22   ar
     7    22    23   ar
     8    23     1    1
     9     1     2    1
    10     2     3    1
    11     3     4    1
    12     4     7    1
    13     7     8    1
    14     8     9   ar
    15     9    10    1
    16     9    11   ar
    17    11    12   ar
    18    12    13   ar
    19    13    14   ar
    20    14    15    1
    21    15    16   ar
    22    16    17   ar
    23    17    18   ar
    24    18    19   ar
    25     4     5    1
    26     5     6    1
    27    23    24   ar
    28    24    25    1
    29    24    26   ar
    30    30    31   ar
    31    31    32   ar
    32    32    28   ar
    33    26    20   ar
    34     6     1    1
    35    19     7    1
    36    14     8   ar
    37    19    15   ar
@<TRIPOS>MOLECULE
*****
 32 37 0 0 0
SMALL
GASTEIGER

@<TRIPOS>ATOM
      1 N           1.5507    1.8950   26.4468 N.pl3   1  UNL1       -0.3058
      2 C           0.3539    1.4678   25.6500 C.3     1  UNL1        0.0909
      3 C           0.5302    0.9348   24.2590 C.3     1  UNL1        0.0237
      4 C           1.9034    0.8292   23.6648 C.3     1  UNL1        0.0285
      5 C           3.1004    1.2565   24.4616 C.3     1  UNL1        0.0237
      6 C           2.9240    1.7894   25.8526 C.3     1  UNL1        0.0909
      7 C           2.0798    0.2963   22.2738 C.3     1  UNL1        0.1117
      8 C           2.8768   -0.9145   21.8879 C.ar    1  UNL1        0.0272
      9 C           3.6784   -1.8888   22.6992 C.ar    1  UNL1        0.1379
     10 F           3.7756   -1.7248   24.1869 F       1  UNL1       -0.2044
     11 C           4.3830   -3.0272   22.0225 C.ar    1  UNL1        0.0294
     12 C           4.2858   -3.1911   20.5347 C.ar    1  UNL1        0.0023
     13 C           3.4842   -2.2168   19.7235 C.ar    1  UNL1        0.0014
     14 C           2.7797   -1.0785   20.4001 C.ar    1  UNL1        0.0173
     15 C           1.9226    0.0309   19.8664 C.ar    1  UNL1        0.0804
     16 C           1.3329    0.6151   18.6170 C.ar    1  UNL1        0.1178
     17 N           0.5359    1.8258   19.0029 N.ar    1  UNL1       -0.2223
     18 C           0.6331    1.9899   20.4908 C.ar    1  UNL1        0.1788
     19 N           1.4901    0.8805   21.0244 N.ar    1  UNL1       -0.3069
     20 C           1.0217    3.4937   30.6199 C.ar    1  UNL1        0.0054
     21 C           1.4347    4.4150   29.5105 C.ar    1  UNL1        0.0015
     22 C           1.6110    3.8821   28.1195 C.ar    1  UNL1        0.0168
     23 C           1.3744    2.4279   27.8378 C.ar    1  UNL1        0.0757
     24 C           0.9614    1.5066   28.9472 C.ar    1  UNL1        0.1533
     25 F           0.7247    0.0524   28.6656 F       1  UNL1       -0.2029
     26 C           0.7850    2.0395   30.3382 C.ar    1  UNL1        0.0310
     27 C           1.6611    4.3379   35.7928 C.3     1  UNL1        0.1538
     28 N           1.1393    4.4146   34.3886 N.ar    1  UNL1       -0.2473
     29 C           1.6563    3.6408   33.2122 C.ar    1  UNL1        0.0967
     30 C           0.8453    4.0267   32.0109 C.ar    1  UNL1        0.0397
     31 C          -0.1730    5.0390   32.4446 C.ar    1  UNL1        0.1216
     32 N           0.0087    5.2788   33.9142 N.ar    1  UNL1       -0.1676
@<TRIPOS>BOND
     1    27    28    1
     2    28    29   ar
     3    29    30   ar
     4    30    20    1
     5    20    21   ar
     6    21    22   ar
     7    22    23   ar
     8    23     1    1
     9     1     2    1
    10     2     3    1
    11     3     4    1
    12     4     7    1
    13     7     8    1
    14     8     9   ar
    15     9    10    1
    16     9    11   ar
    17    11    12   ar
    18    12    13   ar
    19    13    14   ar
    20    14    15    1
    21    15    16   ar
    22    16    17   ar
    23    17    18   ar
    24    18    19   ar
    25     4     5    1
    26     5     6    1
    27    23    24   ar
    28    24    25    1
    29    24    26   ar
    30    30    31   ar
    31    31    32   ar
    32    32    28   ar
    33    26    20   ar
    34     6     1    1
    35    19     7    1
    36    14     8   ar
    37    19    15   ar
@<TRIPOS>MOLECULE
*****
 32 37 0 0 0
SMALL
GASTEIGER

@<TRIPOS>ATOM
      1 N           0.5056    2.2301   21.8916 N.pl3   1  UNL1       -0.3058
      2 C           0.1575    1.3476   20.7297 C.3     1  UNL1        0.0909
      3 C           1.2435    0.8022   19.8505 C.3     1  UNL1        0.0237
      4 C           2.6775    1.1392   20.1331 C.3     1  UNL1        0.0285
      5 C           3.0256    2.0217   21.2950 C.3     1  UNL1        0.0237
      6 C           1.9397    2.5672   22.1743 C.3     1  UNL1        0.0909
      7 C           3.7635    0.5937   19.2539 C.3     1  UNL1        0.1117
      8 C           4.1454   -0.8505   19.1173 C.ar    1  UNL1        0.0272
      9 C           3.6095   -2.0955   19.7598 C.ar    1  UNL1        0.1379
     10 F           2.4787   -2.0058   20.7412 F       1  UNL1       -0.2044
     11 C           4.2044   -3.4301   19.4209 C.ar    1  UNL1        0.0294
     12 C           5.3352   -3.5197   18.4395 C.ar    1  UNL1        0.0023
     13 C           5.8711   -2.2747   17.7969 C.ar    1  UNL1        0.0014
     14 C           5.2762   -0.9401   18.1358 C.ar    1  UNL1        0.0173
     15 C           5.5933    0.4486   17.6658 C.ar    1  UNL1        0.0804
     16 C           6.4881    1.2515   16.7688 C.ar    1  UNL1        0.1178
     17 N           6.1062    2.6956   16.9054 N.ar    1  UNL1       -0.2223
     18 C           4.9754    2.7853   17.8869 C.ar    1  UNL1        0.1788
     19 N           4.6584    1.3965   18.3568 N.ar    1  UNL1       -0.3069
     20 C          -2.7524    3.8666   24.5293 C.ar    1  UNL1        0.0054
     21 C          -2.7587    4.1621   23.0587 C.ar    1  UNL1        0.0015
     22 C          -1.6727    3.6166   22.1795 C.ar    1  UNL1        0.0168
     23 C          -0.5804    2.7756   22.7708 C.ar    1  UNL1        0.0757
     24 C          -0.5742    2.4801   24.2415 C.ar    1  UNL1        0.1533
     25 F           0.5181    1.6391   24.8328 F       1  UNL1       -0.2029
     26 C          -1.6602    3.0256   25.1207 C.ar    1  UNL1        0.0310
     27 C          -7.2024    6.1997   26.1528 C.3     1  UNL1        0.1538
     28 N          -5.8838    5.4844   26.1547 N.ar    1  UNL1       -0.2473
     29 C          -5.0822    5.1096   24.9435 C.ar    1  UNL1        0.0967
     30 C          -3.8384    4.4121   25.4085 C.ar    1  UNL1        0.0397
     31 C          -3.8711    4.3557   26.9071 C.ar    1  UNL1        0.1216
     32 N          -5.1353    5.0185   27.3683 N.ar    1  UNL1       -0.1676
@<TRIPOS>BOND
     1    27    28    1
     2    28    29   ar
     3    29    30   ar
     4    30    20    1
     5    20    21   ar
     6    21    22   ar
     7    22    23   ar
     8    23     1    1
     9     1     2    1
    10     2     3    1
    11     3     4    1
    12     4     7    1
    13     7     8    1
    14     8     9   ar
    15     9    10    1
    16     9    11   ar
    17    11    12   ar
    18    12    13   ar
    19    13    14   ar
    20    14    15    1
    21    15    16   ar
    22    16    17   ar
    23    17    18   ar
    24    18    19   ar
    25     4     5    1
    26     5     6    1
    27    23    24   ar
    28    24    25    1
    29    24    26   ar
    30    30    31   ar
    31    31    32   ar
    32    32    28   ar
    33    26    20   ar
    34     6     1    1
    35    19     7    1
    36    14     8   ar
    37    19    15   ar
@<TRIPOS>MOLECULE
*****
 32 37 0 0 0
SMALL
GASTEIGER

@<TRIPOS>ATOM
      1 N           0.9825    1.6530   23.1556 N.pl3   1  UNL1       -0.3058
      2 C           0.5811    0.9426   21.8970 C.3     1  UNL1        0.0909
      3 C           1.5992    0.1636   21.1181 C.3     1  UNL1        0.0237
      4 C           3.0187    0.0950   21.5978 C.3     1  UNL1        0.0285
      5 C           3.4202    0.8055   22.8565 C.3     1  UNL1        0.0237
      6 C           2.4020    1.5844   23.6354 C.3     1  UNL1        0.0909
      7 C           4.0368   -0.6839   20.8190 C.3     1  UNL1        0.1117
      8 C           4.7204   -0.2320   19.5625 C.ar    1  UNL1        0.0272
      9 C           4.6117    1.0300   18.7590 C.ar    1  UNL1        0.1379
     10 F           3.6760    2.1182   19.1947 F       1  UNL1       -0.2044
     11 C           5.4388    1.2035   17.5196 C.ar    1  UNL1        0.0294
     12 C           6.3745    0.1152   17.0840 C.ar    1  UNL1        0.0023
     13 C           6.4833   -1.1468   17.8875 C.ar    1  UNL1        0.0014
     14 C           5.6562   -1.3204   19.1268 C.ar    1  UNL1        0.0173
     15 C           5.5510   -2.4449   20.1139 C.ar    1  UNL1        0.0804
     16 C           6.0643   -3.8125   20.4546 C.ar    1  UNL1        0.1178
     17 N           5.3807   -4.2644   21.7110 N.ar    1  UNL1       -0.2223
     18 C           4.4449   -3.1761   22.1468 C.ar    1  UNL1        0.1788
     19 N           4.5501   -2.0516   21.1597 N.ar    1  UNL1       -0.3069
     20 C          -2.0719    3.9898   25.4922 C.ar    1  UNL1        0.0054
     21 C          -1.6942    4.4242   24.1071 C.ar    1  UNL1        0.0015
     22 C          -0.6761    3.6453   23.3282 C.ar    1  UNL1        0.0168
     23 C          -0.0357    2.4319   23.9344 C.ar    1  UNL1        0.0757
     24 C          -0.4134    1.9975   25.3196 C.ar    1  UNL1        0.1533
     25 F           0.2271    0.7841   25.9259 F       1  UNL1       -0.2029
     26 C          -1.4315    2.7764   26.0985 C.ar    1  UNL1        0.0310
     27 C          -6.6619    6.0181   27.1350 C.3     1  UNL1        0.1538
     28 N          -5.1998    5.7011   27.0262 N.ar    1  UNL1       -0.2473
     29 C          -4.5671    4.7956   26.0114 C.ar    1  UNL1        0.0967
     30 C          -3.0900    4.7688   26.2711 C.ar    1  UNL1        0.0397
     31 C          -2.8097    5.6577   27.4463 C.ar    1  UNL1        0.1216
     32 N          -4.1137    6.2339   27.9130 N.ar    1  UNL1       -0.1676
@<TRIPOS>BOND
     1    27    28    1
     2    28    29   ar
     3    29    30   ar
     4    30    20    1
     5    20    21   ar
     6    21    22   ar
     7    22    23   ar
     8    23     1    1
     9     1     2    1
    10     2     3    1
    11     3     4    1
    12     4     7    1
    13     7     8    1
    14     8     9   ar
    15     9    10    1
    16     9    11   ar
    17    11    12   ar
    18    12    13   ar
    19    13    14   ar
    20    14    15    1
    21    15    16   ar
    22    16    17   ar
    23    17    18   ar
    24    18    19   ar
    25     4     5    1
    26     5     6    1
    27    23    24   ar
    28    24    25    1
    29    24    26   ar
    30    30    31   ar
    31    31    32   ar
    32    32    28   ar
    33    26    20   ar
    34     6     1    1
    35    19     7    1
    36    14     8   ar
    37    19    15   ar
