@<TRIPOS>MOLECULE
*****
 41 43 0 0 0
SMALL
GASTEIGER

@<TRIPOS>ATOM
      1 C           6.1763   -2.3298   25.7733 C.2     1  UNL1        0.2485
      2 O           6.6960   -1.0386   25.2141 O.2     1  UNL1       -0.2726
      3 N           5.3850   -3.2598   24.9021 N.am    1  UNL1       -0.2823
      4 H           5.0439   -4.1073   25.2691 H       1  UNL1        0.1549
      5 C           4.9858   -1.1300   31.1380 C.ar    1  UNL1        0.1054
      6 C           4.4362   -0.4541   29.9170 C.ar    1  UNL1        0.0181
      7 C           4.8655   -0.9055   28.5525 C.ar    1  UNL1       -0.0011
      8 C           5.8444   -2.0329   28.4090 C.ar    1  UNL1        0.0022
      9 C           6.3940   -2.7089   29.6300 C.ar    1  UNL1       -0.0030
     10 C           5.9647   -2.2574   30.9945 C.ar    1  UNL1        0.0155
     11 C           7.3372   -3.7847   29.1793 C.3     1  UNL1        0.1206
     12 N           7.3704   -3.7737   27.6797 N.am    1  UNL1       -0.2654
     13 C           8.1834   -4.6853   26.8090 C.2     1  UNL1        0.2275
     14 O           8.1139   -4.5556   25.3163 O.2     1  UNL1       -0.2748
     15 C           6.4478   -2.6910   27.2036 C.3     1  UNL1        0.1750
     16 S           4.5565   -0.6785   32.5025 S.O2    1  UNL1        0.0086
     17 O           5.2294    0.6430   32.2769 O.2     1  UNL1       -0.1686
     18 O           3.8837   -2.0001   32.7281 O.2     1  UNL1       -0.1686
     19 C           4.8059   -0.7764   35.0867 C.3     1  UNL1        0.0276
     20 C           4.1273   -0.2271   33.8670 C.3     1  UNL1        0.1560
     21 C           9.0660   -5.7264   27.4312 C.3     1  UNL1        0.1014
     22 C           9.3446   -7.0069   26.7013 C.3     1  UNL1        0.1150
     23 C           8.5979   -8.2557   27.0658 C.1     1  UNL1        0.0737
     24 N           7.8512   -9.5046   27.4303 N.1     1  UNL1       -0.1959
     25 C           5.1135   -2.8986   23.4718 C.ar    1  UNL1        0.0503
     26 C           4.0133   -1.9354   23.1374 C.ar    1  UNL1        0.0144
     27 C           3.7418   -1.5742   21.7071 C.ar    1  UNL1       -0.0002
     28 C           4.5703   -2.1761   20.6112 C.ar    1  UNL1        0.0182
     29 C           5.6705   -3.1394   20.9456 C.ar    1  UNL1       -0.0002
     30 C           5.9420   -3.5006   22.3759 C.ar    1  UNL1        0.0144
     31 C           4.2988   -1.8149   19.1809 C.3     1  UNL1        0.2827
     32 O           4.9543   -0.4825   19.3929 O.3     1  UNL1       -0.3692
     33 H           5.2611   -0.4155   20.3107 H       1  UNL1        0.2112
     34 C           4.0273   -1.4537   17.7506 C.3     1  UNL1        0.4311
     35 F           3.7557   -1.0925   16.3202 F       1  UNL1       -0.1669
     36 F           2.8680   -0.6065   18.1846 F       1  UNL1       -0.1669
     37 F           4.6872   -1.9243   17.3932 F       1  UNL1       -0.1669
     38 C           3.6433   -3.1474   18.9688 C.3     1  UNL1        0.4311
     39 F           2.9879   -4.4798   18.7568 F       1  UNL1       -0.1669
     40 F           2.8569   -2.9377   19.3183 F       1  UNL1       -0.1669
     41 F           4.7085   -3.9757   18.3137 F       1  UNL1       -0.1669
@<TRIPOS>BOND
     1    19    20    1
     2    20    16    1
     3    16    17    2
     4    16    18    2
     5    16     5    1
     6     5     6   ar
     7     6     7   ar
     8     7     8   ar
     9     8     9   ar
    10     9    10   ar
    11     9    11    1
    12    11    12    1
    13    12    13   am
    14    13    14    2
    15    13    21    1
    16    21    22    1
    17    22    23    1
    18    23    24    3
    19    12    15    1
    20    15     1    1
    21     1     2    2
    22     1     3   am
    23     3    25    1
    24    25    26   ar
    25    26    27   ar
    26    27    28   ar
    27    28    31    1
    28    31    32    1
    29    31    34    1
    30    34    35    1
    31    34    36    1
    32    34    37    1
    33    31    38    1
    34    38    39    1
    35    38    40    1
    36    38    41    1
    37    28    29   ar
    38    29    30   ar
    39    10     5   ar
    40    30    25   ar
    41    15     8    1
    42     3     4    1
    43    32    33    1
@<TRIPOS>MOLECULE
*****
 41 43 0 0 0
SMALL
GASTEIGER

@<TRIPOS>ATOM
      1 C           5.0067   -1.0010   26.1152 C.2     1  UNL1        0.2485
      2 O           5.6224    0.1928   25.4476 O.2     1  UNL1       -0.2726
      3 N           4.3087   -2.0432   25.2927 N.am    1  UNL1       -0.2823
      4 H           3.9046   -2.8268   25.7308 H       1  UNL1        0.1549
      5 C           3.1676    0.9553   31.0575 C.ar    1  UNL1        0.1054
      6 C           2.7883    1.4480   29.6925 C.ar    1  UNL1        0.0181
      7 C           3.3791    0.8058   28.4724 C.ar    1  UNL1       -0.0011
      8 C           4.3491   -0.3290   28.6174 C.ar    1  UNL1        0.0022
      9 C           4.7284   -0.8217   29.9824 C.ar    1  UNL1       -0.0030
     10 C           4.1376   -0.1795   31.2025 C.ar    1  UNL1        0.0155
     11 C           5.7027   -1.9498   29.8139 C.3     1  UNL1        0.1206
     12 N           5.9255   -2.1542   28.3447 N.am    1  UNL1       -0.2654
     13 C           6.8267   -3.1802   27.7239 C.2     1  UNL1        0.2275
     14 O           6.9488   -3.2665   26.2314 O.2     1  UNL1       -0.2748
     15 C           5.0890   -1.1525   27.6052 C.3     1  UNL1        0.1750
     16 S           2.5768    1.5975   32.2776 S.O2    1  UNL1        0.0086
     17 O           3.9551    1.8370   32.8189 O.2     1  UNL1       -0.1686
     18 O           1.1985    1.3580   31.7363 O.2     1  UNL1       -0.1686
     19 C           2.7009    2.1496   34.8133 C.3     1  UNL1        0.0276
     20 C           1.9860    2.2396   33.4977 C.3     1  UNL1        0.1560
     21 C           7.6058   -4.1199   28.5957 C.3     1  UNL1        0.1014
     22 C           6.9969   -5.4207   29.0281 C.3     1  UNL1        0.1150
     23 C           6.9114   -5.7607   30.4866 C.1     1  UNL1        0.0737
     24 N           6.8258   -6.1007   31.9451 N.1     1  UNL1       -0.1959
     25 C           4.2264   -1.8917   23.8026 C.ar    1  UNL1        0.0503
     26 C           3.2162   -0.9622   23.1979 C.ar    1  UNL1        0.0144
     27 C           3.1339   -0.8107   21.7079 C.ar    1  UNL1       -0.0002
     28 C           4.0618   -1.5885   20.8225 C.ar    1  UNL1        0.0182
     29 C           5.0720   -2.5179   21.4272 C.ar    1  UNL1       -0.0002
     30 C           5.1543   -2.6695   22.9172 C.ar    1  UNL1        0.0144
     31 C           3.9795   -1.4369   19.3324 C.3     1  UNL1        0.2827
     32 O           4.5149   -0.0402   19.4449 O.3     1  UNL1       -0.3692
     33 H           4.6805    0.1684   20.3777 H       1  UNL1        0.2112
     34 C           3.8972   -1.2853   17.8424 C.3     1  UNL1        0.4311
     35 F           3.8149   -1.1338   16.3524 F       1  UNL1       -0.1669
     36 F           2.6822   -0.4195   17.9976 F       1  UNL1       -0.1669
     37 F           4.6034   -1.7819   17.6442 F       1  UNL1       -0.1669
     38 C           3.4441   -2.8336   19.2199 C.3     1  UNL1        0.4311
     39 F           2.9087   -4.2302   19.1074 F       1  UNL1       -0.1669
     40 F           2.6184   -2.6545   19.4858 F       1  UNL1       -0.1669
     41 F           4.6177   -3.6345   18.7391 F       1  UNL1       -0.1669
@<TRIPOS>BOND
     1    19    20    1
     2    20    16    1
     3    16    17    2
     4    16    18    2
     5    16     5    1
     6     5     6   ar
     7     6     7   ar
     8     7     8   ar
     9     8     9   ar
    10     9    10   ar
    11     9    11    1
    12    11    12    1
    13    12    13   am
    14    13    14    2
    15    13    21    1
    16    21    22    1
    17    22    23    1
    18    23    24    3
    19    12    15    1
    20    15     1    1
    21     1     2    2
    22     1     3   am
    23     3    25    1
    24    25    26   ar
    25    26    27   ar
    26    27    28   ar
    27    28    31    1
    28    31    32    1
    29    31    34    1
    30    34    35    1
    31    34    36    1
    32    34    37    1
    33    31    38    1
    34    38    39    1
    35    38    40    1
    36    38    41    1
    37    28    29   ar
    38    29    30   ar
    39    10     5   ar
    40    30    25   ar
    41    15     8    1
    42     3     4    1
    43    32    33    1
@<TRIPOS>MOLECULE
*****
 41 43 0 0 0
SMALL
GASTEIGER

@<TRIPOS>ATOM
      1 C          -0.6220    2.8263   20.9925 C.2     1  UNL1        0.2485
      2 O           0.6867    3.4037   21.4438 O.2     1  UNL1       -0.2726
      3 N          -0.6560    1.4959   20.3004 N.am    1  UNL1       -0.2823
      4 H          -1.5149    1.1170   20.0041 H       1  UNL1        0.1549
      5 C          -4.1923    4.7166   24.9061 C.ar    1  UNL1        0.1054
      6 C          -2.9297    3.9394   25.1339 C.ar    1  UNL1        0.0181
      7 C          -2.0910    3.5121   23.9661 C.ar    1  UNL1       -0.0011
      8 C          -2.5148    3.8619   22.5704 C.ar    1  UNL1        0.0022
      9 C          -3.7774    4.6391   22.3426 C.ar    1  UNL1       -0.0030
     10 C          -4.6161    5.0664   23.5104 C.ar    1  UNL1        0.0155
     11 C          -3.9398    4.8367   20.8645 C.3     1  UNL1        0.1206
     12 N          -2.7775    4.1817   20.1788 N.am    1  UNL1       -0.2654
     13 C          -2.5379    4.1369   18.6987 C.2     1  UNL1        0.2275
     14 O          -1.3248    3.4416   18.1560 O.2     1  UNL1       -0.2748
     15 C          -1.8969    3.5792   21.2331 C.3     1  UNL1        0.1750
     16 S          -5.0310    5.1439   26.0740 S.O2    1  UNL1        0.0086
     17 O          -4.5723    3.9409   26.8436 O.2     1  UNL1       -0.1686
     18 O          -5.4897    6.3469   25.3044 O.2     1  UNL1       -0.1686
     19 C          -7.1179    6.3718   27.0158 C.3     1  UNL1        0.0276
     20 C          -5.8698    5.5712   27.2419 C.3     1  UNL1        0.1560
     21 C          -3.5116    4.7876   17.7614 C.3     1  UNL1        0.1014
     22 C          -4.6797    4.0085   17.2337 C.3     1  UNL1        0.1150
     23 C          -6.0192    4.1221   17.8993 C.1     1  UNL1        0.0737
     24 N          -7.3587    4.2357   18.5648 N.1     1  UNL1       -0.1959
     25 C           0.6188    0.7430   20.0597 C.ar    1  UNL1        0.0503
     26 C           1.1976   -0.1177   21.1434 C.ar    1  UNL1        0.0144
     27 C           2.4724   -0.8706   20.9027 C.ar    1  UNL1       -0.0002
     28 C           3.1685   -0.7629   19.5784 C.ar    1  UNL1        0.0182
     29 C           2.5898    0.0977   18.4948 C.ar    1  UNL1       -0.0002
     30 C           1.3150    0.8507   18.7354 C.ar    1  UNL1        0.0144
     31 C           4.4433   -1.5159   19.3377 C.3     1  UNL1        0.2827
     32 O           5.2088   -0.2261   19.3574 O.3     1  UNL1       -0.3692
     33 H           4.5966    0.5110   19.5084 H       1  UNL1        0.2112
     34 C           5.7181   -2.2688   19.0971 C.3     1  UNL1        0.4311
     35 F           6.9929   -3.0217   18.8564 F       1  UNL1       -0.1669
     36 F           6.2091   -1.8725   20.4579 F       1  UNL1       -0.1669
     37 F           5.5221   -2.5552   18.2821 F       1  UNL1       -0.1669
     38 C           3.6778   -2.8057   19.3181 C.3     1  UNL1        0.4311
     39 F           2.9123   -4.0955   19.2984 F       1  UNL1       -0.1669
     40 F           3.2650   -2.6745   18.5455 F       1  UNL1       -0.1669
     41 F           4.0848   -3.4887   20.5900 F       1  UNL1       -0.1669
@<TRIPOS>BOND
     1    19    20    1
     2    20    16    1
     3    16    17    2
     4    16    18    2
     5    16     5    1
     6     5     6   ar
     7     6     7   ar
     8     7     8   ar
     9     8     9   ar
    10     9    10   ar
    11     9    11    1
    12    11    12    1
    13    12    13   am
    14    13    14    2
    15    13    21    1
    16    21    22    1
    17    22    23    1
    18    23    24    3
    19    12    15    1
    20    15     1    1
    21     1     2    2
    22     1     3   am
    23     3    25    1
    24    25    26   ar
    25    26    27   ar
    26    27    28   ar
    27    28    31    1
    28    31    32    1
    29    31    34    1
    30    34    35    1
    31    34    36    1
    32    34    37    1
    33    31    38    1
    34    38    39    1
    35    38    40    1
    36    38    41    1
    37    28    29   ar
    38    29    30   ar
    39    10     5   ar
    40    30    25   ar
    41    15     8    1
    42     3     4    1
    43    32    33    1
@<TRIPOS>MOLECULE
*****
 41 43 0 0 0
SMALL
GASTEIGER

@<TRIPOS>ATOM
      1 C           1.4215    1.4554   24.4466 C.2     1  UNL1        0.2485
      2 O           2.1992    2.4735   23.6666 O.2     1  UNL1       -0.2726
      3 N           1.5446   -0.0012   24.1101 N.am    1  UNL1       -0.2823
      4 H           1.0341   -0.6695   24.6220 H       1  UNL1        0.1549
      5 C          -3.4129    4.0272   25.7314 C.ar    1  UNL1        0.1054
      6 C          -2.8534    3.7865   24.3607 C.ar    1  UNL1        0.0181
      7 C          -1.5404    3.0792   24.2001 C.ar    1  UNL1       -0.0011
      8 C          -0.7869    2.6126   25.4103 C.ar    1  UNL1        0.0022
      9 C          -1.3464    2.8533   26.7810 C.ar    1  UNL1       -0.0030
     10 C          -2.6594    3.5606   26.9416 C.ar    1  UNL1        0.0155
     11 C          -0.3846    2.2831   27.7810 C.3     1  UNL1        0.1206
     12 N           0.7693    1.6900   27.0282 N.am    1  UNL1       -0.2654
     13 C           1.9624    1.0122   27.6342 C.2     1  UNL1        0.2275
     14 O           3.0435    0.4650   26.7501 O.2     1  UNL1       -0.2748
     15 C           0.5207    1.8937   25.5630 C.3     1  UNL1        0.1750
     16 S          -4.7259    4.7345   25.8920 S.O2    1  UNL1        0.0086
     17 O          -4.6666    4.5081   27.3737 O.2     1  UNL1       -0.1686
     18 O          -4.7852    4.9608   24.4104 O.2     1  UNL1       -0.1686
     19 C          -6.3573    6.1498   27.3360 C.3     1  UNL1        0.0276
     20 C          -6.0389    5.4417   26.0526 C.3     1  UNL1        0.1560
     21 C           2.0744    0.8818   29.1243 C.3     1  UNL1        0.1014
     22 C           2.0631   -0.4762   29.7613 C.3     1  UNL1        0.1150
     23 C           2.8311   -0.7173   31.0270 C.1     1  UNL1        0.0737
     24 N           3.5991   -0.9585   32.2927 N.1     1  UNL1       -0.1959
     25 C           2.4454   -0.4395   22.9937 C.ar    1  UNL1        0.0503
     26 C           1.9851   -0.3270   21.5705 C.ar    1  UNL1        0.0144
     27 C           2.8859   -0.7654   20.4540 C.ar    1  UNL1       -0.0002
     28 C           4.2470   -1.3162   20.7607 C.ar    1  UNL1        0.0182
     29 C           4.7072   -1.4287   22.1839 C.ar    1  UNL1       -0.0002
     30 C           3.8064   -0.9904   23.3004 C.ar    1  UNL1        0.0144
     31 C           5.1478   -1.7545   19.6443 C.3     1  UNL1        0.2827
     32 O           6.1257   -0.6777   20.0106 O.3     1  UNL1       -0.3692
     33 H           5.7872   -0.1784   20.7702 H       1  UNL1        0.2112
     34 C           6.0486   -2.1928   18.5279 C.3     1  UNL1        0.4311
     35 F           6.9494   -2.6311   17.4115 F       1  UNL1       -0.1669
     36 F           5.7297   -0.9343   17.7765 F       1  UNL1       -0.1669
     37 F           6.3002   -2.9620   18.8879 F       1  UNL1       -0.1669
     38 C           4.1698   -2.8313   19.2780 C.3     1  UNL1        0.4311
     39 F           3.1919   -3.9081   18.9118 F       1  UNL1       -0.1669
     40 F           3.8909   -2.4702   18.5188 F       1  UNL1       -0.1669
     41 F           4.2784   -3.8180   20.4026 F       1  UNL1       -0.1669
@<TRIPOS>BOND
     1    19    20    1
     2    20    16    1
     3    16    17    2
     4    16    18    2
     5    16     5    1
     6     5     6   ar
     7     6     7   ar
     8     7     8   ar
     9     8     9   ar
    10     9    10   ar
    11     9    11    1
    12    11    12    1
    13    12    13   am
    14    13    14    2
    15    13    21    1
    16    21    22    1
    17    22    23    1
    18    23    24    3
    19    12    15    1
    20    15     1    1
    21     1     2    2
    22     1     3   am
    23     3    25    1
    24    25    26   ar
    25    26    27   ar
    26    27    28   ar
    27    28    31    1
    28    31    32    1
    29    31    34    1
    30    34    35    1
    31    34    36    1
    32    34    37    1
    33    31    38    1
    34    38    39    1
    35    38    40    1
    36    38    41    1
    37    28    29   ar
    38    29    30   ar
    39    10     5   ar
    40    30    25   ar
    41    15     8    1
    42     3     4    1
    43    32    33    1
@<TRIPOS>MOLECULE
*****
 41 43 0 0 0
SMALL
GASTEIGER

@<TRIPOS>ATOM
      1 C           3.4147    0.2056   26.2918 C.2     1  UNL1        0.2485
      2 O           4.2598    1.3225   26.8286 O.2     1  UNL1       -0.2726
      3 N           2.9658   -0.8991   27.2017 N.am    1  UNL1       -0.2823
      4 H           2.4111   -1.6322   26.8494 H       1  UNL1        0.1549
      5 C           4.1178   -2.3676   21.3400 C.ar    1  UNL1        0.1054
      6 C           4.7709   -2.7209   22.6432 C.ar    1  UNL1        0.0181
      7 C           4.4668   -1.9217   23.8756 C.ar    1  UNL1       -0.0011
      8 C           3.5094   -0.7691   23.8047 C.ar    1  UNL1        0.0022
      9 C           2.8562   -0.4159   22.5014 C.ar    1  UNL1       -0.0030
     10 C           3.1604   -1.2151   21.2691 C.ar    1  UNL1        0.0155
     11 C           1.9616    0.7651   22.7364 C.3     1  UNL1        0.1206
     12 N           2.0620    1.1416   24.1849 N.am    1  UNL1       -0.2654
     13 C           1.3336    2.2685   24.8555 C.2     1  UNL1        0.2275
     14 O           1.5351    2.5260   26.3194 O.2     1  UNL1       -0.2748
     15 C           3.0185    0.1934   24.8451 C.3     1  UNL1        0.1750
     16 S           4.4219   -3.1669   20.1076 S.O2    1  UNL1        0.0086
     17 O           5.0184   -4.2497   20.9571 O.2     1  UNL1       -0.1686
     18 O           3.8255   -2.0840   19.2581 O.2     1  UNL1       -0.1686
     19 C           4.4299   -5.4362   18.8427 C.3     1  UNL1        0.0276
     20 C           4.7261   -3.9661   18.8753 C.3     1  UNL1        0.1560
     21 C           0.4037    3.1379   24.0621 C.3     1  UNL1        0.1014
     22 C          -1.0791    2.9327   24.1571 C.3     1  UNL1        0.1150
     23 C          -1.7909    3.1931   25.4515 C.1     1  UNL1        0.0737
     24 N          -2.5027    3.4536   26.7459 N.1     1  UNL1       -0.1959
     25 C           3.3619   -0.8869   28.6484 C.ar    1  UNL1        0.0503
     26 C           2.3505   -0.5390   29.7001 C.ar    1  UNL1        0.0144
     27 C           2.7467   -0.5268   31.1467 C.ar    1  UNL1       -0.0002
     28 C           4.1542   -0.8625   31.5418 C.ar    1  UNL1        0.0182
     29 C           5.1656   -1.2105   30.4901 C.ar    1  UNL1       -0.0002
     30 C           4.7695   -1.2227   29.0434 C.ar    1  UNL1        0.0144
     31 C           4.5504   -0.8503   32.9885 C.3     1  UNL1        0.2827
     32 O           4.0378    0.5535   33.1170 O.3     1  UNL1       -0.3692
     33 H           3.6858    0.8486   32.2627 H       1  UNL1        0.2112
     34 C           4.9466   -0.8381   34.4352 C.3     1  UNL1        0.4311
     35 F           5.3428   -0.8259   35.8818 F       1  UNL1       -0.1669
     36 F           5.9991    0.1886   34.1383 F       1  UNL1       -0.1669
     37 F           4.3582   -1.4390   34.7133 F       1  UNL1       -0.1669
     38 C           5.0630   -2.2541   32.8599 C.3     1  UNL1        0.4311
     39 F           5.5757   -3.6579   32.7314 F       1  UNL1       -0.1669
     40 F           4.2761   -2.6475   32.7575 F       1  UNL1       -0.1669
     41 F           6.5510   -2.1099   32.9831 F       1  UNL1       -0.1669
@<TRIPOS>BOND
     1    19    20    1
     2    20    16    1
     3    16    17    2
     4    16    18    2
     5    16     5    1
     6     5     6   ar
     7     6     7   ar
     8     7     8   ar
     9     8     9   ar
    10     9    10   ar
    11     9    11    1
    12    11    12    1
    13    12    13   am
    14    13    14    2
    15    13    21    1
    16    21    22    1
    17    22    23    1
    18    23    24    3
    19    12    15    1
    20    15     1    1
    21     1     2    2
    22     1     3   am
    23     3    25    1
    24    25    26   ar
    25    26    27   ar
    26    27    28   ar
    27    28    31    1
    28    31    32    1
    29    31    34    1
    30    34    35    1
    31    34    36    1
    32    34    37    1
    33    31    38    1
    34    38    39    1
    35    38    40    1
    36    38    41    1
    37    28    29   ar
    38    29    30   ar
    39    10     5   ar
    40    30    25   ar
    41    15     8    1
    42     3     4    1
    43    32    33    1
@<TRIPOS>MOLECULE
*****
 41 43 0 0 0
SMALL
GASTEIGER

@<TRIPOS>ATOM
      1 C           4.5704   -0.8291   27.1145 C.2     1  UNL1        0.2485
      2 O           5.1141    0.5686   27.1361 O.2     1  UNL1       -0.2726
      3 N           3.4304   -1.2044   28.0143 N.am    1  UNL1       -0.2823
      4 H           3.0735   -2.1218   28.0002 H       1  UNL1        0.1549
      5 C           4.6016   -2.8433   21.8630 C.ar    1  UNL1        0.1054
      6 C           3.7753   -1.7083   22.3911 C.ar    1  UNL1        0.0181
      7 C           3.8936   -1.3003   23.8297 C.ar    1  UNL1       -0.0011
      8 C           4.8383   -2.0273   24.7402 C.ar    1  UNL1        0.0022
      9 C           5.6646   -3.1623   24.2121 C.ar    1  UNL1       -0.0030
     10 C           5.5462   -3.5703   22.7735 C.ar    1  UNL1        0.0155
     11 C           6.5037   -3.6882   25.3388 C.3     1  UNL1        0.1206
     12 N           6.1959   -2.8782   26.5632 N.am    1  UNL1       -0.2654
     13 C           6.8097   -3.0624   27.9195 C.2     1  UNL1        0.2275
     14 O           6.4009   -2.1715   29.0549 O.2     1  UNL1       -0.2748
     15 C           5.1667   -1.8517   26.1932 C.3     1  UNL1        0.1750
     16 S           4.4832   -3.2513   20.4244 S.O2    1  UNL1        0.0086
     17 O           5.3928   -4.4163   20.6800 O.2     1  UNL1       -0.1686
     18 O           3.5737   -2.0862   20.1688 O.2     1  UNL1       -0.1686
     19 C           4.5419   -5.0971   18.5970 C.3     1  UNL1        0.0276
     20 C           4.3649   -3.6593   18.9858 C.3     1  UNL1        0.1560
     21 C           7.8322   -4.1375   28.1402 C.3     1  UNL1        0.1014
     22 C           7.4002   -5.5036   28.5839 C.3     1  UNL1        0.1150
     23 C           7.1552   -5.7773   30.0382 C.1     1  UNL1        0.0737
     24 N           6.9101   -6.0510   31.4926 N.1     1  UNL1       -0.1959
     25 C           2.8342   -0.1818   28.9356 C.ar    1  UNL1        0.0503
     26 C           1.6896    0.6693   28.4714 C.ar    1  UNL1        0.0144
     27 C           1.0933    1.6918   29.3927 C.ar    1  UNL1       -0.0002
     28 C           1.6416    1.8634   30.7783 C.ar    1  UNL1        0.0182
     29 C           2.7862    1.0123   31.2426 C.ar    1  UNL1       -0.0002
     30 C           3.3825   -0.0103   30.3212 C.ar    1  UNL1        0.0144
     31 C           1.0454    2.8859   31.6996 C.3     1  UNL1        0.2827
     32 O           0.5877    1.7917   32.6179 O.3     1  UNL1       -0.3692
     33 H           0.8526    0.9324   32.2541 H       1  UNL1        0.2112
     34 C           0.4491    3.9085   32.6209 C.3     1  UNL1        0.4311
     35 F          -0.1471    4.9310   33.5423 F       1  UNL1       -0.1669
     36 F           1.7352    3.9647   33.3909 F       1  UNL1       -0.1669
     37 F          -0.3476    3.9492   32.2360 F       1  UNL1       -0.1669
     38 C           1.5030    3.9801   30.7813 C.3     1  UNL1        0.4311
     39 F           1.9607    5.0743   29.8631 F       1  UNL1       -0.1669
     40 F           2.3645    3.9369   30.9827 F       1  UNL1       -0.1669
     41 F           0.2422    4.4469   30.1162 F       1  UNL1       -0.1669
@<TRIPOS>BOND
     1    19    20    1
     2    20    16    1
     3    16    17    2
     4    16    18    2
     5    16     5    1
     6     5     6   ar
     7     6     7   ar
     8     7     8   ar
     9     8     9   ar
    10     9    10   ar
    11     9    11    1
    12    11    12    1
    13    12    13   am
    14    13    14    2
    15    13    21    1
    16    21    22    1
    17    22    23    1
    18    23    24    3
    19    12    15    1
    20    15     1    1
    21     1     2    2
    22     1     3   am
    23     3    25    1
    24    25    26   ar
    25    26    27   ar
    26    27    28   ar
    27    28    31    1
    28    31    32    1
    29    31    34    1
    30    34    35    1
    31    34    36    1
    32    34    37    1
    33    31    38    1
    34    38    39    1
    35    38    40    1
    36    38    41    1
    37    28    29   ar
    38    29    30   ar
    39    10     5   ar
    40    30    25   ar
    41    15     8    1
    42     3     4    1
    43    32    33    1
@<TRIPOS>MOLECULE
*****
 41 43 0 0 0
SMALL
GASTEIGER

@<TRIPOS>ATOM
      1 C           3.5259    0.1099   26.4232 C.2     1  UNL1        0.2485
      2 O           4.7940    0.8025   26.0203 O.2     1  UNL1       -0.2726
      3 N           2.8876   -0.8836   25.4983 N.am    1  UNL1       -0.2823
      4 H           2.0553   -1.3382   25.7627 H       1  UNL1        0.1549
      5 C           4.0334   -0.4396   31.9979 C.ar    1  UNL1        0.1054
      6 C           4.9839   -0.9381   30.9500 C.ar    1  UNL1        0.0181
      7 C           4.6905   -0.7022   29.4980 C.ar    1  UNL1       -0.0011
      8 C           3.4466    0.0322   29.0939 C.ar    1  UNL1        0.0022
      9 C           2.4961    0.5306   30.1417 C.ar    1  UNL1       -0.0030
     10 C           2.7895    0.2947   31.5937 C.ar    1  UNL1        0.0155
     11 C           1.3581    1.2174   29.4464 C.3     1  UNL1        0.1206
     12 N           1.6055    1.1434   27.9688 N.am    1  UNL1       -0.2654
     13 C           0.7179    1.7036   26.8971 C.2     1  UNL1        0.2275
     14 O           1.0973    1.5520   25.4538 O.2     1  UNL1       -0.2748
     15 C           2.8962    0.4109   27.7509 C.3     1  UNL1        0.1750
     16 S           4.3268   -0.6755   33.4499 S.O2    1  UNL1        0.0086
     17 O           3.8510   -2.0918   33.3159 O.2     1  UNL1       -0.1686
     18 O           4.8025    0.7407   33.5838 O.2     1  UNL1       -0.1686
     19 C           5.7993   -0.2452   35.5466 C.3     1  UNL1        0.0276
     20 C           4.6201   -0.9114   34.9019 C.3     1  UNL1        0.1560
     21 C          -0.5491    2.4154   27.2687 C.3     1  UNL1        0.1014
     22 C          -1.3403    3.1363   26.2179 C.3     1  UNL1        0.1150
     23 C          -2.7399    3.5890   26.5116 C.1     1  UNL1        0.0737
     24 N          -4.1395    4.0416   26.8053 N.1     1  UNL1       -0.1959
     25 C           3.5174   -1.1846   24.1706 C.ar    1  UNL1        0.0503
     26 C           4.6962   -2.1088   24.0920 C.ar    1  UNL1        0.0144
     27 C           5.3260   -2.4097   22.7643 C.ar    1  UNL1       -0.0002
     28 C           4.7770   -1.7866   21.5152 C.ar    1  UNL1        0.0182
     29 C           3.5981   -0.8624   21.5939 C.ar    1  UNL1       -0.0002
     30 C           2.9684   -0.5614   22.9216 C.ar    1  UNL1        0.0144
     31 C           5.4067   -2.0876   20.1875 C.3     1  UNL1        0.2827
     32 O           6.6367   -1.3346   20.6002 O.3     1  UNL1       -0.3692
     33 H           6.5178   -0.9888   21.4987 H       1  UNL1        0.2112
     34 C           6.0365   -2.3885   18.8598 C.3     1  UNL1        0.4311
     35 F           6.6663   -2.6895   17.5321 F       1  UNL1       -0.1669
     36 F           5.9047   -0.9460   18.4703 F       1  UNL1       -0.1669
     37 F           6.1591   -3.2557   18.9925 F       1  UNL1       -0.1669
     38 C           4.1768   -2.8405   19.7748 C.3     1  UNL1        0.4311
     39 F           2.9469   -3.5934   19.3621 F       1  UNL1       -0.1669
     40 F           3.8807   -2.2490   19.1857 F       1  UNL1       -0.1669
     41 F           4.2229   -4.0916   20.6009 F       1  UNL1       -0.1669
@<TRIPOS>BOND
     1    19    20    1
     2    20    16    1
     3    16    17    2
     4    16    18    2
     5    16     5    1
     6     5     6   ar
     7     6     7   ar
     8     7     8   ar
     9     8     9   ar
    10     9    10   ar
    11     9    11    1
    12    11    12    1
    13    12    13   am
    14    13    14    2
    15    13    21    1
    16    21    22    1
    17    22    23    1
    18    23    24    3
    19    12    15    1
    20    15     1    1
    21     1     2    2
    22     1     3   am
    23     3    25    1
    24    25    26   ar
    25    26    27   ar
    26    27    28   ar
    27    28    31    1
    28    31    32    1
    29    31    34    1
    30    34    35    1
    31    34    36    1
    32    34    37    1
    33    31    38    1
    34    38    39    1
    35    38    40    1
    36    38    41    1
    37    28    29   ar
    38    29    30   ar
    39    10     5   ar
    40    30    25   ar
    41    15     8    1
    42     3     4    1
    43    32    33    1
@<TRIPOS>MOLECULE
*****
 41 43 0 0 0
SMALL
GASTEIGER

@<TRIPOS>ATOM
      1 C           1.7019    1.3808   24.8047 C.2     1  UNL1        0.2485
      2 O           2.8784    2.2067   25.2331 O.2     1  UNL1       -0.2726
      3 N           0.6958    0.9255   25.8198 N.am    1  UNL1       -0.2823
      4 H          -0.0765    0.3834   25.5387 H       1  UNL1        0.1549
      5 C           3.5344   -1.9359   20.6481 C.ar    1  UNL1        0.1054
      6 C           4.0357   -1.8969   22.0613 C.ar    1  UNL1        0.0181
      7 C           3.4280   -0.9429   23.0465 C.ar    1  UNL1       -0.0011
      8 C           2.3190   -0.0280   22.6186 C.ar    1  UNL1        0.0022
      9 C           1.8178   -0.0671   21.2054 C.ar    1  UNL1       -0.0030
     10 C           2.4254   -1.0211   20.2202 C.ar    1  UNL1        0.0155
     11 C           0.7202    0.9470   21.0746 C.3     1  UNL1        0.1206
     12 N           0.5432    1.6128   22.4071 N.am    1  UNL1       -0.2654
     13 C          -0.4479    2.6918   22.7288 C.2     1  UNL1        0.2275
     14 O          -0.5093    3.2651   24.1136 O.2     1  UNL1       -0.2748
     15 C           1.5314    1.0102   23.3613 C.3     1  UNL1        0.1750
     16 S           4.1420   -2.8899   19.6629 S.O2    1  UNL1        0.0086
     17 O           4.4327   -3.8535   20.7751 O.2     1  UNL1       -0.1686
     18 O           3.8514   -1.9263   18.5506 O.2     1  UNL1       -0.1686
     19 C           4.5180   -5.3189   18.8210 C.3     1  UNL1        0.0276
     20 C           4.7497   -3.8439   18.6776 C.3     1  UNL1        0.1560
     21 C          -1.3776    3.1975   21.6658 C.3     1  UNL1        0.1014
     22 C          -2.4818    4.1471   22.0249 C.3     1  UNL1        0.1150
     23 C          -3.8397    3.6185   22.3806 C.1     1  UNL1        0.0737
     24 N          -5.1976    3.0898   22.7364 N.1     1  UNL1       -0.1959
     25 C           0.8663    1.2961   27.2633 C.ar    1  UNL1        0.0503
     26 C           1.5965    0.3731   28.1934 C.ar    1  UNL1        0.0144
     27 C           1.7670    0.7437   29.6368 C.ar    1  UNL1       -0.0002
     28 C           1.2074    2.0372   30.1503 C.ar    1  UNL1        0.0182
     29 C           0.4772    2.9601   29.2202 C.ar    1  UNL1       -0.0002
     30 C           0.3067    2.5896   27.7768 C.ar    1  UNL1        0.0144
     31 C           1.3779    2.4078   31.5937 C.3     1  UNL1        0.2827
     32 O           0.0604    1.7663   31.9141 O.3     1  UNL1       -0.3692
     33 H          -0.3275    1.4020   31.1031 H       1  UNL1        0.2112
     34 C           1.5484    2.7784   33.0372 C.3     1  UNL1        0.4311
     35 F           1.7190    3.1489   34.4807 F       1  UNL1       -0.1669
     36 F           1.9683    1.3724   33.3485 F       1  UNL1       -0.1669
     37 F           1.3146    3.6291   32.9586 F       1  UNL1       -0.1669
     38 C           2.6954    3.0493   31.2734 C.3     1  UNL1        0.4311
     39 F           4.0129    3.6908   30.9531 F       1  UNL1       -0.1669
     40 F           2.3702    3.7968   30.9269 F       1  UNL1       -0.1669
     41 F           3.7097    2.0436   31.7313 F       1  UNL1       -0.1669
@<TRIPOS>BOND
     1    19    20    1
     2    20    16    1
     3    16    17    2
     4    16    18    2
     5    16     5    1
     6     5     6   ar
     7     6     7   ar
     8     7     8   ar
     9     8     9   ar
    10     9    10   ar
    11     9    11    1
    12    11    12    1
    13    12    13   am
    14    13    14    2
    15    13    21    1
    16    21    22    1
    17    22    23    1
    18    23    24    3
    19    12    15    1
    20    15     1    1
    21     1     2    2
    22     1     3   am
    23     3    25    1
    24    25    26   ar
    25    26    27   ar
    26    27    28   ar
    27    28    31    1
    28    31    32    1
    29    31    34    1
    30    34    35    1
    31    34    36    1
    32    34    37    1
    33    31    38    1
    34    38    39    1
    35    38    40    1
    36    38    41    1
    37    28    29   ar
    38    29    30   ar
    39    10     5   ar
    40    30    25   ar
    41    15     8    1
    42     3     4    1
    43    32    33    1
@<TRIPOS>MOLECULE
*****
 41 43 0 0 0
SMALL
GASTEIGER

@<TRIPOS>ATOM
      1 C           2.3076    0.5387   24.4384 C.2     1  UNL1        0.2485
      2 O           2.9139    1.8783   24.7345 O.2     1  UNL1       -0.2726
      3 N           0.8414    0.3135   24.6606 N.am    1  UNL1       -0.2823
      4 H           0.4434   -0.5658   24.4663 H       1  UNL1        0.1549
      5 C           6.3199   -3.1799   25.7462 C.ar    1  UNL1        0.1054
      6 C           5.6990   -2.1621   26.6565 C.ar    1  UNL1        0.0181
      7 C           4.6334   -1.2427   26.1377 C.ar    1  UNL1       -0.0011
      8 C           4.1887   -1.3411   24.7085 C.ar    1  UNL1        0.0022
      9 C           4.8095   -2.3588   23.7982 C.ar    1  UNL1       -0.0030
     10 C           5.8751   -3.2782   24.3171 C.ar    1  UNL1        0.0155
     11 C           4.1720   -2.2225   22.4472 C.3     1  UNL1        0.1206
     12 N           3.1572   -1.1205   22.5226 N.am    1  UNL1       -0.2654
     13 C           2.2852   -0.6465   21.3979 C.2     1  UNL1        0.2275
     14 O           1.3115    0.4719   21.6240 O.2     1  UNL1       -0.2748
     15 C           3.1675   -0.5758   23.9202 C.3     1  UNL1        0.1750
     16 S           7.3855   -4.0993   26.2651 S.O2    1  UNL1        0.0086
     17 O           7.6842   -3.1296   27.3698 O.2     1  UNL1       -0.1686
     18 O           7.0867   -5.0690   25.1603 O.2     1  UNL1       -0.1686
     19 C           8.0778   -6.1898   27.6436 C.3     1  UNL1        0.0276
     20 C           8.4511   -5.0187   26.7839 C.3     1  UNL1        0.1560
     21 C           2.3868   -1.2909   20.0472 C.3     1  UNL1        0.1014
     22 C           3.3149   -0.7244   19.0139 C.3     1  UNL1        0.1150
     23 C           4.3440   -1.6036   18.3675 C.1     1  UNL1        0.0737
     24 N           5.3732   -2.4828   17.7211 N.1     1  UNL1       -0.1959
     25 C          -0.0185    1.4279   25.1788 C.ar    1  UNL1        0.0503
     26 C          -0.5037    2.4971   24.2454 C.ar    1  UNL1        0.0144
     27 C          -1.3636    3.6116   24.7636 C.ar    1  UNL1       -0.0002
     28 C          -1.7384    3.6569   26.2153 C.ar    1  UNL1        0.0182
     29 C          -1.2532    2.5877   27.1488 C.ar    1  UNL1       -0.0002
     30 C          -0.3933    1.4732   26.6305 C.ar    1  UNL1        0.0144
     31 C          -2.5983    4.7713   26.7335 C.3     1  UNL1        0.2827
     32 O          -1.3849    5.4404   27.3080 O.3     1  UNL1       -0.3692
     33 H          -0.5991    4.9052   27.1159 H       1  UNL1        0.2112
     34 C          -3.4582    5.8858   27.2517 C.3     1  UNL1        0.4311
     35 F          -4.3181    7.0002   27.7700 F       1  UNL1       -0.1669
     36 F          -2.7161    6.8607   26.3865 F       1  UNL1       -0.1669
     37 F          -3.9550    5.3945   27.7962 F       1  UNL1       -0.1669
     38 C          -3.8116    4.1022   26.1590 C.3     1  UNL1        0.4311
     39 F          -5.0250    3.4332   25.5845 F       1  UNL1       -0.1669
     40 F          -3.8504    3.4331   26.7381 F       1  UNL1       -0.1669
     41 F          -4.1858    4.9683   24.9929 F       1  UNL1       -0.1669
@<TRIPOS>BOND
     1    19    20    1
     2    20    16    1
     3    16    17    2
     4    16    18    2
     5    16     5    1
     6     5     6   ar
     7     6     7   ar
     8     7     8   ar
     9     8     9   ar
    10     9    10   ar
    11     9    11    1
    12    11    12    1
    13    12    13   am
    14    13    14    2
    15    13    21    1
    16    21    22    1
    17    22    23    1
    18    23    24    3
    19    12    15    1
    20    15     1    1
    21     1     2    2
    22     1     3   am
    23     3    25    1
    24    25    26   ar
    25    26    27   ar
    26    27    28   ar
    27    28    31    1
    28    31    32    1
    29    31    34    1
    30    34    35    1
    31    34    36    1
    32    34    37    1
    33    31    38    1
    34    38    39    1
    35    38    40    1
    36    38    41    1
    37    28    29   ar
    38    29    30   ar
    39    10     5   ar
    40    30    25   ar
    41    15     8    1
    42     3     4    1
    43    32    33    1
