@<TRIPOS>MOLECULE
*****
 39 42 0 0 0
SMALL
GASTEIGER

@<TRIPOS>ATOM
      1 C          -3.2682  -18.1019   22.3127 C.3     1  UNL1        0.1556
      2 O          -2.0476  -17.3152   22.6890 O.3     1  UNL1       -0.3805
      3 H          -1.3994  -17.3599   21.9688 H       1  UNL1        0.2105
      4 C          -4.4255  -18.1909   23.2628 C.3     1  UNL1        0.1729
      5 O          -5.6501  -17.3556   23.0334 O.3     1  UNL1       -0.3492
      6 C          -5.2016  -14.7967   23.0626 C.3     1  UNL1        0.0370
      7 C          -5.7840  -16.0208   23.7046 C.3     1  UNL1        0.1376
      8 C          -6.5002  -15.9103   25.0179 C.ar    1  UNL1        0.0045
      9 C          -5.7198  -15.8942   26.2988 C.ar    1  UNL1       -0.0019
     10 C          -6.4361  -15.7836   27.6121 C.ar    1  UNL1       -0.0002
     11 C          -7.9328  -15.6891   27.6445 C.ar    1  UNL1       -0.0000
     12 C          -8.7132  -15.7052   26.3636 C.ar    1  UNL1       -0.0002
     13 C          -7.9969  -15.8158   25.0503 C.ar    1  UNL1       -0.0017
     14 C          -8.7773  -15.8319   23.7694 C.ar    1  UNL1       -0.0002
     15 C          -8.0581  -15.8378   22.4530 C.ar    1  UNL1        0.0000
     16 C          -8.8385  -15.8539   21.1721 C.ar    1  UNL1        0.0011
     17 C         -10.3381  -15.8641   21.2075 C.ar    1  UNL1        0.0140
     18 C         -11.0572  -15.8582   22.5239 C.ar    1  UNL1        0.0011
     19 C         -10.2768  -15.8421   23.8048 C.ar    1  UNL1        0.0000
     20 C         -11.1185  -15.8802   19.9266 C.2     1  UNL1        0.0729
     21 O         -10.7467  -14.9501   18.8102 O.co2   1  UNL1       -0.5446
     22 O         -12.2707  -16.8265   19.7622 O.co2   1  UNL1       -0.5446
     23 C          -3.3313  -18.7996   20.9863 C.3     1  UNL1        0.1007
     24 N          -4.1732  -20.0307   20.8258 N.3     1  UNL1       -0.2972
     25 H          -4.3189  -20.4118   21.7606 H       1  UNL1        0.1233
     26 C          -5.5243  -19.9364   20.1812 C.3     1  UNL1        0.0461
     27 C          -5.8320  -21.3371   20.6212 C.3     1  UNL1        0.0161
     28 C          -5.2167  -18.5358   19.7412 C.3     1  UNL1        0.0161
     29 C          -6.8755  -19.8422   19.5366 C.3     1  UNL1        0.0408
     30 C          -8.1028  -19.6922   20.3859 C.ar    1  UNL1       -0.0209
     31 C          -9.4588  -19.6607   19.7454 C.ar    1  UNL1       -0.0042
     32 C         -10.6861  -19.5107   20.5947 C.ar    1  UNL1       -0.0003
     33 C         -10.5574  -19.3922   22.0845 C.ar    1  UNL1       -0.0000
     34 C         -11.7847  -19.2423   22.9337 C.ar    1  UNL1       -0.0000
     35 C         -11.6560  -19.1238   24.4234 C.ar    1  UNL1       -0.0000
     36 C         -10.3000  -19.1553   25.0639 C.ar    1  UNL1       -0.0000
     37 C          -9.0727  -19.3053   24.2147 C.ar    1  UNL1       -0.0000
     38 C          -9.2014  -19.4237   22.7250 C.ar    1  UNL1       -0.0003
     39 C          -7.9741  -19.5737   21.8757 C.ar    1  UNL1       -0.0042
@<TRIPOS>UNITY_ATOM_ATTR
21 1
charge -1
@<TRIPOS>BOND
     1     7     6    1
     2     7     5    1
     3     5     4    1
     4     4     1    1
     5     1     2    1
     6     1    23    1
     7    23    24    1
     8    24    26    1
     9    26    27    1
    10    26    28    1
    11    26    29    1
    12    29    30    1
    13    30    31   ar
    14    31    32   ar
    15    32    33   ar
    16    33    34   ar
    17    34    35   ar
    18    35    36   ar
    19    36    37   ar
    20    37    38   ar
    21    38    39   ar
    22     7     8    1
    23     8     9   ar
    24     9    10   ar
    25    10    11   ar
    26    11    12   ar
    27    12    13   ar
    28    13    14    1
    29    14    15   ar
    30    15    16   ar
    31    16    17   ar
    32    17    20    1
    33    20    21   ar
    34    20    22   ar
    35    17    18   ar
    36    18    19   ar
    37    39    30   ar
    38    13     8   ar
    39    19    14   ar
    40    38    33   ar
    41     2     3    1
    42    24    25    1
@<TRIPOS>MOLECULE
*****
 39 42 0 0 0
SMALL
GASTEIGER

@<TRIPOS>ATOM
      1 C          -9.5003  -17.1835   24.7165 C.3     1  UNL1        0.1556
      2 O         -10.2342  -16.1880   23.8677 O.3     1  UNL1       -0.3805
      3 H          -9.7986  -15.3238   23.9332 H       1  UNL1        0.2105
      4 C          -9.9768  -18.6040   24.7880 C.3     1  UNL1        0.1729
      5 O         -11.2759  -18.9924   24.1466 O.3     1  UNL1       -0.3492
      6 C         -11.1112  -20.6138   22.1232 C.3     1  UNL1        0.0370
      7 C         -11.3393  -19.2348   22.6676 C.3     1  UNL1        0.1376
      8 C         -11.6307  -18.0983   21.7332 C.ar    1  UNL1        0.0045
      9 C         -12.9029  -17.3167   21.8766 C.ar    1  UNL1       -0.0019
     10 C         -13.1944  -16.1802   20.9421 C.ar    1  UNL1       -0.0002
     11 C         -12.2135  -15.8251   19.8642 C.ar    1  UNL1       -0.0000
     12 C         -10.9412  -16.6066   19.7208 C.ar    1  UNL1       -0.0002
     13 C         -10.6498  -17.7432   20.6553 C.ar    1  UNL1       -0.0017
     14 C          -9.3776  -18.5247   20.5119 C.ar    1  UNL1       -0.0002
     15 C          -8.2662  -18.3366   21.5017 C.ar    1  UNL1        0.0000
     16 C          -6.9939  -19.1181   21.3583 C.ar    1  UNL1        0.0011
     17 C          -6.8330  -20.0878   20.2252 C.ar    1  UNL1        0.0140
     18 C          -7.9444  -20.2759   19.2355 C.ar    1  UNL1        0.0011
     19 C          -9.2166  -19.4944   19.3789 C.ar    1  UNL1        0.0000
     20 C          -5.5608  -20.8693   20.0818 C.2     1  UNL1        0.0729
     21 O          -5.4945  -22.2890   20.5614 O.co2   1  UNL1       -0.5446
     22 O          -4.3547  -20.2311   19.4587 O.co2   1  UNL1       -0.5446
     23 C          -8.2898  -16.7585   25.4937 C.3     1  UNL1        0.1007
     24 N          -7.7490  -15.3679   25.3386 N.3     1  UNL1       -0.2972
     25 H          -7.7612  -14.9422   26.2654 H       1  UNL1        0.1233
     26 C          -6.3719  -15.1564   24.7830 C.3     1  UNL1        0.0461
     27 C          -6.9389  -15.1100   23.3951 C.3     1  UNL1        0.0161
     28 C          -5.8048  -15.2028   26.1709 C.3     1  UNL1        0.0161
     29 C          -4.9947  -14.9449   24.2274 C.3     1  UNL1        0.0408
     30 C          -4.2940  -16.0629   23.5137 C.ar    1  UNL1       -0.0209
     31 C          -4.6775  -17.4863   23.7906 C.ar    1  UNL1       -0.0042
     32 C          -3.9769  -18.6043   23.0770 C.ar    1  UNL1       -0.0003
     33 C          -2.8928  -18.2988   22.0863 C.ar    1  UNL1       -0.0000
     34 C          -2.1922  -19.4167   21.3727 C.ar    1  UNL1       -0.0000
     35 C          -1.1081  -19.1112   20.3821 C.ar    1  UNL1       -0.0000
     36 C          -0.7246  -17.6877   20.1051 C.ar    1  UNL1       -0.0000
     37 C          -1.4252  -16.5698   20.8187 C.ar    1  UNL1       -0.0000
     38 C          -2.5093  -16.8753   21.8093 C.ar    1  UNL1       -0.0003
     39 C          -3.2100  -15.7574   22.5230 C.ar    1  UNL1       -0.0042
@<TRIPOS>UNITY_ATOM_ATTR
21 1
charge -1
@<TRIPOS>BOND
     1     7     6    1
     2     7     5    1
     3     5     4    1
     4     4     1    1
     5     1     2    1
     6     1    23    1
     7    23    24    1
     8    24    26    1
     9    26    27    1
    10    26    28    1
    11    26    29    1
    12    29    30    1
    13    30    31   ar
    14    31    32   ar
    15    32    33   ar
    16    33    34   ar
    17    34    35   ar
    18    35    36   ar
    19    36    37   ar
    20    37    38   ar
    21    38    39   ar
    22     7     8    1
    23     8     9   ar
    24     9    10   ar
    25    10    11   ar
    26    11    12   ar
    27    12    13   ar
    28    13    14    1
    29    14    15   ar
    30    15    16   ar
    31    16    17   ar
    32    17    20    1
    33    20    21   ar
    34    20    22   ar
    35    17    18   ar
    36    18    19   ar
    37    39    30   ar
    38    13     8   ar
    39    19    14   ar
    40    38    33   ar
    41     2     3    1
    42    24    25    1
@<TRIPOS>MOLECULE
*****
 39 42 0 0 0
SMALL
GASTEIGER

@<TRIPOS>ATOM
      1 C          -4.6876  -16.6266   23.1702 C.3     1  UNL1        0.1556
      2 O          -3.2742  -16.8097   22.7024 O.3     1  UNL1       -0.3805
      3 H          -2.7993  -15.9667   22.7704 H       1  UNL1        0.2105
      4 C          -5.6361  -17.7886   23.1642 C.3     1  UNL1        0.1729
      5 O          -6.8941  -17.7258   22.3496 O.3     1  UNL1       -0.3492
      6 C          -8.1014  -19.7768   23.3916 C.3     1  UNL1        0.0370
      7 C          -7.7472  -18.9494   22.1916 C.3     1  UNL1        0.1376
      8 C          -8.2461  -19.3457   20.8337 C.ar    1  UNL1        0.0045
      9 C          -9.7178  -19.5075   20.5931 C.ar    1  UNL1       -0.0019
     10 C         -10.2166  -19.9038   19.2351 C.ar    1  UNL1       -0.0002
     11 C          -9.2437  -20.1383   18.1177 C.ar    1  UNL1       -0.0000
     12 C          -7.7720  -19.9765   18.3583 C.ar    1  UNL1       -0.0002
     13 C          -7.2732  -19.5802   19.7163 C.ar    1  UNL1       -0.0017
     14 C          -5.8015  -19.4184   19.9569 C.ar    1  UNL1       -0.0002
     15 C          -5.0441  -18.3245   19.2642 C.ar    1  UNL1        0.0000
     16 C          -3.5724  -18.1627   19.5049 C.ar    1  UNL1        0.0011
     17 C          -2.8581  -19.0948   20.4381 C.ar    1  UNL1        0.0140
     18 C          -3.6155  -20.1887   21.1308 C.ar    1  UNL1        0.0011
     19 C          -5.0872  -20.3505   20.8902 C.ar    1  UNL1        0.0000
     20 C          -1.3863  -18.9330   20.6788 C.2     1  UNL1        0.0729
     21 O          -0.8725  -18.7267   22.0728 O.co2   1  UNL1       -0.5446
     22 O          -0.4285  -18.9775   19.5252 O.co2   1  UNL1       -0.5446
     23 C          -5.1525  -15.2814   23.6439 C.3     1  UNL1        0.1007
     24 N          -5.4439  -15.0580   25.0983 N.3     1  UNL1       -0.2972
     25 H          -5.2514  -14.0748   25.2896 H       1  UNL1        0.1233
     26 C          -6.8123  -15.3450   25.6417 C.3     1  UNL1        0.0461
     27 C          -6.1979  -15.9549   26.8667 C.3     1  UNL1        0.0161
     28 C          -7.4267  -14.7352   24.4167 C.3     1  UNL1        0.0161
     29 C          -8.1806  -15.6320   26.1851 C.3     1  UNL1        0.0408
     30 C          -9.1729  -16.3919   25.3555 C.ar    1  UNL1       -0.0209
     31 C          -9.6301  -17.7521   25.7923 C.ar    1  UNL1       -0.0042
     32 C         -10.6223  -18.5120   24.9628 C.ar    1  UNL1       -0.0003
     33 C         -11.1573  -17.9117   23.6965 C.ar    1  UNL1       -0.0000
     34 C         -12.1495  -18.6715   22.8670 C.ar    1  UNL1       -0.0000
     35 C         -12.6844  -18.0712   21.6007 C.ar    1  UNL1       -0.0000
     36 C         -12.2272  -16.7110   21.1640 C.ar    1  UNL1       -0.0000
     37 C         -11.2350  -15.9511   21.9935 C.ar    1  UNL1       -0.0000
     38 C         -10.7000  -16.5514   23.2597 C.ar    1  UNL1       -0.0003
     39 C          -9.7078  -15.7916   24.0893 C.ar    1  UNL1       -0.0042
@<TRIPOS>UNITY_ATOM_ATTR
21 1
charge -1
@<TRIPOS>BOND
     1     7     6    1
     2     7     5    1
     3     5     4    1
     4     4     1    1
     5     1     2    1
     6     1    23    1
     7    23    24    1
     8    24    26    1
     9    26    27    1
    10    26    28    1
    11    26    29    1
    12    29    30    1
    13    30    31   ar
    14    31    32   ar
    15    32    33   ar
    16    33    34   ar
    17    34    35   ar
    18    35    36   ar
    19    36    37   ar
    20    37    38   ar
    21    38    39   ar
    22     7     8    1
    23     8     9   ar
    24     9    10   ar
    25    10    11   ar
    26    11    12   ar
    27    12    13   ar
    28    13    14    1
    29    14    15   ar
    30    15    16   ar
    31    16    17   ar
    32    17    20    1
    33    20    21   ar
    34    20    22   ar
    35    17    18   ar
    36    18    19   ar
    37    39    30   ar
    38    13     8   ar
    39    19    14   ar
    40    38    33   ar
    41     2     3    1
    42    24    25    1
@<TRIPOS>MOLECULE
*****
 39 42 0 0 0
SMALL
GASTEIGER

@<TRIPOS>ATOM
      1 C           6.5236   -3.0699   23.7552 C.3     1  UNL1        0.1556
      2 O           6.0809   -4.0691   24.7827 O.3     1  UNL1       -0.3805
      3 H           5.9856   -4.9401   24.3666 H       1  UNL1        0.2105
      4 C           6.7447   -1.6390   24.1471 C.3     1  UNL1        0.1729
      5 O           5.5707   -0.7314   24.3663 O.3     1  UNL1       -0.3492
      6 C           3.4731   -1.7627   23.2320 C.3     1  UNL1        0.0370
      7 C           4.4794   -0.6555   23.3399 C.3     1  UNL1        0.1376
      8 C           4.3944    0.5274   22.4216 C.ar    1  UNL1        0.0045
      9 C           5.2478    0.5830   21.1892 C.ar    1  UNL1       -0.0019
     10 C           5.1628    1.7659   20.2709 C.ar    1  UNL1       -0.0002
     11 C           4.2244    2.8933   20.5848 C.ar    1  UNL1       -0.0000
     12 C           3.3710    2.8377   21.8172 C.ar    1  UNL1       -0.0002
     13 C           3.4561    1.6547   22.7356 C.ar    1  UNL1       -0.0017
     14 C           2.6027    1.5990   23.9679 C.ar    1  UNL1       -0.0002
     15 C           1.1577    1.2105   23.8626 C.ar    1  UNL1        0.0000
     16 C           0.3043    1.1549   25.0950 C.ar    1  UNL1        0.0011
     17 C           0.8960    1.4878   26.4326 C.ar    1  UNL1        0.0140
     18 C           2.3409    1.8763   26.5378 C.ar    1  UNL1        0.0011
     19 C           3.1943    1.9319   25.3055 C.ar    1  UNL1        0.0000
     20 C           0.0426    1.4322   27.6650 C.2     1  UNL1        0.0729
     21 O          -0.0241    2.6149   28.5850 O.co2   1  UNL1       -0.5446
     22 O          -0.7441    0.1937   27.9772 O.co2   1  UNL1       -0.5446
     23 C           6.7452   -3.5016   22.3359 C.3     1  UNL1        0.1007
     24 N           5.6837   -4.2770   21.6134 N.3     1  UNL1       -0.2972
     25 H           4.8641   -4.2903   22.2205 H       1  UNL1        0.1233
     26 C           5.2143   -3.8261   20.2620 C.3     1  UNL1        0.0461
     27 C           4.0918   -4.8194   20.3204 C.3     1  UNL1        0.0161
     28 C           6.3367   -2.8328   20.2036 C.3     1  UNL1        0.0161
     29 C           4.7449   -3.3751   18.9106 C.3     1  UNL1        0.0408
     30 C           3.9423   -2.1148   18.7775 C.ar    1  UNL1       -0.0209
     31 C           4.2347   -1.1537   17.6635 C.ar    1  UNL1       -0.0042
     32 C           3.4322    0.1066   17.5304 C.ar    1  UNL1       -0.0003
     33 C           2.3374    0.4058   18.5111 C.ar    1  UNL1       -0.0000
     34 C           1.5349    1.6660   18.3780 C.ar    1  UNL1       -0.0000
     35 C           0.4402    1.9652   19.3587 C.ar    1  UNL1       -0.0000
     36 C           0.1478    1.0041   20.4726 C.ar    1  UNL1       -0.0000
     37 C           0.9503   -0.2562   20.6058 C.ar    1  UNL1       -0.0000
     38 C           2.0450   -0.5553   19.6251 C.ar    1  UNL1       -0.0003
     39 C           2.8476   -1.8156   19.7582 C.ar    1  UNL1       -0.0042
@<TRIPOS>UNITY_ATOM_ATTR
21 1
charge -1
@<TRIPOS>BOND
     1     7     6    1
     2     7     5    1
     3     5     4    1
     4     4     1    1
     5     1     2    1
     6     1    23    1
     7    23    24    1
     8    24    26    1
     9    26    27    1
    10    26    28    1
    11    26    29    1
    12    29    30    1
    13    30    31   ar
    14    31    32   ar
    15    32    33   ar
    16    33    34   ar
    17    34    35   ar
    18    35    36   ar
    19    36    37   ar
    20    37    38   ar
    21    38    39   ar
    22     7     8    1
    23     8     9   ar
    24     9    10   ar
    25    10    11   ar
    26    11    12   ar
    27    12    13   ar
    28    13    14    1
    29    14    15   ar
    30    15    16   ar
    31    16    17   ar
    32    17    20    1
    33    20    21   ar
    34    20    22   ar
    35    17    18   ar
    36    18    19   ar
    37    39    30   ar
    38    13     8   ar
    39    19    14   ar
    40    38    33   ar
    41     2     3    1
    42    24    25    1
@<TRIPOS>MOLECULE
*****
 39 42 0 0 0
SMALL
GASTEIGER

@<TRIPOS>ATOM
      1 C          -8.8327  -15.2465   21.7316 C.3     1  UNL1        0.1556
      2 O          -7.9564  -14.4069   20.8501 O.3     1  UNL1       -0.3805
      3 H          -7.1071  -14.2514   21.2922 H       1  UNL1        0.2105
      4 C         -10.2088  -15.6301   21.2744 C.3     1  UNL1        0.1729
      5 O         -10.3814  -16.6565   20.1942 O.3     1  UNL1       -0.3492
      6 C         -11.0125  -19.0689   19.4648 C.3     1  UNL1        0.0370
      7 C         -10.7756  -18.0596   20.5489 C.3     1  UNL1        0.1376
      8 C         -10.9331  -18.4535   21.9877 C.ar    1  UNL1        0.0045
      9 C         -12.2263  -18.1896   22.7003 C.ar    1  UNL1       -0.0019
     10 C         -12.3838  -18.5834   24.1391 C.ar    1  UNL1       -0.0002
     11 C         -11.2479  -19.2412   24.8652 C.ar    1  UNL1       -0.0000
     12 C          -9.9547  -19.5051   24.1526 C.ar    1  UNL1       -0.0002
     13 C          -9.7973  -19.1112   22.7138 C.ar    1  UNL1       -0.0017
     14 C          -8.5040  -19.3751   22.0011 C.ar    1  UNL1       -0.0002
     15 C          -7.5329  -20.3752   22.5551 C.ar    1  UNL1        0.0000
     16 C          -6.2397  -20.6391   21.8424 C.ar    1  UNL1        0.0011
     17 C          -5.9175  -19.9029   20.5758 C.ar    1  UNL1        0.0140
     18 C          -6.8886  -18.9028   20.0219 C.ar    1  UNL1        0.0011
     19 C          -8.1819  -18.6389   20.7345 C.ar    1  UNL1        0.0000
     20 C          -4.6243  -20.1668   19.8632 C.2     1  UNL1        0.0729
     21 O          -4.0022  -19.0959   19.0169 O.co2   1  UNL1       -0.5446
     22 O          -3.9531  -21.5016   19.9968 O.co2   1  UNL1       -0.5446
     23 C          -8.3329  -15.7025   23.0704 C.3     1  UNL1        0.1007
     24 N          -7.1462  -15.0315   23.6962 N.3     1  UNL1       -0.2972
     25 H          -7.4907  -14.5243   24.5114 H       1  UNL1        0.1233
     26 C          -5.9781  -15.8514   24.1581 C.3     1  UNL1        0.0461
     27 C          -5.6337  -14.7938   25.1645 C.3     1  UNL1        0.0161
     28 C          -6.3226  -16.9090   23.1517 C.3     1  UNL1        0.0161
     29 C          -4.8101  -16.6714   24.6200 C.3     1  UNL1        0.0408
     30 C          -3.8702  -17.2702   23.6158 C.ar    1  UNL1       -0.0209
     31 C          -3.7860  -18.7600   23.4628 C.ar    1  UNL1       -0.0042
     32 C          -2.8462  -19.3589   22.4588 C.ar    1  UNL1       -0.0003
     33 C          -1.9907  -18.4679   21.6077 C.ar    1  UNL1       -0.0000
     34 C          -1.0509  -19.0668   20.6036 C.ar    1  UNL1       -0.0000
     35 C          -0.1954  -18.1759   19.7526 C.ar    1  UNL1       -0.0000
     36 C          -0.2796  -16.6861   19.9056 C.ar    1  UNL1       -0.0000
     37 C          -1.2194  -16.0872   20.9097 C.ar    1  UNL1       -0.0000
     38 C          -2.0749  -16.9781   21.7607 C.ar    1  UNL1       -0.0003
     39 C          -3.0147  -16.3793   22.7648 C.ar    1  UNL1       -0.0042
@<TRIPOS>UNITY_ATOM_ATTR
21 1
charge -1
@<TRIPOS>BOND
     1     7     6    1
     2     7     5    1
     3     5     4    1
     4     4     1    1
     5     1     2    1
     6     1    23    1
     7    23    24    1
     8    24    26    1
     9    26    27    1
    10    26    28    1
    11    26    29    1
    12    29    30    1
    13    30    31   ar
    14    31    32   ar
    15    32    33   ar
    16    33    34   ar
    17    34    35   ar
    18    35    36   ar
    19    36    37   ar
    20    37    38   ar
    21    38    39   ar
    22     7     8    1
    23     8     9   ar
    24     9    10   ar
    25    10    11   ar
    26    11    12   ar
    27    12    13   ar
    28    13    14    1
    29    14    15   ar
    30    15    16   ar
    31    16    17   ar
    32    17    20    1
    33    20    21   ar
    34    20    22   ar
    35    17    18   ar
    36    18    19   ar
    37    39    30   ar
    38    13     8   ar
    39    19    14   ar
    40    38    33   ar
    41     2     3    1
    42    24    25    1
@<TRIPOS>MOLECULE
*****
 39 42 0 0 0
SMALL
GASTEIGER

@<TRIPOS>ATOM
      1 C           4.9031   -2.9670   23.2309 C.3     1  UNL1        0.1556
      2 O           6.2067   -3.3290   23.8787 O.3     1  UNL1       -0.3805
      3 H           6.6805   -3.9640   23.3191 H       1  UNL1        0.2105
      4 C           3.9774   -1.9949   23.9003 C.3     1  UNL1        0.1729
      5 O           3.4586   -0.8094   23.1417 O.3     1  UNL1       -0.3492
      6 C           5.2805    0.6866   24.2338 C.3     1  UNL1        0.0370
      7 C           4.1115    0.5310   23.3070 C.3     1  UNL1        0.1376
      8 C           3.5953    1.7157   22.5454 C.ar    1  UNL1        0.0045
      9 C           4.2271    2.1020   21.2409 C.ar    1  UNL1       -0.0019
     10 C           3.7109    3.2867   20.4793 C.ar    1  UNL1       -0.0002
     11 C           2.5629    4.0851   21.0221 C.ar    1  UNL1       -0.0000
     12 C           1.9310    3.6987   22.3266 C.ar    1  UNL1       -0.0002
     13 C           2.4473    2.5140   23.0882 C.ar    1  UNL1       -0.0017
     14 C           1.8154    2.1277   24.3926 C.ar    1  UNL1       -0.0002
     15 C           0.5343    1.3475   24.4034 C.ar    1  UNL1        0.0000
     16 C          -0.0975    0.9612   25.7079 C.ar    1  UNL1        0.0011
     17 C           0.5518    1.3550   27.0015 C.ar    1  UNL1        0.0140
     18 C           1.8329    2.1351   26.9906 C.ar    1  UNL1        0.0011
     19 C           2.4647    2.5215   25.6862 C.ar    1  UNL1        0.0000
     20 C          -0.0800    0.9687   28.3059 C.2     1  UNL1        0.0729
     21 O           0.2709    1.7143   29.5592 O.co2   1  UNL1       -0.5446
     22 O          -1.0629   -0.1634   28.3570 O.co2   1  UNL1       -0.5446
     23 C           4.5252   -3.5772   21.9138 C.3     1  UNL1        0.1007
     24 N           5.1599   -3.0819   20.6481 N.3     1  UNL1       -0.2972
     25 H           5.5141   -3.9020   20.1558 H       1  UNL1        0.1233
     26 C           4.3484   -2.2996   19.6584 C.3     1  UNL1        0.0461
     27 C           5.1609   -1.0753   19.9598 C.3     1  UNL1        0.0161
     28 C           3.5358   -3.5239   19.3570 C.3     1  UNL1        0.0161
     29 C           3.5368   -1.5174   18.6687 C.3     1  UNL1        0.0408
     30 C           2.4537   -0.5967   19.1478 C.ar    1  UNL1       -0.0209
     31 C           1.7020   -0.9141   20.4065 C.ar    1  UNL1       -0.0042
     32 C           0.6190    0.0065   20.8855 C.ar    1  UNL1       -0.0003
     33 C           0.2876    1.2444   20.1059 C.ar    1  UNL1       -0.0000
     34 C          -0.7955    2.1650   20.5850 C.ar    1  UNL1       -0.0000
     35 C          -1.1268    3.4029   19.8054 C.ar    1  UNL1       -0.0000
     36 C          -0.3751    3.7202   18.5467 C.ar    1  UNL1       -0.0000
     37 C           0.7079    2.7996   18.0677 C.ar    1  UNL1       -0.0000
     38 C           1.0393    1.5618   18.8473 C.ar    1  UNL1       -0.0003
     39 C           2.1224    0.6411   18.3682 C.ar    1  UNL1       -0.0042
@<TRIPOS>UNITY_ATOM_ATTR
21 1
charge -1
@<TRIPOS>BOND
     1     7     6    1
     2     7     5    1
     3     5     4    1
     4     4     1    1
     5     1     2    1
     6     1    23    1
     7    23    24    1
     8    24    26    1
     9    26    27    1
    10    26    28    1
    11    26    29    1
    12    29    30    1
    13    30    31   ar
    14    31    32   ar
    15    32    33   ar
    16    33    34   ar
    17    34    35   ar
    18    35    36   ar
    19    36    37   ar
    20    37    38   ar
    21    38    39   ar
    22     7     8    1
    23     8     9   ar
    24     9    10   ar
    25    10    11   ar
    26    11    12   ar
    27    12    13   ar
    28    13    14    1
    29    14    15   ar
    30    15    16   ar
    31    16    17   ar
    32    17    20    1
    33    20    21   ar
    34    20    22   ar
    35    17    18   ar
    36    18    19   ar
    37    39    30   ar
    38    13     8   ar
    39    19    14   ar
    40    38    33   ar
    41     2     3    1
    42    24    25    1
@<TRIPOS>MOLECULE
*****
 39 42 0 0 0
SMALL
GASTEIGER

@<TRIPOS>ATOM
      1 C          -8.2054  -15.9494   22.5050 C.3     1  UNL1        0.1556
      2 O          -8.4715  -15.2414   21.2097 O.3     1  UNL1       -0.3805
      3 H          -8.6401  -14.3021   21.3833 H       1  UNL1        0.2105
      4 C          -7.9144  -17.4209   22.5095 C.3     1  UNL1        0.1729
      5 O          -7.3605  -18.0796   21.2809 O.3     1  UNL1       -0.3492
      6 C          -6.8173  -20.4033   22.3081 C.3     1  UNL1        0.0370
      7 C          -7.3456  -19.5757   21.1741 C.3     1  UNL1        0.1376
      8 C          -7.8590  -20.2442   19.9334 C.ar    1  UNL1        0.0045
      9 C          -6.9315  -21.0603   19.0826 C.ar    1  UNL1       -0.0019
     10 C          -7.4449  -21.7288   17.8418 C.ar    1  UNL1       -0.0002
     11 C          -8.8858  -21.5812   17.4518 C.ar    1  UNL1       -0.0000
     12 C          -9.8133  -20.7651   18.3025 C.ar    1  UNL1       -0.0002
     13 C          -9.2998  -20.0966   19.5434 C.ar    1  UNL1       -0.0017
     14 C         -10.2273  -19.2805   20.3941 C.ar    1  UNL1       -0.0002
     15 C         -10.7401  -17.9628   19.8934 C.ar    1  UNL1        0.0000
     16 C         -11.6675  -17.1467   20.7441 C.ar    1  UNL1        0.0011
     17 C         -12.0822  -17.6483   22.0956 C.ar    1  UNL1        0.0140
     18 C         -11.5695  -18.9660   22.5963 C.ar    1  UNL1        0.0011
     19 C         -10.6420  -19.7821   21.7455 C.ar    1  UNL1        0.0000
     20 C         -13.0097  -16.8322   22.9464 C.2     1  UNL1        0.0729
     21 O         -12.9928  -15.3354   22.8513 O.co2   1  UNL1       -0.5446
     22 O         -13.9541  -17.5131   23.8923 O.co2   1  UNL1       -0.5446
     23 C          -8.2304  -15.1859   23.7960 C.3     1  UNL1        0.1007
     24 N          -6.9737  -14.5560   24.3192 N.3     1  UNL1       -0.2972
     25 H          -7.2130  -14.1151   25.2073 H       1  UNL1        0.1233
     26 C          -5.7591  -15.4002   24.5683 C.3     1  UNL1        0.0461
     27 C          -6.3273  -15.8282   25.8889 C.3     1  UNL1        0.0161
     28 C          -5.1908  -14.9723   23.2477 C.3     1  UNL1        0.0161
     29 C          -4.5445  -16.2444   24.8174 C.3     1  UNL1        0.0408
     30 C          -3.9051  -16.9914   23.6845 C.ar    1  UNL1       -0.0209
     31 C          -4.3261  -18.3990   23.3819 C.ar    1  UNL1       -0.0042
     32 C          -3.6869  -19.1460   22.2491 C.ar    1  UNL1       -0.0003
     33 C          -2.6265  -18.4854   21.4188 C.ar    1  UNL1       -0.0000
     34 C          -1.9872  -19.2324   20.2860 C.ar    1  UNL1       -0.0000
     35 C          -0.9270  -18.5718   19.4557 C.ar    1  UNL1       -0.0000
     36 C          -0.5060  -17.1642   19.7582 C.ar    1  UNL1       -0.0000
     37 C          -1.1452  -16.4173   20.8910 C.ar    1  UNL1       -0.0000
     38 C          -2.2055  -17.0778   21.7213 C.ar    1  UNL1       -0.0003
     39 C          -2.8449  -16.3309   22.8542 C.ar    1  UNL1       -0.0042
@<TRIPOS>UNITY_ATOM_ATTR
21 1
charge -1
@<TRIPOS>BOND
     1     7     6    1
     2     7     5    1
     3     5     4    1
     4     4     1    1
     5     1     2    1
     6     1    23    1
     7    23    24    1
     8    24    26    1
     9    26    27    1
    10    26    28    1
    11    26    29    1
    12    29    30    1
    13    30    31   ar
    14    31    32   ar
    15    32    33   ar
    16    33    34   ar
    17    34    35   ar
    18    35    36   ar
    19    36    37   ar
    20    37    38   ar
    21    38    39   ar
    22     7     8    1
    23     8     9   ar
    24     9    10   ar
    25    10    11   ar
    26    11    12   ar
    27    12    13   ar
    28    13    14    1
    29    14    15   ar
    30    15    16   ar
    31    16    17   ar
    32    17    20    1
    33    20    21   ar
    34    20    22   ar
    35    17    18   ar
    36    18    19   ar
    37    39    30   ar
    38    13     8   ar
    39    19    14   ar
    40    38    33   ar
    41     2     3    1
    42    24    25    1
@<TRIPOS>MOLECULE
*****
 39 42 0 0 0
SMALL
GASTEIGER

@<TRIPOS>ATOM
      1 C           5.2388   -0.7818   16.9825 C.3     1  UNL1        0.1556
      2 O           3.9432   -1.0522   16.2764 O.3     1  UNL1       -0.3805
      3 H           3.5683   -1.8873   16.5974 H       1  UNL1        0.2105
      4 C           6.0225    0.4567   16.6634 C.3     1  UNL1        0.1729
      5 O           5.5554    1.7903   17.1668 O.3     1  UNL1       -0.3492
      6 C           6.5119    3.9134   18.3191 C.3     1  UNL1        0.0370
      7 C           6.2470    2.4370   18.3302 C.3     1  UNL1        0.1376
      8 C           6.6737    1.6073   19.5047 C.ar    1  UNL1        0.0045
      9 C           8.1184    1.2448   19.6816 C.ar    1  UNL1       -0.0019
     10 C           8.5451    0.4151   20.8561 C.ar    1  UNL1       -0.0002
     11 C           7.5270   -0.0521   21.8538 C.ar    1  UNL1       -0.0000
     12 C           6.0823    0.3104   21.6769 C.ar    1  UNL1       -0.0002
     13 C           5.6556    1.1402   20.5024 C.ar    1  UNL1       -0.0017
     14 C           4.2109    1.5027   20.3255 C.ar    1  UNL1       -0.0002
     15 C           3.6718    2.7588   20.9435 C.ar    1  UNL1        0.0000
     16 C           2.2270    3.1213   20.7666 C.ar    1  UNL1        0.0011
     17 C           1.3214    2.2279   19.9718 C.ar    1  UNL1        0.0140
     18 C           1.8606    0.9719   19.3538 C.ar    1  UNL1        0.0011
     19 C           3.3053    0.6094   19.5307 C.ar    1  UNL1        0.0000
     20 C          -0.1233    2.5904   19.7949 C.2     1  UNL1        0.0729
     21 O          -1.1341    2.1647   20.8181 O.co2   1  UNL1       -0.5446
     22 O          -0.5573    3.3788   18.5947 O.co2   1  UNL1       -0.5446
     23 C           5.7506   -1.7499   18.0076 C.3     1  UNL1        0.1007
     24 N           5.0432   -3.0545   18.2262 N.3     1  UNL1       -0.2972
     25 H           5.5952   -3.7713   17.7552 H       1  UNL1        0.1233
     26 C           4.7928   -3.5474   19.6205 C.3     1  UNL1        0.0461
     27 C           3.4410   -4.0448   19.2019 C.3     1  UNL1        0.0161
     28 C           6.1446   -3.0499   20.0392 C.3     1  UNL1        0.0161
     29 C           4.5423   -4.0403   21.0149 C.3     1  UNL1        0.0408
     30 C           4.3511   -3.0598   22.1340 C.ar    1  UNL1       -0.0209
     31 C           5.1677   -3.1824   23.3862 C.ar    1  UNL1       -0.0042
     32 C           4.9765   -2.2020   24.5052 C.ar    1  UNL1       -0.0003
     33 C           3.9687   -1.0989   24.3720 C.ar    1  UNL1       -0.0000
     34 C           3.7775   -0.1185   25.4910 C.ar    1  UNL1       -0.0000
     35 C           2.7697    0.9844   25.3578 C.ar    1  UNL1       -0.0000
     36 C           1.9531    1.1070   24.1055 C.ar    1  UNL1       -0.0000
     37 C           2.1443    0.1266   22.9865 C.ar    1  UNL1       -0.0000
     38 C           3.1521   -0.9764   23.1198 C.ar    1  UNL1       -0.0003
     39 C           3.3433   -1.9569   22.0007 C.ar    1  UNL1       -0.0042
@<TRIPOS>UNITY_ATOM_ATTR
21 1
charge -1
@<TRIPOS>BOND
     1     7     6    1
     2     7     5    1
     3     5     4    1
     4     4     1    1
     5     1     2    1
     6     1    23    1
     7    23    24    1
     8    24    26    1
     9    26    27    1
    10    26    28    1
    11    26    29    1
    12    29    30    1
    13    30    31   ar
    14    31    32   ar
    15    32    33   ar
    16    33    34   ar
    17    34    35   ar
    18    35    36   ar
    19    36    37   ar
    20    37    38   ar
    21    38    39   ar
    22     7     8    1
    23     8     9   ar
    24     9    10   ar
    25    10    11   ar
    26    11    12   ar
    27    12    13   ar
    28    13    14    1
    29    14    15   ar
    30    15    16   ar
    31    16    17   ar
    32    17    20    1
    33    20    21   ar
    34    20    22   ar
    35    17    18   ar
    36    18    19   ar
    37    39    30   ar
    38    13     8   ar
    39    19    14   ar
    40    38    33   ar
    41     2     3    1
    42    24    25    1
@<TRIPOS>MOLECULE
*****
 39 42 0 0 0
SMALL
GASTEIGER

@<TRIPOS>ATOM
      1 C          -9.0998  -16.4999   25.0416 C.3     1  UNL1        0.1556
      2 O          -9.5542  -17.7098   25.8031 O.3     1  UNL1       -0.3805
      3 H          -9.1348  -17.7177   26.6777 H       1  UNL1        0.2105
      4 C          -9.6074  -16.2542   23.6517 C.3     1  UNL1        0.1729
      5 O          -8.7444  -16.5814   22.4692 O.3     1  UNL1       -0.3492
      6 C          -7.4501  -18.6639   23.3285 C.3     1  UNL1        0.0370
      7 C          -8.2571  -17.9849   22.2618 C.3     1  UNL1        0.1376
      8 C          -8.5768  -18.7092   20.9879 C.ar    1  UNL1        0.0045
      9 C          -7.5131  -18.9030   19.9481 C.ar    1  UNL1       -0.0019
     10 C          -7.8328  -19.6273   18.6741 C.ar    1  UNL1       -0.0002
     11 C          -9.2161  -20.1580   18.4398 C.ar    1  UNL1       -0.0000
     12 C         -10.2798  -19.9642   19.4796 C.ar    1  UNL1       -0.0002
     13 C          -9.9601  -19.2398   20.7536 C.ar    1  UNL1       -0.0017
     14 C         -11.0237  -19.0460   21.7934 C.ar    1  UNL1       -0.0002
     15 C         -10.9077  -19.7327   23.1220 C.ar    1  UNL1        0.0000
     16 C         -11.9713  -19.5389   24.1618 C.ar    1  UNL1        0.0011
     17 C         -13.1510  -18.6585   23.8729 C.ar    1  UNL1        0.0140
     18 C         -13.2669  -17.9719   22.5444 C.ar    1  UNL1        0.0011
     19 C         -12.2033  -18.1657   21.5046 C.ar    1  UNL1        0.0000
     20 C         -14.2146  -18.4647   24.9127 C.2     1  UNL1        0.0729
     21 O         -13.8322  -18.1212   26.3218 O.co2   1  UNL1       -0.5446
     22 O         -15.6607  -18.6145   24.5433 O.co2   1  UNL1       -0.5446
     23 C          -8.1378  -15.5358   25.6701 C.3     1  UNL1        0.1007
     24 N          -7.0707  -14.8903   24.8365 N.3     1  UNL1       -0.2972
     25 H          -6.9461  -13.9449   25.1984 H       1  UNL1        0.1233
     26 C          -5.7057  -15.5070   24.7568 C.3     1  UNL1        0.0461
     27 C          -5.7616  -15.8203   26.2227 C.3     1  UNL1        0.0161
     28 C          -5.6497  -15.1937   23.2910 C.3     1  UNL1        0.0161
     29 C          -4.3406  -16.1236   24.6771 C.3     1  UNL1        0.0408
     30 C          -3.8921  -16.7915   23.4111 C.ar    1  UNL1       -0.0209
     31 C          -2.8315  -16.1552   22.5625 C.ar    1  UNL1       -0.0042
     32 C          -2.3830  -16.8230   21.2965 C.ar    1  UNL1       -0.0003
     33 C          -2.9951  -18.1272   20.8790 C.ar    1  UNL1       -0.0000
     34 C          -2.5466  -18.7951   19.6130 C.ar    1  UNL1       -0.0000
     35 C          -3.1588  -20.0993   19.1955 C.ar    1  UNL1       -0.0000
     36 C          -4.2194  -20.7356   20.0441 C.ar    1  UNL1       -0.0000
     37 C          -4.6679  -20.0678   21.3101 C.ar    1  UNL1       -0.0000
     38 C          -4.0558  -18.7636   21.7276 C.ar    1  UNL1       -0.0003
     39 C          -4.5043  -18.0957   22.9936 C.ar    1  UNL1       -0.0042
@<TRIPOS>UNITY_ATOM_ATTR
21 1
charge -1
@<TRIPOS>BOND
     1     7     6    1
     2     7     5    1
     3     5     4    1
     4     4     1    1
     5     1     2    1
     6     1    23    1
     7    23    24    1
     8    24    26    1
     9    26    27    1
    10    26    28    1
    11    26    29    1
    12    29    30    1
    13    30    31   ar
    14    31    32   ar
    15    32    33   ar
    16    33    34   ar
    17    34    35   ar
    18    35    36   ar
    19    36    37   ar
    20    37    38   ar
    21    38    39   ar
    22     7     8    1
    23     8     9   ar
    24     9    10   ar
    25    10    11   ar
    26    11    12   ar
    27    12    13   ar
    28    13    14    1
    29    14    15   ar
    30    15    16   ar
    31    16    17   ar
    32    17    20    1
    33    20    21   ar
    34    20    22   ar
    35    17    18   ar
    36    18    19   ar
    37    39    30   ar
    38    13     8   ar
    39    19    14   ar
    40    38    33   ar
    41     2     3    1
    42    24    25    1
