@<TRIPOS>MOLECULE
*****
 27 29 0 0 0
SMALL
GASTEIGER

@<TRIPOS>ATOM
      1 C          -7.9357  -19.0907   20.5330 C.ar    1  UNL1        0.0522
      2 C          -7.3646  -20.3206   19.8918 C.ar    1  UNL1        0.0148
      3 C          -5.9844  -20.7831   20.2538 C.ar    1  UNL1        0.0028
      4 C          -5.1752  -20.0157   21.2570 C.ar    1  UNL1        0.0173
      5 C          -5.7463  -18.7858   21.8981 C.ar    1  UNL1        0.0616
      6 C          -7.1265  -18.3233   21.5361 C.ar    1  UNL1        0.0363
      7 C          -7.4223  -17.0836   22.3272 C.ar    1  UNL1        0.0437
      8 C          -6.2249  -16.7800   23.1781 C.ar    1  UNL1        0.0438
      9 C          -6.0874  -15.6268   24.1274 C.3     1  UNL1        0.0506
     10 N          -5.1891  -17.8320   22.9129 N.ar    1  UNL1       -0.3248
     11 C         -11.8948  -18.8919   20.3434 C.3     1  UNL1        0.0949
     12 C         -10.5146  -19.3545   20.7054 C.2     1  UNL1        0.2266
     13 O         -10.3330  -20.5434   21.6018 O.2     1  UNL1       -0.2748
     14 N          -9.3159  -18.6281   20.1710 N.am    1  UNL1       -0.2839
     15 H          -9.4351  -17.8478   19.5826 H       1  UNL1        0.1549
     16 S          -8.6925  -16.2874   22.2762 S.3     1  UNL1       -0.0857
     17 C          -9.9500  -16.8421   22.8772 C.ar    1  UNL1        0.0295
     18 C          -9.8765  -17.9753   23.8572 C.ar    1  UNL1        0.0073
     19 C         -11.1339  -18.5299   24.4581 C.ar    1  UNL1        0.0119
     20 C         -12.4649  -17.9514   24.0791 C.ar    1  UNL1        0.0577
     21 CL        -13.7224  -18.5060   24.6800 Cl      1  UNL1       -0.0822
     22 C         -12.5385  -16.8181   23.0991 C.ar    1  UNL1        0.0119
     23 C         -11.2810  -16.2635   22.4982 C.ar    1  UNL1        0.0073
     24 C          -3.8339  -17.9156   23.5505 C.3     1  UNL1        0.1475
     25 C          -2.6013  -17.6987   22.7236 C.2     1  UNL1        0.0732
     26 O          -1.7329  -18.8638   22.3519 O.co2   1  UNL1       -0.5472
     27 O          -2.2371  -16.3165   22.2685 O.co2   1  UNL1       -0.5472
@<TRIPOS>UNITY_ATOM_ATTR
26 1
charge -1
@<TRIPOS>BOND
     1    11    12    1
     2    12    13    2
     3    12    14   am
     4    14     1    1
     5     1     2   ar
     6     2     3   ar
     7     3     4   ar
     8     4     5   ar
     9     5     6   ar
    10     6     7   ar
    11     7    16    1
    12    16    17    1
    13    17    18   ar
    14    18    19   ar
    15    19    20   ar
    16    20    21    1
    17    20    22   ar
    18    22    23   ar
    19     7     8   ar
    20     8     9    1
    21     8    10   ar
    22    10    24    1
    23    24    25    1
    24    25    26   ar
    25    25    27   ar
    26     6     1   ar
    27    23    17   ar
    28    10     5   ar
    29    14    15    1
@<TRIPOS>MOLECULE
*****
 27 29 0 0 0
SMALL
GASTEIGER

@<TRIPOS>ATOM
      1 C          -6.6242  -17.6964   22.7756 C.ar    1  UNL1        0.0522
      2 C          -7.0850  -16.5337   23.6037 C.ar    1  UNL1        0.0148
      3 C          -8.4351  -15.9273   23.3596 C.ar    1  UNL1        0.0028
      4 C          -9.3244  -16.4837   22.2874 C.ar    1  UNL1        0.0173
      5 C          -8.8636  -17.6464   21.4593 C.ar    1  UNL1        0.0616
      6 C          -7.5135  -18.2527   21.7034 C.ar    1  UNL1        0.0363
      7 C          -7.3316  -19.3840   20.7354 C.ar    1  UNL1        0.0437
      8 C          -8.5693  -19.4769   19.8930 C.ar    1  UNL1        0.0438
      9 C          -8.8167  -20.4694   18.7958 C.3     1  UNL1        0.0506
     10 N          -9.5161  -18.4029   20.3404 N.ar    1  UNL1       -0.3248
     11 C          -2.7144  -18.0284   23.3700 C.3     1  UNL1        0.0949
     12 C          -4.0645  -17.4221   23.1259 C.2     1  UNL1        0.2266
     13 O          -4.2050  -15.9350   22.9881 O.2     1  UNL1       -0.2748
     14 N          -5.2741  -18.3027   23.0196 N.am    1  UNL1       -0.2839
     15 H          -5.1819  -19.2787   23.1101 H       1  UNL1        0.1549
     16 S          -6.1240  -20.2674   20.6285 S.3     1  UNL1       -0.0857
     17 C          -4.7915  -19.6765   20.2743 C.ar    1  UNL1        0.0295
     18 C          -4.7213  -18.4179   19.4613 C.ar    1  UNL1        0.0073
     19 C          -3.3889  -17.8271   19.1072 C.ar    1  UNL1        0.0119
     20 C          -2.1265  -18.4948   19.5662 C.ar    1  UNL1        0.0577
     21 CL         -0.7941  -17.9039   19.2121 Cl      1  UNL1       -0.0822
     22 C          -2.1966  -19.7534   20.3792 C.ar    1  UNL1        0.0119
     23 C          -3.5291  -20.3442   20.7333 C.ar    1  UNL1        0.0073
     24 C         -10.8765  -18.1329   19.7693 C.3     1  UNL1        0.1475
     25 C         -11.4792  -16.7639   19.8823 C.2     1  UNL1        0.0732
     26 O         -12.7516  -16.5657   20.6516 O.co2   1  UNL1       -0.5472
     27 O         -10.8095  -15.5931   19.2259 O.co2   1  UNL1       -0.5472
@<TRIPOS>UNITY_ATOM_ATTR
26 1
charge -1
@<TRIPOS>BOND
     1    11    12    1
     2    12    13    2
     3    12    14   am
     4    14     1    1
     5     1     2   ar
     6     2     3   ar
     7     3     4   ar
     8     4     5   ar
     9     5     6   ar
    10     6     7   ar
    11     7    16    1
    12    16    17    1
    13    17    18   ar
    14    18    19   ar
    15    19    20   ar
    16    20    21    1
    17    20    22   ar
    18    22    23   ar
    19     7     8   ar
    20     8     9    1
    21     8    10   ar
    22    10    24    1
    23    24    25    1
    24    25    26   ar
    25    25    27   ar
    26     6     1   ar
    27    23    17   ar
    28    10     5   ar
    29    14    15    1
@<TRIPOS>MOLECULE
*****
 27 29 0 0 0
SMALL
GASTEIGER

@<TRIPOS>ATOM
      1 C          -7.4559  -18.7810   20.8603 C.ar    1  UNL1        0.0522
      2 C          -6.4133  -19.8253   20.5916 C.ar    1  UNL1        0.0148
      3 C          -5.1486  -19.8473   21.3979 C.ar    1  UNL1        0.0028
      4 C          -4.9265  -18.8250   22.4728 C.ar    1  UNL1        0.0173
      5 C          -5.9692  -17.7807   22.7415 C.ar    1  UNL1        0.0616
      6 C          -7.2339  -17.7587   21.9353 C.ar    1  UNL1        0.0363
      7 C          -8.0753  -16.6171   22.4240 C.ar    1  UNL1        0.0437
      8 C          -7.3306  -15.9336   23.5322 C.ar    1  UNL1        0.0438
      9 C          -7.8044  -14.7404   24.3080 C.3     1  UNL1        0.0506
     10 N          -6.0290  -16.6527   23.7285 N.ar    1  UNL1       -0.3248
     11 C         -11.2000  -19.4679   19.7379 C.3     1  UNL1        0.0949
     12 C          -9.9353  -19.4899   20.5442 C.2     1  UNL1        0.2266
     13 O          -9.8853  -20.2429   21.8406 O.2     1  UNL1       -0.2748
     14 N          -8.7206  -18.7590   20.0541 N.am    1  UNL1       -0.2839
     15 H          -8.7535  -18.2648   19.2033 H       1  UNL1        0.1549
     16 S          -9.4245  -16.2275   21.8969 S.3     1  UNL1       -0.0857
     17 C         -10.6660  -16.7808   22.5315 C.ar    1  UNL1        0.0295
     18 C         -12.0155  -16.3797   22.0138 C.ar    1  UNL1        0.0073
     19 C         -13.2569  -16.9330   22.6484 C.ar    1  UNL1        0.0119
     20 C         -13.1489  -17.8873   23.8006 C.ar    1  UNL1        0.0577
     21 CL        -14.3903  -18.4406   24.4351 Cl      1  UNL1       -0.0822
     22 C         -11.7994  -18.2884   24.3182 C.ar    1  UNL1        0.0119
     23 C         -10.5580  -17.7351   23.6837 C.ar    1  UNL1        0.0073
     24 C          -4.9725  -16.3050   24.7350 C.3     1  UNL1        0.1475
     25 C          -5.3394  -15.5453   25.9754 C.2     1  UNL1        0.0732
     26 O          -4.8761  -14.1297   26.1525 O.co2   1  UNL1       -0.5472
     27 O          -6.1696  -16.2013   27.0386 O.co2   1  UNL1       -0.5472
@<TRIPOS>UNITY_ATOM_ATTR
26 1
charge -1
@<TRIPOS>BOND
     1    11    12    1
     2    12    13    2
     3    12    14   am
     4    14     1    1
     5     1     2   ar
     6     2     3   ar
     7     3     4   ar
     8     4     5   ar
     9     5     6   ar
    10     6     7   ar
    11     7    16    1
    12    16    17    1
    13    17    18   ar
    14    18    19   ar
    15    19    20   ar
    16    20    21    1
    17    20    22   ar
    18    22    23   ar
    19     7     8   ar
    20     8     9    1
    21     8    10   ar
    22    10    24    1
    23    24    25    1
    24    25    26   ar
    25    25    27   ar
    26     6     1   ar
    27    23    17   ar
    28    10     5   ar
    29    14    15    1
@<TRIPOS>MOLECULE
*****
 27 29 0 0 0
SMALL
GASTEIGER

@<TRIPOS>ATOM
      1 C          -9.4206  -19.1208   19.6545 C.ar    1  UNL1        0.0522
      2 C          -9.6939  -20.2061   18.6558 C.ar    1  UNL1        0.0148
      3 C          -8.6544  -21.2522   18.3817 C.ar    1  UNL1        0.0028
      4 C          -7.3416  -21.2130   19.1062 C.ar    1  UNL1        0.0173
      5 C          -7.0684  -20.1277   20.1049 C.ar    1  UNL1        0.0616
      6 C          -8.1078  -19.0816   20.3790 C.ar    1  UNL1        0.0363
      7 C          -7.5581  -18.1409   21.4100 C.ar    1  UNL1        0.0437
      8 C          -6.1789  -18.6056   21.7731 C.ar    1  UNL1        0.0438
      9 C          -5.2632  -17.9563   22.7680 C.3     1  UNL1        0.0506
     10 N          -5.8762  -19.8335   20.9665 N.ar    1  UNL1       -0.3248
     11 C         -12.4692  -17.2126   21.3323 C.3     1  UNL1        0.0949
     12 C         -11.4297  -18.2587   21.0581 C.2     1  UNL1        0.2266
     13 O         -11.3598  -19.4889   21.9137 O.2     1  UNL1       -0.2748
     14 N         -10.4601  -18.0747   19.9286 N.am    1  UNL1       -0.2839
     15 H         -10.5060  -17.2673   19.3671 H       1  UNL1        0.1549
     16 S          -8.2638  -16.9454   21.9782 S.3     1  UNL1       -0.0857
     17 C          -8.3298  -16.7493   23.4639 C.ar    1  UNL1        0.0295
     18 C          -7.5952  -15.6084   24.1032 C.ar    1  UNL1        0.0073
     19 C          -7.6612  -15.4125   25.5889 C.ar    1  UNL1        0.0119
     20 C          -8.4618  -16.3573   26.4352 C.ar    1  UNL1        0.0577
     21 CL         -8.5278  -16.1613   27.9209 Cl      1  UNL1       -0.0822
     22 C          -9.1964  -17.4983   25.7959 C.ar    1  UNL1        0.0119
     23 C          -9.1303  -17.6942   24.3102 C.ar    1  UNL1        0.0073
     24 C          -4.6047  -20.6278   21.0132 C.3     1  UNL1        0.1475
     25 C          -3.3145  -20.0049   20.5685 C.2     1  UNL1        0.0732
     26 O          -2.0620  -20.2250   21.3640 O.co2   1  UNL1       -0.5472
     27 O          -3.2769  -19.1621   19.3283 O.co2   1  UNL1       -0.5472
@<TRIPOS>UNITY_ATOM_ATTR
26 1
charge -1
@<TRIPOS>BOND
     1    11    12    1
     2    12    13    2
     3    12    14   am
     4    14     1    1
     5     1     2   ar
     6     2     3   ar
     7     3     4   ar
     8     4     5   ar
     9     5     6   ar
    10     6     7   ar
    11     7    16    1
    12    16    17    1
    13    17    18   ar
    14    18    19   ar
    15    19    20   ar
    16    20    21    1
    17    20    22   ar
    18    22    23   ar
    19     7     8   ar
    20     8     9    1
    21     8    10   ar
    22    10    24    1
    23    24    25    1
    24    25    26   ar
    25    25    27   ar
    26     6     1   ar
    27    23    17   ar
    28    10     5   ar
    29    14    15    1
@<TRIPOS>MOLECULE
*****
 27 29 0 0 0
SMALL
GASTEIGER

@<TRIPOS>ATOM
      1 C          -7.9371  -16.2381   23.0512 C.ar    1  UNL1        0.0522
      2 C          -7.2743  -15.0982   23.7661 C.ar    1  UNL1        0.0148
      3 C          -5.8149  -15.1723   24.1049 C.ar    1  UNL1        0.0028
      4 C          -5.0184  -16.3864   23.7288 C.ar    1  UNL1        0.0173
      5 C          -5.6812  -17.5263   23.0139 C.ar    1  UNL1        0.0616
      6 C          -7.1406  -17.4522   22.6751 C.ar    1  UNL1        0.0363
      7 C          -7.5181  -18.7219   21.9713 C.ar    1  UNL1        0.0437
      8 C          -6.2921  -19.5808   21.8752 C.ar    1  UNL1        0.0438
      9 C          -6.2149  -20.9399   21.2453 C.3     1  UNL1        0.0506
     10 N          -5.1569  -18.8418   22.5195 N.ar    1  UNL1       -0.3248
     11 C         -11.3069  -15.3281   21.1628 C.3     1  UNL1        0.0949
     12 C          -9.8476  -15.4022   21.5016 C.2     1  UNL1        0.2266
     13 O          -8.8393  -14.7145   20.6295 O.2     1  UNL1       -0.2748
     14 N          -9.3965  -16.1640   22.7124 N.am    1  UNL1       -0.2839
     15 H         -10.0582  -16.6153   23.2848 H       1  UNL1        0.1549
     16 S          -8.8822  -19.0714   21.4545 S.3     1  UNL1       -0.0857
     17 C         -10.0785  -18.9469   22.3509 C.ar    1  UNL1        0.0295
     18 C         -11.4140  -18.5828   21.7731 C.ar    1  UNL1        0.0073
     19 C         -12.6102  -18.4584   22.6695 C.ar    1  UNL1        0.0119
     20 C         -12.4709  -18.6981   24.1437 C.ar    1  UNL1        0.0577
     21 CL        -13.6672  -18.5736   25.0400 Cl      1  UNL1       -0.0822
     22 C         -11.1354  -19.0622   24.7215 C.ar    1  UNL1        0.0119
     23 C          -9.9392  -19.1866   23.8251 C.ar    1  UNL1        0.0073
     24 C          -3.7451  -19.3323   22.6471 C.3     1  UNL1        0.1475
     25 C          -2.7798  -19.1421   21.5147 C.2     1  UNL1        0.0732
     26 O          -2.8904  -17.9363   20.6294 O.co2   1  UNL1       -0.5472
     27 O          -1.7039  -20.1578   21.2677 O.co2   1  UNL1       -0.5472
@<TRIPOS>UNITY_ATOM_ATTR
26 1
charge -1
@<TRIPOS>BOND
     1    11    12    1
     2    12    13    2
     3    12    14   am
     4    14     1    1
     5     1     2   ar
     6     2     3   ar
     7     3     4   ar
     8     4     5   ar
     9     5     6   ar
    10     6     7   ar
    11     7    16    1
    12    16    17    1
    13    17    18   ar
    14    18    19   ar
    15    19    20   ar
    16    20    21    1
    17    20    22   ar
    18    22    23   ar
    19     7     8   ar
    20     8     9    1
    21     8    10   ar
    22    10    24    1
    23    24    25    1
    24    25    26   ar
    25    25    27   ar
    26     6     1   ar
    27    23    17   ar
    28    10     5   ar
    29    14    15    1
@<TRIPOS>MOLECULE
*****
 27 29 0 0 0
SMALL
GASTEIGER

@<TRIPOS>ATOM
      1 C          -5.7706  -18.1626   21.6056 C.ar    1  UNL1        0.0522
      2 C          -4.3520  -18.6473   21.6552 C.ar    1  UNL1        0.0148
      3 C          -3.4648  -18.2547   22.7993 C.ar    1  UNL1        0.0028
      4 C          -3.9963  -17.3775   23.8938 C.ar    1  UNL1        0.0173
      5 C          -5.4150  -16.8929   23.8442 C.ar    1  UNL1        0.0616
      6 C          -6.3021  -17.2854   22.7001 C.ar    1  UNL1        0.0363
      7 C          -7.6471  -16.6588   22.9204 C.ar    1  UNL1        0.0437
      8 C          -7.5912  -15.8791   24.2006 C.ar    1  UNL1        0.0438
      9 C          -8.7172  -15.0928   24.8039 C.3     1  UNL1        0.0506
     10 N          -6.2117  -16.0237   24.7715 N.ar    1  UNL1       -0.3248
     11 C          -7.9214  -20.3860   19.1196 C.3     1  UNL1        0.0949
     12 C          -7.0342  -19.9935   20.2637 C.2     1  UNL1        0.2266
     13 O          -6.5236  -21.0395   21.2099 O.2     1  UNL1       -0.2748
     14 N          -6.6577  -18.5551   20.4615 N.am    1  UNL1       -0.2839
     15 H          -6.9928  -17.8686   19.8405 H       1  UNL1        0.1549
     16 S          -8.8387  -16.7892   22.0187 S.3     1  UNL1       -0.0857
     17 C         -10.1786  -17.1431   22.5929 C.ar    1  UNL1        0.0295
     18 C         -10.3072  -18.2997   23.5393 C.ar    1  UNL1        0.0073
     19 C         -11.6470  -18.6536   24.1134 C.ar    1  UNL1        0.0119
     20 C         -12.8582  -17.8508   23.7411 C.ar    1  UNL1        0.0577
     21 CL        -14.1980  -18.2047   24.3153 Cl      1  UNL1       -0.0822
     22 C         -12.7296  -16.6942   22.7947 C.ar    1  UNL1        0.0119
     23 C         -11.3898  -16.3404   22.2206 C.ar    1  UNL1        0.0073
     24 C          -5.7159  -15.4075   26.0460 C.3     1  UNL1        0.1475
     25 C          -6.6006  -15.3746   27.2570 C.2     1  UNL1        0.0732
     26 O          -7.3514  -16.6054   27.6710 O.co2   1  UNL1       -0.5472
     27 O          -6.7345  -14.1108   28.0539 O.co2   1  UNL1       -0.5472
@<TRIPOS>UNITY_ATOM_ATTR
26 1
charge -1
@<TRIPOS>BOND
     1    11    12    1
     2    12    13    2
     3    12    14   am
     4    14     1    1
     5     1     2   ar
     6     2     3   ar
     7     3     4   ar
     8     4     5   ar
     9     5     6   ar
    10     6     7   ar
    11     7    16    1
    12    16    17    1
    13    17    18   ar
    14    18    19   ar
    15    19    20   ar
    16    20    21    1
    17    20    22   ar
    18    22    23   ar
    19     7     8   ar
    20     8     9    1
    21     8    10   ar
    22    10    24    1
    23    24    25    1
    24    25    26   ar
    25    25    27   ar
    26     6     1   ar
    27    23    17   ar
    28    10     5   ar
    29    14    15    1
@<TRIPOS>MOLECULE
*****
 27 29 0 0 0
SMALL
GASTEIGER

@<TRIPOS>ATOM
      1 C         -11.9386   -5.2543   18.6220 C.ar    1  UNL1        0.0522
      2 C         -10.8144   -5.9766   17.9407 C.ar    1  UNL1        0.0148
      3 C         -11.0601   -7.3084   17.2959 C.ar    1  UNL1        0.0028
      4 C         -12.4302   -7.9180   17.3324 C.ar    1  UNL1        0.0173
      5 C         -13.5544   -7.1957   18.0137 C.ar    1  UNL1        0.0616
      6 C         -13.3087   -5.8638   18.6585 C.ar    1  UNL1        0.0363
      7 C         -14.6024   -5.3904   19.2520 C.ar    1  UNL1        0.0437
      8 C         -15.6477   -6.4296   18.9739 C.ar    1  UNL1        0.0438
      9 C         -17.0879   -6.3645   19.3884 C.3     1  UNL1        0.0506
     10 N         -15.0001   -7.5453   18.2087 N.ar    1  UNL1       -0.3248
     11 C         -11.4549   -1.3420   19.0804 C.3     1  UNL1        0.0949
     12 C         -11.7006   -2.6739   18.4356 C.2     1  UNL1        0.2266
     13 O         -11.9542   -2.7571   16.9595 O.2     1  UNL1       -0.2748
     14 N         -11.6929   -3.9224   19.2668 N.am    1  UNL1       -0.2839
     15 H         -11.5265   -3.8678   20.2356 H       1  UNL1        0.1549
     16 S         -14.8137   -4.1036   19.9933 S.3     1  UNL1       -0.0857
     17 C         -15.1411   -2.8487   19.2394 C.ar    1  UNL1        0.0295
     18 C         -15.1915   -1.5333   19.9585 C.ar    1  UNL1        0.0073
     19 C         -15.5189   -0.2786   19.2046 C.ar    1  UNL1        0.0119
     20 C         -15.7959   -0.3392   17.7316 C.ar    1  UNL1        0.0577
     21 CL        -16.1233    0.9156   16.9778 Cl      1  UNL1       -0.0822
     22 C         -15.7455   -1.6546   17.0125 C.ar    1  UNL1        0.0119
     23 C         -15.4181   -2.9094   17.7664 C.ar    1  UNL1        0.0073
     24 C         -15.6788   -8.7919   17.7235 C.3     1  UNL1        0.1475
     25 C         -15.7715   -9.9923   18.6184 C.2     1  UNL1        0.0732
     26 O         -15.2635  -11.3218   18.1448 O.co2   1  UNL1       -0.5472
     27 O         -16.3721   -9.8630   19.9868 O.co2   1  UNL1       -0.5472
@<TRIPOS>UNITY_ATOM_ATTR
26 1
charge -1
@<TRIPOS>BOND
     1    11    12    1
     2    12    13    2
     3    12    14   am
     4    14     1    1
     5     1     2   ar
     6     2     3   ar
     7     3     4   ar
     8     4     5   ar
     9     5     6   ar
    10     6     7   ar
    11     7    16    1
    12    16    17    1
    13    17    18   ar
    14    18    19   ar
    15    19    20   ar
    16    20    21    1
    17    20    22   ar
    18    22    23   ar
    19     7     8   ar
    20     8     9    1
    21     8    10   ar
    22    10    24    1
    23    24    25    1
    24    25    26   ar
    25    25    27   ar
    26     6     1   ar
    27    23    17   ar
    28    10     5   ar
    29    14    15    1
@<TRIPOS>MOLECULE
*****
 27 29 0 0 0
SMALL
GASTEIGER

@<TRIPOS>ATOM
      1 C         -11.1036   -4.0383   18.3229 C.ar    1  UNL1        0.0522
      2 C          -9.9422   -4.7179   18.9857 C.ar    1  UNL1        0.0148
      3 C          -9.9255   -6.2116   19.1220 C.ar    1  UNL1        0.0028
      4 C         -11.0701   -7.0257   18.5956 C.ar    1  UNL1        0.0173
      5 C         -12.2314   -6.3461   17.9329 C.ar    1  UNL1        0.0616
      6 C         -12.2482   -4.8524   17.7965 C.ar    1  UNL1        0.0363
      7 C         -13.5196   -4.4646   17.1014 C.ar    1  UNL1        0.0437
      8 C         -14.2886   -5.7186   16.8081 C.ar    1  UNL1        0.0438
      9 C         -15.6200   -5.7963   16.1215 C.3     1  UNL1        0.0506
     10 N         -13.4925   -6.8814   17.3220 N.ar    1  UNL1       -0.3248
     11 C         -10.4636   -0.3970   16.8802 C.3     1  UNL1        0.0949
     12 C         -10.4468   -1.8907   17.0166 C.2     1  UNL1        0.2266
     13 O          -9.7565   -2.7305   15.9830 O.2     1  UNL1       -0.2748
     14 N         -11.1203   -2.5446   18.1865 N.am    1  UNL1       -0.2839
     15 H         -11.5734   -1.9934   18.8649 H       1  UNL1        0.1549
     16 S         -13.9469   -3.0680   16.7595 S.3     1  UNL1       -0.0857
     17 C         -14.6734   -2.2362   17.7747 C.ar    1  UNL1        0.0295
     18 C         -15.7706   -2.8450   18.5966 C.ar    1  UNL1        0.0073
     19 C         -16.4969   -2.0132   19.6117 C.ar    1  UNL1        0.0119
     20 C         -16.1261   -0.5727   19.8050 C.ar    1  UNL1        0.0577
     21 CL        -16.8525    0.2590   20.8201 Cl      1  UNL1       -0.0822
     22 C         -15.0289    0.0361   18.9831 C.ar    1  UNL1        0.0119
     23 C         -14.3025   -0.7957   17.9680 C.ar    1  UNL1        0.0073
     24 C         -13.8880   -8.3260   17.2396 C.3     1  UNL1        0.1475
     25 C         -14.8558   -8.8966   18.2336 C.2     1  UNL1        0.0732
     26 O         -15.5048   -8.0015   19.2473 O.co2   1  UNL1       -0.5472
     27 O         -15.1745  -10.3622   18.2138 O.co2   1  UNL1       -0.5472
@<TRIPOS>UNITY_ATOM_ATTR
26 1
charge -1
@<TRIPOS>BOND
     1    11    12    1
     2    12    13    2
     3    12    14   am
     4    14     1    1
     5     1     2   ar
     6     2     3   ar
     7     3     4   ar
     8     4     5   ar
     9     5     6   ar
    10     6     7   ar
    11     7    16    1
    12    16    17    1
    13    17    18   ar
    14    18    19   ar
    15    19    20   ar
    16    20    21    1
    17    20    22   ar
    18    22    23   ar
    19     7     8   ar
    20     8     9    1
    21     8    10   ar
    22    10    24    1
    23    24    25    1
    24    25    26   ar
    25    25    27   ar
    26     6     1   ar
    27    23    17   ar
    28    10     5   ar
    29    14    15    1
@<TRIPOS>MOLECULE
*****
 27 29 0 0 0
SMALL
GASTEIGER

@<TRIPOS>ATOM
      1 C         -10.6380   -4.2967   17.2461 C.ar    1  UNL1        0.0522
      2 C          -9.7932   -3.5964   16.2233 C.ar    1  UNL1        0.0148
      3 C          -9.9715   -2.1267   15.9823 C.ar    1  UNL1        0.0028
      4 C         -10.9946   -1.3572   16.7640 C.ar    1  UNL1        0.0173
      5 C         -11.8394   -2.0574   17.7867 C.ar    1  UNL1        0.0616
      6 C         -11.6611   -3.5272   18.0277 C.ar    1  UNL1        0.0363
      7 C         -12.6316   -3.9433   19.0931 C.ar    1  UNL1        0.0437
      8 C         -13.4098   -2.7307   19.5104 C.ar    1  UNL1        0.0438
      9 C         -14.4883   -2.6907   20.5522 C.3     1  UNL1        0.0506
     10 N         -12.9202   -1.5652   18.7030 N.ar    1  UNL1       -0.3248
     11 C          -9.5244   -7.7122   18.9325 C.3     1  UNL1        0.0949
     12 C          -9.7028   -6.2425   18.6915 C.2     1  UNL1        0.2266
     13 O          -9.1242   -5.2488   19.6548 O.2     1  UNL1       -0.2748
     14 N         -10.4596   -5.7664   17.4871 N.am    1  UNL1       -0.2839
     15 H         -10.8393   -6.4185   16.8548 H       1  UNL1        0.1549
     16 S         -12.7952   -5.3287   19.6442 S.3     1  UNL1       -0.0857
     17 C         -13.8660   -6.2294   19.1034 C.ar    1  UNL1        0.0295
     18 C         -15.3082   -5.9404   19.3973 C.ar    1  UNL1        0.0073
     19 C         -16.3788   -6.8411   18.8565 C.ar    1  UNL1        0.0119
     20 C         -16.0072   -8.0308   18.0219 C.ar    1  UNL1        0.0577
     21 CL        -17.0779   -8.9315   17.4811 Cl      1  UNL1       -0.0822
     22 C         -14.5650   -8.3198   17.7281 C.ar    1  UNL1        0.0119
     23 C         -13.4944   -7.4191   18.2688 C.ar    1  UNL1        0.0073
     24 C         -13.4231   -0.1551   18.7957 C.3     1  UNL1        0.1475
     25 C         -13.5505    0.6788   17.5553 C.2     1  UNL1        0.0732
     26 O         -12.9845    2.0676   17.5238 O.co2   1  UNL1       -0.5472
     27 O         -14.2438    0.1239   16.3465 O.co2   1  UNL1       -0.5472
@<TRIPOS>UNITY_ATOM_ATTR
26 1
charge -1
@<TRIPOS>BOND
     1    11    12    1
     2    12    13    2
     3    12    14   am
     4    14     1    1
     5     1     2   ar
     6     2     3   ar
     7     3     4   ar
     8     4     5   ar
     9     5     6   ar
    10     6     7   ar
    11     7    16    1
    12    16    17    1
    13    17    18   ar
    14    18    19   ar
    15    19    20   ar
    16    20    21    1
    17    20    22   ar
    18    22    23   ar
    19     7     8   ar
    20     8     9    1
    21     8    10   ar
    22    10    24    1
    23    24    25    1
    24    25    26   ar
    25    25    27   ar
    26     6     1   ar
    27    23    17   ar
    28    10     5   ar
    29    14    15    1
