@<TRIPOS>MOLECULE
*****
 27 30 0 0 0
SMALL
GASTEIGER

@<TRIPOS>ATOM
      1 C          -7.7684  -20.1867   21.7594 C.3     1  UNL1        0.1363
      2 N          -6.3813  -19.6894   21.4787 N.ar    1  UNL1       -0.2667
      3 C          -5.9355  -18.3642   22.0218 C.ar    1  UNL1        0.2036
      4 N          -4.5485  -17.8669   21.7411 N.ar    1  UNL1       -0.2133
      5 C          -3.6073  -18.6947   20.9172 C.ar    1  UNL1        0.1065
      6 C          -4.0532  -20.0198   20.3740 C.ar    1  UNL1        0.0815
      7 C          -5.4402  -20.5172   20.6547 C.ar    1  UNL1        0.2646
      8 O          -5.8860  -21.8424   20.1115 O.2     1  UNL1       -0.2668
      9 N          -6.8767  -17.5363   22.8458 N.pl3   1  UNL1       -0.2740
     10 C          -6.3573  -16.3688   23.6313 C.3     1  UNL1        0.1257
     11 C          -7.2985  -15.5409   24.4553 C.3     1  UNL1        0.1640
     12 O          -8.7590  -15.8806   24.4937 O.3     1  UNL1       -0.3483
     13 C          -9.2783  -17.0482   23.7081 C.3     1  UNL1        0.1572
     14 C          -8.3372  -17.8760   22.8842 C.3     1  UNL1        0.1276
     15 C         -10.7389  -17.3879   23.7465 C.ar    1  UNL1        0.0064
     16 C         -11.7073  -16.6334   22.8846 C.ar    1  UNL1        0.0004
     17 C         -13.1678  -16.9731   22.9230 C.ar    1  UNL1        0.0294
     18 C         -13.6599  -18.0673   23.8233 C.ar    1  UNL1        0.1401
     19 F         -15.1204  -18.4070   23.8617 F       1  UNL1       -0.2042
     20 C         -12.6915  -18.8218   24.6852 C.ar    1  UNL1        0.0294
     21 C         -11.2310  -18.4821   24.6468 C.ar    1  UNL1        0.0004
     22 C          -2.2203  -18.1973   20.6364 C.ar    1  UNL1        0.1024
     23 C          -1.8622  -16.7700   20.9269 C.ar    1  UNL1        0.0414
     24 C          -0.4752  -16.2726   20.6462 C.ar    1  UNL1        0.1023
     25 N           0.5537  -17.2026   20.0749 N.ar    1  UNL1       -0.2224
     26 C           0.1957  -18.6300   19.7844 C.ar    1  UNL1        0.1989
     27 N          -1.1914  -19.1273   20.0652 N.ar    1  UNL1       -0.2224
@<TRIPOS>BOND
     1     1     2    1
     2     2     3   ar
     3     3     9    1
     4     9    10    1
     5    10    11    1
     6    11    12    1
     7    12    13    1
     8    13    15    1
     9    15    16   ar
    10    16    17   ar
    11    17    18   ar
    12    18    19    1
    13    18    20   ar
    14    20    21   ar
    15    13    14    1
    16     3     4   ar
    17     4     5   ar
    18     5    22    1
    19    22    23   ar
    20    23    24   ar
    21    24    25   ar
    22    25    26   ar
    23    26    27   ar
    24     5     6   ar
    25     6     7   ar
    26     7     8    2
    27     7     2   ar
    28    14     9    1
    29    27    22   ar
    30    21    15   ar
@<TRIPOS>MOLECULE
*****
 27 30 0 0 0
SMALL
GASTEIGER

@<TRIPOS>ATOM
      1 C           8.3078   -2.7642   19.8240 C.3     1  UNL1        0.1363
      2 N           6.9373   -2.1569   19.7712 N.ar    1  UNL1       -0.2667
      3 C           6.2360   -1.7766   21.0414 C.ar    1  UNL1        0.2036
      4 N           4.8654   -1.1694   20.9886 N.ar    1  UNL1       -0.2133
      5 C           4.1961   -0.9424   19.6656 C.ar    1  UNL1        0.1065
      6 C           4.8974   -1.3227   18.3953 C.ar    1  UNL1        0.0815
      7 C           6.2680   -1.9299   18.4482 C.ar    1  UNL1        0.2646
      8 O           6.9693   -2.3102   17.1778 O.2     1  UNL1       -0.2668
      9 N           6.9052   -2.0036   22.3646 N.pl3   1  UNL1       -0.2740
     10 C           7.6264   -0.8770   23.0433 C.3     1  UNL1        0.1257
     11 C           8.2957   -1.1040   24.3665 C.3     1  UNL1        0.1640
     12 O           8.2437   -2.4575   25.0108 O.3     1  UNL1       -0.3483
     13 C           7.5225   -3.5841   24.3320 C.3     1  UNL1        0.1572
     14 C           6.8533   -3.3571   23.0089 C.3     1  UNL1        0.1276
     15 C           7.4705   -4.9377   24.9764 C.ar    1  UNL1        0.0064
     16 C           8.0725   -6.1228   24.2813 C.ar    1  UNL1        0.0004
     17 C           8.0206   -7.4764   24.9256 C.ar    1  UNL1        0.0294
     18 C           7.3666   -7.6448   26.2651 C.ar    1  UNL1        0.1401
     19 F           7.3147   -8.9984   26.9094 F       1  UNL1       -0.2042
     20 C           6.7647   -6.4597   26.9601 C.ar    1  UNL1        0.0294
     21 C           6.8166   -5.1061   26.3157 C.ar    1  UNL1        0.0004
     22 C           2.8256   -0.3351   19.6127 C.ar    1  UNL1        0.1024
     23 C           1.8538   -0.5787   20.7291 C.ar    1  UNL1        0.0414
     24 C           0.4832    0.0285   20.6762 C.ar    1  UNL1        0.1023
     25 N           0.0844    0.8794   19.5071 N.ar    1  UNL1       -0.2224
     26 C           1.0562    1.1229   18.3907 C.ar    1  UNL1        0.1989
     27 N           2.4268    0.5157   18.4436 N.ar    1  UNL1       -0.2224
@<TRIPOS>BOND
     1     1     2    1
     2     2     3   ar
     3     3     9    1
     4     9    10    1
     5    10    11    1
     6    11    12    1
     7    12    13    1
     8    13    15    1
     9    15    16   ar
    10    16    17   ar
    11    17    18   ar
    12    18    19    1
    13    18    20   ar
    14    20    21   ar
    15    13    14    1
    16     3     4   ar
    17     4     5   ar
    18     5    22    1
    19    22    23   ar
    20    23    24   ar
    21    24    25   ar
    22    25    26   ar
    23    26    27   ar
    24     5     6   ar
    25     6     7   ar
    26     7     8    2
    27     7     2   ar
    28    14     9    1
    29    27    22   ar
    30    21    15   ar
@<TRIPOS>MOLECULE
*****
 27 30 0 0 0
SMALL
GASTEIGER

@<TRIPOS>ATOM
      1 C          -1.4533    3.9931   16.1681 C.3     1  UNL1        0.1363
      2 N          -2.0879    3.9477   17.5265 N.ar    1  UNL1       -0.2667
      3 C          -1.2495    3.6612   18.7368 C.ar    1  UNL1        0.2036
      4 N          -1.8841    3.6159   20.0952 N.ar    1  UNL1       -0.2133
      5 C          -3.3571    3.8571   20.2433 C.ar    1  UNL1        0.1065
      6 C          -4.1955    4.1436   19.0330 C.ar    1  UNL1        0.0815
      7 C          -3.5609    4.1889   17.6746 C.ar    1  UNL1        0.2646
      8 O          -4.3994    4.4755   16.4642 O.2     1  UNL1       -0.2668
      9 N           0.2236    3.4200   18.5888 N.pl3   1  UNL1       -0.2740
     10 C           1.1535    4.5747   18.3610 C.3     1  UNL1        0.1257
     11 C           2.6267    4.3335   18.2130 C.3     1  UNL1        0.1640
     12 O           3.1698    2.9375   18.2928 O.3     1  UNL1       -0.3483
     13 C           2.2398    1.7828   18.5206 C.3     1  UNL1        0.1572
     14 C           0.7668    2.0240   18.6686 C.3     1  UNL1        0.1276
     15 C           2.7829    0.3868   18.6003 C.ar    1  UNL1        0.0064
     16 C           2.4199   -0.4941   19.7589 C.ar    1  UNL1        0.0004
     17 C           2.9630   -1.8901   19.8386 C.ar    1  UNL1        0.0294
     18 C           3.8691   -2.4050   18.7598 C.ar    1  UNL1        0.1401
     19 F           4.4123   -3.8010   18.8396 F       1  UNL1       -0.2042
     20 C           4.2321   -1.5241   17.6014 C.ar    1  UNL1        0.0294
     21 C           3.6890   -0.1282   17.5216 C.ar    1  UNL1        0.0004
     22 C          -3.9917    3.8117   21.6017 C.ar    1  UNL1        0.1024
     23 C          -5.4752    3.9832   21.7425 C.ar    1  UNL1        0.0414
     24 C          -6.1098    3.9379   23.1009 C.ar    1  UNL1        0.1023
     25 N          -5.2609    3.7211   24.3185 N.ar    1  UNL1       -0.2224
     26 C          -3.7775    3.5496   24.1776 C.ar    1  UNL1        0.1989
     27 N          -3.1429    3.5949   22.8192 N.ar    1  UNL1       -0.2224
@<TRIPOS>BOND
     1     1     2    1
     2     2     3   ar
     3     3     9    1
     4     9    10    1
     5    10    11    1
     6    11    12    1
     7    12    13    1
     8    13    15    1
     9    15    16   ar
    10    16    17   ar
    11    17    18   ar
    12    18    19    1
    13    18    20   ar
    14    20    21   ar
    15    13    14    1
    16     3     4   ar
    17     4     5   ar
    18     5    22    1
    19    22    23   ar
    20    23    24   ar
    21    24    25   ar
    22    25    26   ar
    23    26    27   ar
    24     5     6   ar
    25     6     7   ar
    26     7     8    2
    27     7     2   ar
    28    14     9    1
    29    27    22   ar
    30    21    15   ar
@<TRIPOS>MOLECULE
*****
 27 30 0 0 0
SMALL
GASTEIGER

@<TRIPOS>ATOM
      1 C           0.2780    6.0608   18.1445 C.3     1  UNL1        0.1363
      2 N           0.8547    4.6809   18.2598 N.ar    1  UNL1       -0.2667
      3 C          -0.0498    3.4848   18.2264 C.ar    1  UNL1        0.2036
      4 N           0.5270    2.1049   18.3416 N.ar    1  UNL1       -0.2133
      5 C           2.0082    1.9211   18.4903 C.ar    1  UNL1        0.1065
      6 C           2.9127    3.1172   18.5237 C.ar    1  UNL1        0.0815
      7 C           2.3359    4.4971   18.4084 C.ar    1  UNL1        0.2646
      8 O           3.2405    5.6932   18.4418 O.2     1  UNL1       -0.2668
      9 N          -1.5311    3.6685   18.0777 N.pl3   1  UNL1       -0.2740
     10 C          -2.1381    3.7925   16.7117 C.3     1  UNL1        0.1257
     11 C          -3.6194    3.9762   16.5630 C.3     1  UNL1        0.1640
     12 O          -4.4936    4.0360   17.7805 O.3     1  UNL1       -0.3483
     13 C          -3.8865    3.9120   19.1466 C.3     1  UNL1        0.1572
     14 C          -2.4053    3.7282   19.2952 C.3     1  UNL1        0.1276
     15 C          -4.7608    3.9717   20.3640 C.ar    1  UNL1        0.0064
     16 C          -6.0477    4.7415   20.3262 C.ar    1  UNL1        0.0004
     17 C          -6.9219    4.8012   21.5437 C.ar    1  UNL1        0.0294
     18 C          -6.5092    4.0912   22.7989 C.ar    1  UNL1        0.1401
     19 F          -7.3834    4.1510   24.0164 F       1  UNL1       -0.2042
     20 C          -5.2223    3.3215   22.8367 C.ar    1  UNL1        0.0294
     21 C          -4.3481    3.2617   21.6192 C.ar    1  UNL1        0.0004
     22 C           2.5849    0.5412   18.6055 C.ar    1  UNL1        0.1024
     23 C           2.2383   -0.3205   19.7833 C.ar    1  UNL1        0.0414
     24 C           2.8151   -1.7004   19.8986 C.ar    1  UNL1        0.1023
     25 N           3.7384   -2.2186   18.8361 N.ar    1  UNL1       -0.2224
     26 C           4.0850   -1.3568   17.6583 C.ar    1  UNL1        0.1989
     27 N           3.5082    0.0231   17.5430 N.ar    1  UNL1       -0.2224
@<TRIPOS>BOND
     1     1     2    1
     2     2     3   ar
     3     3     9    1
     4     9    10    1
     5    10    11    1
     6    11    12    1
     7    12    13    1
     8    13    15    1
     9    15    16   ar
    10    16    17   ar
    11    17    18   ar
    12    18    19    1
    13    18    20   ar
    14    20    21   ar
    15    13    14    1
    16     3     4   ar
    17     4     5   ar
    18     5    22    1
    19    22    23   ar
    20    23    24   ar
    21    24    25   ar
    22    25    26   ar
    23    26    27   ar
    24     5     6   ar
    25     6     7   ar
    26     7     8    2
    27     7     2   ar
    28    14     9    1
    29    27    22   ar
    30    21    15   ar
@<TRIPOS>MOLECULE
*****
 27 30 0 0 0
SMALL
GASTEIGER

@<TRIPOS>ATOM
      1 C           8.0906   -7.3201   24.2056 C.3     1  UNL1        0.1363
      2 N           7.7844   -6.5880   25.4785 N.ar    1  UNL1       -0.2667
      3 C           7.5136   -5.1130   25.4489 C.ar    1  UNL1        0.2036
      4 N           7.2074   -4.3809   26.7218 N.ar    1  UNL1       -0.2133
      5 C           7.1719   -5.1239   28.0243 C.ar    1  UNL1        0.1065
      6 C           7.4427   -6.5989   28.0540 C.ar    1  UNL1        0.0815
      7 C           7.7489   -7.3310   26.7811 C.ar    1  UNL1        0.2646
      8 O           8.0197   -8.8061   26.8108 O.2     1  UNL1       -0.2668
      9 N           7.5491   -4.3699   24.1463 N.pl3   1  UNL1       -0.2740
     10 C           8.8541   -4.1625   23.4364 C.3     1  UNL1        0.1257
     11 C           8.8895   -3.4194   22.1338 C.3     1  UNL1        0.1640
     12 O           7.6199   -2.8838   21.5412 O.3     1  UNL1       -0.3483
     13 C           6.3149   -3.0913   22.2511 C.3     1  UNL1        0.1572
     14 C           6.2795   -3.8343   23.5536 C.3     1  UNL1        0.1276
     15 C           5.0453   -2.5557   21.6584 C.ar    1  UNL1        0.0064
     16 C           4.6672   -2.9094   20.2505 C.ar    1  UNL1        0.0004
     17 C           3.3976   -2.3738   19.6579 C.ar    1  UNL1        0.0294
     18 C           2.5061   -1.4845   20.4730 C.ar    1  UNL1        0.1401
     19 F           1.2365   -0.9489   19.8803 F       1  UNL1       -0.2042
     20 C           2.8843   -1.1308   21.8808 C.ar    1  UNL1        0.0294
     21 C           4.1539   -1.6664   22.4735 C.ar    1  UNL1        0.0004
     22 C           6.8656   -4.3918   29.2973 C.ar    1  UNL1        0.1024
     23 C           7.0217   -5.0859   30.6178 C.ar    1  UNL1        0.0414
     24 C           6.7154   -4.3539   31.8907 C.ar    1  UNL1        0.1023
     25 N           6.2531   -2.9277   31.8431 N.ar    1  UNL1       -0.2224
     26 C           6.0971   -2.2336   30.5226 C.ar    1  UNL1        0.1989
     27 N           6.4033   -2.9657   29.2497 N.ar    1  UNL1       -0.2224
@<TRIPOS>BOND
     1     1     2    1
     2     2     3   ar
     3     3     9    1
     4     9    10    1
     5    10    11    1
     6    11    12    1
     7    12    13    1
     8    13    15    1
     9    15    16   ar
    10    16    17   ar
    11    17    18   ar
    12    18    19    1
    13    18    20   ar
    14    20    21   ar
    15    13    14    1
    16     3     4   ar
    17     4     5   ar
    18     5    22    1
    19    22    23   ar
    20    23    24   ar
    21    24    25   ar
    22    25    26   ar
    23    26    27   ar
    24     5     6   ar
    25     6     7   ar
    26     7     8    2
    27     7     2   ar
    28    14     9    1
    29    27    22   ar
    30    21    15   ar
@<TRIPOS>MOLECULE
*****
 27 30 0 0 0
SMALL
GASTEIGER

@<TRIPOS>ATOM
      1 C           2.7394    2.4286   23.1549 C.3     1  UNL1        0.1363
      2 N           1.4141    2.6513   22.4887 N.ar    1  UNL1       -0.2667
      3 C           1.2651    2.4098   21.0158 C.ar    1  UNL1        0.2036
      4 N          -0.0603    2.6325   20.3495 N.ar    1  UNL1       -0.2133
      5 C          -1.2366    3.0967   21.1562 C.ar    1  UNL1        0.1065
      6 C          -1.0876    3.3381   22.6291 C.ar    1  UNL1        0.0815
      7 C           0.2377    3.1154   23.2953 C.ar    1  UNL1        0.2646
      8 O           0.3867    3.3569   24.7683 O.2     1  UNL1       -0.2668
      9 N           2.4415    1.9457   20.2090 N.pl3   1  UNL1       -0.2740
     10 C           3.3587    2.9489   19.5748 C.3     1  UNL1        0.1257
     11 C           4.5351    2.4847   18.7681 C.3     1  UNL1        0.1640
     12 O           4.7942    1.0173   18.5956 O.3     1  UNL1       -0.3483
     13 C           3.8769    0.0142   19.2299 C.3     1  UNL1        0.1572
     14 C           2.7006    0.4783   20.0366 C.3     1  UNL1        0.1276
     15 C           4.1360   -1.4532   19.0574 C.ar    1  UNL1        0.0064
     16 C           3.1384   -2.4550   19.5590 C.ar    1  UNL1        0.0004
     17 C           3.3975   -3.9223   19.3866 C.ar    1  UNL1        0.0294
     18 C           4.6541   -4.3879   18.7125 C.ar    1  UNL1        0.1401
     19 F           4.9132   -5.8553   18.5401 F       1  UNL1       -0.2042
     20 C           5.6516   -3.3862   18.2110 C.ar    1  UNL1        0.0294
     21 C           5.3925   -1.9188   18.3835 C.ar    1  UNL1        0.0004
     22 C          -2.5619    3.3194   20.4899 C.ar    1  UNL1        0.1024
     23 C          -2.6171    3.8566   19.0905 C.ar    1  UNL1        0.0414
     24 C          -3.9424    4.0792   18.4243 C.ar    1  UNL1        0.1023
     25 N          -5.2126    3.7647   19.1574 N.ar    1  UNL1       -0.2224
     26 C          -5.1575    3.2275   20.5568 C.ar    1  UNL1        0.1989
     27 N          -3.8322    3.0049   21.2231 N.ar    1  UNL1       -0.2224
@<TRIPOS>BOND
     1     1     2    1
     2     2     3   ar
     3     3     9    1
     4     9    10    1
     5    10    11    1
     6    11    12    1
     7    12    13    1
     8    13    15    1
     9    15    16   ar
    10    16    17   ar
    11    17    18   ar
    12    18    19    1
    13    18    20   ar
    14    20    21   ar
    15    13    14    1
    16     3     4   ar
    17     4     5   ar
    18     5    22    1
    19    22    23   ar
    20    23    24   ar
    21    24    25   ar
    22    25    26   ar
    23    26    27   ar
    24     5     6   ar
    25     6     7   ar
    26     7     8    2
    27     7     2   ar
    28    14     9    1
    29    27    22   ar
    30    21    15   ar
@<TRIPOS>MOLECULE
*****
 27 30 0 0 0
SMALL
GASTEIGER

@<TRIPOS>ATOM
      1 C          -4.2066    3.9567   18.2901 C.3     1  UNL1        0.1363
      2 N          -4.3142    4.0949   19.7798 N.ar    1  UNL1       -0.2667
      3 C          -3.0725    4.1855   20.6163 C.ar    1  UNL1        0.2036
      4 N          -3.1801    4.3237   22.1060 N.ar    1  UNL1       -0.2133
      5 C          -4.5295    4.3712   22.7593 C.ar    1  UNL1        0.1065
      6 C          -5.7713    4.2806   21.9228 C.ar    1  UNL1        0.0815
      7 C          -5.6636    4.1424   20.4331 C.ar    1  UNL1        0.2646
      8 O          -6.9055    4.0518   19.5966 O.2     1  UNL1       -0.2668
      9 N          -1.7230    4.1380   19.9630 N.pl3   1  UNL1       -0.2740
     10 C          -1.1607    5.3673   19.3130 C.3     1  UNL1        0.1257
     11 C           0.1888    5.3198   18.6597 C.3     1  UNL1        0.1640
     12 O           0.9760    4.0429   18.6565 O.3     1  UNL1       -0.3483
     13 C           0.4136    2.8136   19.3067 C.3     1  UNL1        0.1572
     14 C          -0.9358    2.8611   19.9599 C.3     1  UNL1        0.1276
     15 C           1.2008    1.5367   19.3035 C.ar    1  UNL1        0.0064
     16 C           2.4598    1.4338   18.4946 C.ar    1  UNL1        0.0004
     17 C           3.2470    0.1569   18.4914 C.ar    1  UNL1        0.0294
     18 C           2.7751   -1.0170   19.2972 C.ar    1  UNL1        0.1401
     19 F           3.5622   -2.2939   19.2941 F       1  UNL1       -0.2042
     20 C           1.5161   -0.9141   20.1061 C.ar    1  UNL1        0.0294
     21 C           0.7289    0.3628   20.1093 C.ar    1  UNL1        0.0004
     22 C          -4.6371    4.5094   24.2491 C.ar    1  UNL1        0.1024
     23 C          -3.6445    3.8227   25.1396 C.ar    1  UNL1        0.0414
     24 C          -3.7521    3.9609   26.6293 C.ar    1  UNL1        0.1023
     25 N          -4.8523    4.7857   27.2285 N.ar    1  UNL1       -0.2224
     26 C          -5.8450    5.4723   26.3380 C.ar    1  UNL1        0.1989
     27 N          -5.7374    5.3341   24.8482 N.ar    1  UNL1       -0.2224
@<TRIPOS>BOND
     1     1     2    1
     2     2     3   ar
     3     3     9    1
     4     9    10    1
     5    10    11    1
     6    11    12    1
     7    12    13    1
     8    13    15    1
     9    15    16   ar
    10    16    17   ar
    11    17    18   ar
    12    18    19    1
    13    18    20   ar
    14    20    21   ar
    15    13    14    1
    16     3     4   ar
    17     4     5   ar
    18     5    22    1
    19    22    23   ar
    20    23    24   ar
    21    24    25   ar
    22    25    26   ar
    23    26    27   ar
    24     5     6   ar
    25     6     7   ar
    26     7     8    2
    27     7     2   ar
    28    14     9    1
    29    27    22   ar
    30    21    15   ar
@<TRIPOS>MOLECULE
*****
 27 30 0 0 0
SMALL
GASTEIGER

@<TRIPOS>ATOM
      1 C          -0.2208    1.7009   25.0147 C.3     1  UNL1        0.1363
      2 N           0.6302    1.1704   26.1302 N.ar    1  UNL1       -0.2667
      3 C           2.0365    0.7271   25.8550 C.ar    1  UNL1        0.2036
      4 N           2.8875    0.1965   26.9705 N.ar    1  UNL1       -0.2133
      5 C           2.3321    0.1093   28.3612 C.ar    1  UNL1        0.1065
      6 C           0.9258    0.5526   28.6363 C.ar    1  UNL1        0.0815
      7 C           0.0749    1.0831   27.5208 C.ar    1  UNL1        0.2646
      8 O          -1.3315    1.5264   27.7960 O.2     1  UNL1       -0.2668
      9 N           2.5919    0.8143   24.4643 N.pl3   1  UNL1       -0.2740
     10 C           2.9070    2.1528   23.8652 C.3     1  UNL1        0.1257
     11 C           3.4624    2.2401   22.4745 C.3     1  UNL1        0.1640
     12 O           3.7026    0.9888   21.6830 O.3     1  UNL1       -0.3483
     13 C           3.3875   -0.3498   22.2822 C.3     1  UNL1        0.1572
     14 C           2.8321   -0.4370   23.6728 C.3     1  UNL1        0.1276
     15 C           3.6277   -1.6011   21.4907 C.ar    1  UNL1        0.0064
     16 C           4.2812   -2.7852   22.1396 C.ar    1  UNL1        0.0004
     17 C           4.5215   -4.0365   21.3481 C.ar    1  UNL1        0.0294
     18 C           4.1082   -4.1038   19.9077 C.ar    1  UNL1        0.1401
     19 F           4.3484   -5.3551   19.1162 F       1  UNL1       -0.2042
     20 C           3.4547   -2.9198   19.2588 C.ar    1  UNL1        0.0294
     21 C           3.2145   -1.6685   20.0503 C.ar    1  UNL1        0.0004
     22 C           3.1831   -0.4212   29.4767 C.ar    1  UNL1        0.1024
     23 C           4.5889   -0.8660   29.2012 C.ar    1  UNL1        0.0414
     24 C           5.4399   -1.3965   30.3168 C.ar    1  UNL1        0.1023
     25 N           4.8851   -1.4823   31.7077 N.ar    1  UNL1       -0.2224
     26 C           3.4793   -1.0376   31.9831 C.ar    1  UNL1        0.1989
     27 N           2.6283   -0.5071   30.8676 N.ar    1  UNL1       -0.2224
@<TRIPOS>BOND
     1     1     2    1
     2     2     3   ar
     3     3     9    1
     4     9    10    1
     5    10    11    1
     6    11    12    1
     7    12    13    1
     8    13    15    1
     9    15    16   ar
    10    16    17   ar
    11    17    18   ar
    12    18    19    1
    13    18    20   ar
    14    20    21   ar
    15    13    14    1
    16     3     4   ar
    17     4     5   ar
    18     5    22    1
    19    22    23   ar
    20    23    24   ar
    21    24    25   ar
    22    25    26   ar
    23    26    27   ar
    24     5     6   ar
    25     6     7   ar
    26     7     8    2
    27     7     2   ar
    28    14     9    1
    29    27    22   ar
    30    21    15   ar
@<TRIPOS>MOLECULE
*****
 27 30 0 0 0
SMALL
GASTEIGER

@<TRIPOS>ATOM
      1 C          -7.7203  -16.3406   24.1343 C.3     1  UNL1        0.1363
      2 N          -6.4438  -16.7266   23.4475 N.ar    1  UNL1       -0.2667
      3 C          -6.4738  -17.6784   22.2887 C.ar    1  UNL1        0.2036
      4 N          -5.1973  -18.0644   21.6019 N.ar    1  UNL1       -0.2133
      5 C          -3.8909  -17.4984   22.0740 C.ar    1  UNL1        0.1065
      6 C          -3.8609  -16.5465   23.2328 C.ar    1  UNL1        0.0815
      7 C          -5.1374  -16.1606   23.9196 C.ar    1  UNL1        0.2646
      8 O          -5.1074  -15.2087   25.0785 O.2     1  UNL1       -0.2668
      9 N          -7.7803  -18.2444   21.8165 N.pl3   1  UNL1       -0.2740
     10 C          -7.8655  -18.9210   20.4805 C.3     1  UNL1        0.1257
     11 C          -9.1719  -19.4870   20.0084 C.3     1  UNL1        0.1640
     12 O         -10.3932  -19.3764   20.8723 O.3     1  UNL1       -0.3483
     13 C         -10.3079  -18.6998   22.2084 C.3     1  UNL1        0.1572
     14 C          -9.0015  -18.1338   22.6805 C.3     1  UNL1        0.1276
     15 C         -11.5291  -18.5892   23.0723 C.ar    1  UNL1        0.0064
     16 C         -12.7961  -18.0156   22.5102 C.ar    1  UNL1        0.0004
     17 C         -14.0173  -17.9050   23.3741 C.ar    1  UNL1        0.0294
     18 C         -13.9716  -18.3680   24.8002 C.ar    1  UNL1        0.1401
     19 F         -15.1928  -18.2574   25.6642 F       1  UNL1       -0.2042
     20 C         -12.7047  -18.9415   25.3623 C.ar    1  UNL1        0.0294
     21 C         -11.4835  -19.0521   24.4984 C.ar    1  UNL1        0.0004
     22 C          -2.6144  -17.8843   21.3872 C.ar    1  UNL1        0.1024
     23 C          -2.3209  -19.3282   21.1060 C.ar    1  UNL1        0.0414
     24 C          -1.0444  -19.7141   20.4193 C.ar    1  UNL1        0.1023
     25 N          -0.0614  -18.6562   20.0136 N.ar    1  UNL1       -0.2224
     26 C          -0.3550  -17.2124   20.2948 C.ar    1  UNL1        0.1989
     27 N          -1.6315  -16.8264   20.9816 N.ar    1  UNL1       -0.2224
@<TRIPOS>BOND
     1     1     2    1
     2     2     3   ar
     3     3     9    1
     4     9    10    1
     5    10    11    1
     6    11    12    1
     7    12    13    1
     8    13    15    1
     9    15    16   ar
    10    16    17   ar
    11    17    18   ar
    12    18    19    1
    13    18    20   ar
    14    20    21   ar
    15    13    14    1
    16     3     4   ar
    17     4     5   ar
    18     5    22    1
    19    22    23   ar
    20    23    24   ar
    21    24    25   ar
    22    25    26   ar
    23    26    27   ar
    24     5     6   ar
    25     6     7   ar
    26     7     8    2
    27     7     2   ar
    28    14     9    1
    29    27    22   ar
    30    21    15   ar
