@<TRIPOS>MOLECULE
*****
 27 30 0 0 0
SMALL
GASTEIGER

@<TRIPOS>ATOM
      1 C          -4.5599  -17.6699   22.6478 C.ar    1  UNL1        0.2454
      2 N          -3.2844  -16.8912   22.5188 N.ar    1  UNL1       -0.1778
      3 C          -2.2751  -17.2725   21.4768 C.ar    1  UNL1        0.2163
      4 N          -0.9995  -16.4937   21.3478 N.pl3   1  UNL1       -0.3274
      5 N          -2.5412  -18.4325   20.5637 N.ar    1  UNL1       -0.2123
      6 C          -3.8168  -19.2111   20.6928 C.ar    1  UNL1        0.1060
      7 C          -4.3514  -20.3935   19.9403 C.ar    1  UNL1        0.0395
      8 C          -5.6911  -20.7429   20.5172 C.ar    1  UNL1        0.0779
      9 N          -5.9846  -19.7766   21.6263 N.ar    1  UNL1       -0.3154
     10 C          -4.8261  -18.8299   21.7348 C.ar    1  UNL1        0.1322
     11 H          -0.8248  -15.7324   21.9471 H       1  UNL1        0.1452
     12 H          -0.3370  -16.7440   20.6639 H       1  UNL1        0.1452
     13 O          -5.5693  -17.2886   23.6899 O.3     1  UNL1       -0.4524
     14 C          -6.3330  -16.0042   23.5598 C.3     1  UNL1        0.2559
     15 C         -11.5456  -16.4766   22.8624 C.3     1  UNL1        0.0754
     16 C         -10.0899  -16.2186   22.6085 C.ar    1  UNL1        0.1546
     17 C          -8.9820  -16.3580   23.6101 C.ar    1  UNL1        0.0573
     18 C          -7.6940  -16.0015   22.9291 C.ar    1  UNL1        0.1440
     19 N          -8.0058  -15.6418   21.5066 N.ar    1  UNL1       -0.0780
     20 O          -9.4866  -15.7760   21.3086 O.2     1  UNL1       -0.3580
     21 C          -7.2196  -19.7599   22.4775 C.3     1  UNL1        0.1520
     22 C          -8.5689  -19.6140   21.8386 C.ar    1  UNL1        0.0818
     23 C          -9.7978  -20.0665   22.5699 C.ar    1  UNL1        0.0167
     24 C         -11.1471  -19.9207   21.9311 C.ar    1  UNL1        0.0029
     25 C         -11.2673  -19.3223   20.5608 C.ar    1  UNL1        0.0207
     26 C         -10.0384  -18.8697   19.8295 C.ar    1  UNL1        0.0985
     27 N          -8.6892  -19.0156   20.4684 N.ar    1  UNL1       -0.2462
@<TRIPOS>BOND
     1    15    16    1
     2    16    17   ar
     3    17    18   ar
     4    18    14    1
     5    14    13    1
     6    13     1    1
     7     1     2   ar
     8     2     3   ar
     9     3     4    1
    10     3     5   ar
    11     5     6   ar
    12     6     7   ar
    13     7     8   ar
    14     8     9   ar
    15     9    21    1
    16    21    22    1
    17    22    23   ar
    18    23    24   ar
    19    24    25   ar
    20    25    26   ar
    21    26    27   ar
    22     9    10   ar
    23    18    19   ar
    24    19    20   ar
    25    20    16   ar
    26    10     1   ar
    27    10     6   ar
    28    27    22   ar
    29     4    11    1
    30     4    12    1
@<TRIPOS>MOLECULE
*****
 27 30 0 0 0
SMALL
GASTEIGER

@<TRIPOS>ATOM
      1 C          -3.4566  -17.7532   22.4470 C.ar    1  UNL1        0.2454
      2 N          -2.0441  -17.3518   22.1409 N.ar    1  UNL1       -0.1778
      3 C          -1.3477  -17.9168   20.9386 C.ar    1  UNL1        0.2163
      4 N           0.0649  -17.5153   20.6325 N.pl3   1  UNL1       -0.3274
      5 N          -2.0638  -18.8832   20.0422 N.ar    1  UNL1       -0.2123
      6 C          -3.4763  -19.2846   20.3483 C.ar    1  UNL1        0.1060
      7 C          -4.4298  -20.2102   19.6526 C.ar    1  UNL1        0.0395
      8 C          -5.7156  -20.2173   20.4251 C.ar    1  UNL1        0.0779
      9 N          -5.5567  -19.2960   21.5982 N.ar    1  UNL1       -0.3154
     10 C          -4.1727  -18.7196   21.5507 C.ar    1  UNL1        0.1322
     11 H           0.5348  -16.8811   21.2207 H       1  UNL1        0.1452
     12 H           0.5219  -17.8861   19.8433 H       1  UNL1        0.1452
     13 O          -4.1531  -17.1883   23.6494 O.3     1  UNL1       -0.4524
     14 C          -4.8328  -15.8538   23.5644 C.3     1  UNL1        0.2559
     15 C          -8.3332  -15.2393   27.4696 C.3     1  UNL1        0.0754
     16 C          -7.7228  -15.3335   26.1026 C.ar    1  UNL1        0.1546
     17 C          -6.2805  -15.6113   25.7983 C.ar    1  UNL1        0.0573
     18 C          -6.1139  -15.6160   24.3077 C.ar    1  UNL1        0.1440
     19 N          -7.4531  -15.3411   23.6906 N.ar    1  UNL1       -0.0780
     20 O          -8.4475  -15.1665   24.8000 O.2     1  UNL1       -0.3580
     21 C          -6.5988  -19.0028   22.6364 C.3     1  UNL1        0.1520
     22 C          -8.0540  -19.0719   22.2789 C.ar    1  UNL1        0.0818
     23 C          -8.9767  -19.9597   23.0601 C.ar    1  UNL1        0.0167
     24 C         -10.4319  -20.0289   22.7027 C.ar    1  UNL1        0.0029
     25 C         -10.9642  -19.2102   21.5640 C.ar    1  UNL1        0.0207
     26 C         -10.0414  -18.3225   20.7829 C.ar    1  UNL1        0.0985
     27 N          -8.5863  -18.2533   21.1403 N.ar    1  UNL1       -0.2462
@<TRIPOS>BOND
     1    15    16    1
     2    16    17   ar
     3    17    18   ar
     4    18    14    1
     5    14    13    1
     6    13     1    1
     7     1     2   ar
     8     2     3   ar
     9     3     4    1
    10     3     5   ar
    11     5     6   ar
    12     6     7   ar
    13     7     8   ar
    14     8     9   ar
    15     9    21    1
    16    21    22    1
    17    22    23   ar
    18    23    24   ar
    19    24    25   ar
    20    25    26   ar
    21    26    27   ar
    22     9    10   ar
    23    18    19   ar
    24    19    20   ar
    25    20    16   ar
    26    10     1   ar
    27    10     6   ar
    28    27    22   ar
    29     4    11    1
    30     4    12    1
@<TRIPOS>MOLECULE
*****
 27 30 0 0 0
SMALL
GASTEIGER

@<TRIPOS>ATOM
      1 C          -9.2803  -18.0520   20.5383 C.ar    1  UNL1        0.2454
      2 N          -9.6391  -18.9750   19.4117 N.ar    1  UNL1       -0.1778
      3 C          -8.7107  -20.0897   19.0306 C.ar    1  UNL1        0.2163
      4 N          -9.0697  -21.0127   17.9039 N.pl3   1  UNL1       -0.3274
      5 N          -7.4233  -20.2815   19.7762 N.ar    1  UNL1       -0.2123
      6 C          -7.0644  -19.3586   20.9028 C.ar    1  UNL1        0.1060
      7 C          -5.8735  -19.3016   21.8130 C.ar    1  UNL1        0.0395
      8 C          -6.0660  -18.1516   22.7567 C.ar    1  UNL1        0.0779
      9 N          -7.3758  -17.4978   22.4296 N.ar    1  UNL1       -0.3154
     10 C          -7.9929  -18.2438   21.2839 C.ar    1  UNL1        0.1322
     11 H          -9.9146  -20.8868   17.4146 H       1  UNL1        0.1452
     12 H          -8.4603  -21.7444   17.6538 H       1  UNL1        0.1452
     13 O         -10.2087  -16.9372   20.9194 O.3     1  UNL1       -0.4524
     14 C         -11.6415  -17.2342   21.2495 C.3     1  UNL1        0.2559
     15 C         -14.3950  -18.5021   25.5729 C.3     1  UNL1        0.0754
     16 C         -13.2702  -18.3451   24.5930 C.ar    1  UNL1        0.1546
     17 C         -13.3618  -17.7007   23.2415 C.ar    1  UNL1        0.0573
     18 C         -12.0046  -17.7623   22.6058 C.ar    1  UNL1        0.1440
     19 N         -11.0743  -18.4447   23.5642 N.ar    1  UNL1       -0.0780
     20 O         -11.8565  -18.8049   24.7924 O.2     1  UNL1       -0.3580
     21 C          -7.9651  -16.3072   23.1261 C.3     1  UNL1        0.1520
     22 C          -7.5758  -15.9973   24.5412 C.ar    1  UNL1        0.0818
     23 C          -8.5560  -16.2196   25.6545 C.ar    1  UNL1        0.0167
     24 C          -8.1668  -15.9098   27.0696 C.ar    1  UNL1        0.0029
     25 C          -6.7971  -15.3777   27.3713 C.ar    1  UNL1        0.0207
     26 C          -5.8168  -15.1555   26.2579 C.ar    1  UNL1        0.0985
     27 N          -6.2061  -15.4653   24.8429 N.ar    1  UNL1       -0.2462
@<TRIPOS>BOND
     1    15    16    1
     2    16    17   ar
     3    17    18   ar
     4    18    14    1
     5    14    13    1
     6    13     1    1
     7     1     2   ar
     8     2     3   ar
     9     3     4    1
    10     3     5   ar
    11     5     6   ar
    12     6     7   ar
    13     7     8   ar
    14     8     9   ar
    15     9    21    1
    16    21    22    1
    17    22    23   ar
    18    23    24   ar
    19    24    25   ar
    20    25    26   ar
    21    26    27   ar
    22     9    10   ar
    23    18    19   ar
    24    19    20   ar
    25    20    16   ar
    26    10     1   ar
    27    10     6   ar
    28    27    22   ar
    29     4    11    1
    30     4    12    1
@<TRIPOS>MOLECULE
*****
 27 30 0 0 0
SMALL
GASTEIGER

@<TRIPOS>ATOM
      1 C          -7.6880  -18.5473   20.8643 C.ar    1  UNL1        0.2454
      2 N          -7.6565  -19.6867   19.8893 N.ar    1  UNL1       -0.1778
      3 C          -8.9056  -20.0852   19.1608 C.ar    1  UNL1        0.2163
      4 N          -8.8740  -21.2248   18.1858 N.pl3   1  UNL1       -0.3274
      5 N         -10.1864  -19.3443   19.4072 N.ar    1  UNL1       -0.2123
      6 C         -10.2179  -18.2048   20.3822 C.ar    1  UNL1        0.1060
      7 C         -11.3245  -17.2954   20.8277 C.ar    1  UNL1        0.0395
      8 C         -10.7592  -16.3349   21.8316 C.ar    1  UNL1        0.0779
      9 N          -9.3032  -16.6506   22.0065 N.ar    1  UNL1       -0.3154
     10 C          -8.9687  -17.8063   21.1107 C.ar    1  UNL1        0.1322
     11 H          -8.0335  -21.7111   18.0240 H       1  UNL1        0.1452
     12 H          -9.6939  -21.4864   17.7076 H       1  UNL1        0.1452
     13 O          -6.4388  -18.1487   21.5928 O.3     1  UNL1       -0.4524
     14 C          -5.2933  -19.1113   21.6994 C.3     1  UNL1        0.2559
     15 C          -0.4157  -17.8065   20.1542 C.3     1  UNL1        0.0754
     16 C          -1.8266  -18.3161   20.1456 C.ar    1  UNL1        0.1546
     17 C          -2.7707  -18.3173   21.3112 C.ar    1  UNL1        0.0573
     18 C          -4.0685  -18.9157   20.8558 C.ar    1  UNL1        0.1440
     19 N          -3.9265  -19.2844   19.4088 N.ar    1  UNL1       -0.0780
     20 O          -2.5409  -18.9138   18.9699 O.2     1  UNL1       -0.3580
     21 C          -8.3494  -15.9361   22.9173 C.3     1  UNL1        0.1520
     22 C          -8.3920  -16.1886   24.3953 C.ar    1  UNL1        0.0818
     23 C          -9.1988  -17.3306   24.9380 C.ar    1  UNL1        0.0167
     24 C          -9.2415  -17.5832   26.4160 C.ar    1  UNL1        0.0029
     25 C          -8.4773  -16.6936   27.3512 C.ar    1  UNL1        0.0207
     26 C          -7.6704  -15.5515   26.8084 C.ar    1  UNL1        0.0985
     27 N          -7.6278  -15.2990   25.3305 N.ar    1  UNL1       -0.2462
@<TRIPOS>BOND
     1    15    16    1
     2    16    17   ar
     3    17    18   ar
     4    18    14    1
     5    14    13    1
     6    13     1    1
     7     1     2   ar
     8     2     3   ar
     9     3     4    1
    10     3     5   ar
    11     5     6   ar
    12     6     7   ar
    13     7     8   ar
    14     8     9   ar
    15     9    21    1
    16    21    22    1
    17    22    23   ar
    18    23    24   ar
    19    24    25   ar
    20    25    26   ar
    21    26    27   ar
    22     9    10   ar
    23    18    19   ar
    24    19    20   ar
    25    20    16   ar
    26    10     1   ar
    27    10     6   ar
    28    27    22   ar
    29     4    11    1
    30     4    12    1
@<TRIPOS>MOLECULE
*****
 27 30 0 0 0
SMALL
GASTEIGER

@<TRIPOS>ATOM
      1 C          -6.8089  -18.1465   21.8309 C.ar    1  UNL1        0.2454
      2 N          -7.0578  -19.3972   21.0412 N.ar    1  UNL1       -0.1778
      3 C          -5.9617  -20.4067   20.8701 C.ar    1  UNL1        0.2163
      4 N          -6.2107  -21.6576   20.0804 N.pl3   1  UNL1       -0.3274
      5 N          -4.6165  -20.1655   21.4885 N.ar    1  UNL1       -0.2123
      6 C          -4.3676  -18.9147   22.2782 C.ar    1  UNL1        0.1060
      7 C          -3.1536  -18.4074   22.9984 C.ar    1  UNL1        0.0395
      8 C          -3.4994  -17.0844   23.6148 C.ar    1  UNL1        0.0779
      9 N          -4.9272  -16.7740   23.2754 N.ar    1  UNL1       -0.3154
     10 C          -5.4638  -17.9052   22.4493 C.ar    1  UNL1        0.1322
     11 H          -7.0935  -21.8159   19.6745 H       1  UNL1        0.1452
     12 H          -5.4912  -22.3202   19.9680 H       1  UNL1        0.1452
     13 O          -7.9050  -17.1369   22.0020 O.3     1  UNL1       -0.4524
     14 C          -9.3059  -17.4727   21.5840 C.3     1  UNL1        0.2559
     15 C         -13.8976  -18.0797   24.1195 C.3     1  UNL1        0.0754
     16 C         -12.4369  -18.1296   23.7819 C.ar    1  UNL1        0.1546
     17 C         -11.8003  -17.5833   22.5383 C.ar    1  UNL1        0.0573
     18 C         -10.3264  -17.8505   22.6164 C.ar    1  UNL1        0.1440
     19 N         -10.0521  -18.5619   23.9082 N.ar    1  UNL1       -0.0780
     20 O         -11.3565  -18.7343   24.6284 O.2     1  UNL1       -0.3580
     21 C          -5.6853  -15.5476   23.6895 C.3     1  UNL1        0.1520
     22 C          -6.5338  -15.5723   24.9261 C.ar    1  UNL1        0.0818
     23 C          -5.8878  -15.5448   26.2796 C.ar    1  UNL1        0.0167
     24 C          -6.7363  -15.5694   27.5163 C.ar    1  UNL1        0.0029
     25 C          -8.2309  -15.6216   27.3994 C.ar    1  UNL1        0.0207
     26 C          -8.8769  -15.6492   26.0459 C.ar    1  UNL1        0.0985
     27 N          -8.0283  -15.6245   24.8093 N.ar    1  UNL1       -0.2462
@<TRIPOS>BOND
     1    15    16    1
     2    16    17   ar
     3    17    18   ar
     4    18    14    1
     5    14    13    1
     6    13     1    1
     7     1     2   ar
     8     2     3   ar
     9     3     4    1
    10     3     5   ar
    11     5     6   ar
    12     6     7   ar
    13     7     8   ar
    14     8     9   ar
    15     9    21    1
    16    21    22    1
    17    22    23   ar
    18    23    24   ar
    19    24    25   ar
    20    25    26   ar
    21    26    27   ar
    22     9    10   ar
    23    18    19   ar
    24    19    20   ar
    25    20    16   ar
    26    10     1   ar
    27    10     6   ar
    28    27    22   ar
    29     4    11    1
    30     4    12    1
@<TRIPOS>MOLECULE
*****
 27 30 0 0 0
SMALL
GASTEIGER

@<TRIPOS>ATOM
      1 C          -8.7677  -19.4388   21.5233 C.ar    1  UNL1        0.2454
      2 N          -8.4887  -20.0193   20.1687 N.ar    1  UNL1       -0.1778
      3 C          -9.5003  -19.8797   19.0701 C.ar    1  UNL1        0.2163
      4 N          -9.2213  -20.4602   17.7153 N.pl3   1  UNL1       -0.3274
      5 N         -10.7911  -19.1595   19.3260 N.ar    1  UNL1       -0.2123
      6 C         -11.0701  -18.5791   20.6807 C.ar    1  UNL1        0.1060
      7 C         -12.2446  -17.8218   21.2256 C.ar    1  UNL1        0.0395
      8 C         -11.9589  -17.4934   22.6611 C.ar    1  UNL1        0.0779
      9 N         -10.6077  -18.0477   23.0033 N.ar    1  UNL1       -0.3154
     10 C         -10.0584  -18.7187   21.7794 C.ar    1  UNL1        0.1322
     11 H          -8.3742  -20.9328   17.5472 H       1  UNL1        0.1452
     12 H          -9.8853  -20.3685   16.9942 H       1  UNL1        0.1452
     13 O          -7.7561  -19.5785   22.6220 O.3     1  UNL1       -0.4524
     14 C          -6.4390  -20.2423   22.3488 C.3     1  UNL1        0.2559
     15 C          -2.4789  -18.6268   19.2521 C.3     1  UNL1        0.0754
     16 C          -3.4776  -18.7009   20.3690 C.ar    1  UNL1        0.1546
     17 C          -4.5233  -19.7614   20.5477 C.ar    1  UNL1        0.0573
     18 C          -5.2977  -19.4435   21.7923 C.ar    1  UNL1        0.1440
     19 N          -4.7307  -18.1866   22.3828 N.ar    1  UNL1       -0.0780
     20 O          -3.6058  -17.7277   21.5031 O.2     1  UNL1       -0.3580
     21 C          -9.9256  -17.9484   24.3356 C.3     1  UNL1        0.1520
     22 C          -8.8331  -16.9423   24.5457 C.ar    1  UNL1        0.0818
     23 C          -8.4884  -16.4884   25.9331 C.ar    1  UNL1        0.0167
     24 C          -7.3959  -15.4823   26.1434 C.ar    1  UNL1        0.0029
     25 C          -6.6481  -14.9302   24.9660 C.ar    1  UNL1        0.0207
     26 C          -6.9928  -15.3842   23.5786 C.ar    1  UNL1        0.0985
     27 N          -8.0853  -16.3903   23.3685 N.ar    1  UNL1       -0.2462
@<TRIPOS>BOND
     1    15    16    1
     2    16    17   ar
     3    17    18   ar
     4    18    14    1
     5    14    13    1
     6    13     1    1
     7     1     2   ar
     8     2     3   ar
     9     3     4    1
    10     3     5   ar
    11     5     6   ar
    12     6     7   ar
    13     7     8   ar
    14     8     9   ar
    15     9    21    1
    16    21    22    1
    17    22    23   ar
    18    23    24   ar
    19    24    25   ar
    20    25    26   ar
    21    26    27   ar
    22     9    10   ar
    23    18    19   ar
    24    19    20   ar
    25    20    16   ar
    26    10     1   ar
    27    10     6   ar
    28    27    22   ar
    29     4    11    1
    30     4    12    1
@<TRIPOS>MOLECULE
*****
 27 30 0 0 0
SMALL
GASTEIGER

@<TRIPOS>ATOM
      1 C          -7.1916  -18.2039   21.1757 C.ar    1  UNL1        0.2454
      2 N          -5.8051  -18.3245   21.7351 N.ar    1  UNL1       -0.1778
      3 C          -4.9474  -19.4986   21.3671 C.ar    1  UNL1        0.2163
      4 N          -3.5607  -19.6192   21.9265 N.pl3   1  UNL1       -0.3274
      5 N          -5.4761  -20.5524   20.4397 N.ar    1  UNL1       -0.2123
      6 C          -6.8627  -20.4319   19.8803 C.ar    1  UNL1        0.1060
      7 C          -7.6493  -21.3072   18.9502 C.ar    1  UNL1        0.0395
      8 C          -8.9932  -20.6739   18.7434 C.ar    1  UNL1        0.0779
      9 N          -9.0372  -19.4072   19.5456 N.ar    1  UNL1       -0.3154
     10 C          -7.7204  -19.2576   20.2483 C.ar    1  UNL1        0.1322
     11 H          -3.2136  -18.9276   22.5352 H       1  UNL1        0.1452
     12 H          -2.9977  -20.3899   21.6850 H       1  UNL1        0.1452
     13 O          -8.0493  -17.0297   21.5437 O.3     1  UNL1       -0.4524
     14 C          -8.5653  -16.8876   22.9449 C.3     1  UNL1        0.2559
     15 C          -6.8010  -15.0730   27.5791 C.3     1  UNL1        0.0754
     16 C          -6.9291  -15.3481   26.1100 C.ar    1  UNL1        0.1546
     17 C          -7.9975  -16.1745   25.4577 C.ar    1  UNL1        0.0573
     18 C          -7.7401  -16.1822   23.9801 C.ar    1  UNL1        0.1440
     19 N          -6.5126  -15.3605   23.7191 N.ar    1  UNL1       -0.0780
     20 O          -6.0114  -14.8451   25.0356 O.2     1  UNL1       -0.3580
     21 C         -10.1947  -18.4569   19.6303 C.3     1  UNL1        0.1520
     22 C         -10.9803  -18.3434   20.9031 C.ar    1  UNL1        0.0818
     23 C         -11.9474  -17.2121   21.0890 C.ar    1  UNL1        0.0167
     24 C         -12.7331  -17.0985   22.3618 C.ar    1  UNL1        0.0029
     25 C         -12.5515  -18.1164   23.4486 C.ar    1  UNL1        0.0207
     26 C         -11.5844  -19.2477   23.2625 C.ar    1  UNL1        0.0985
     27 N         -10.7988  -19.3612   21.9898 N.ar    1  UNL1       -0.2462
@<TRIPOS>BOND
     1    15    16    1
     2    16    17   ar
     3    17    18   ar
     4    18    14    1
     5    14    13    1
     6    13     1    1
     7     1     2   ar
     8     2     3   ar
     9     3     4    1
    10     3     5   ar
    11     5     6   ar
    12     6     7   ar
    13     7     8   ar
    14     8     9   ar
    15     9    21    1
    16    21    22    1
    17    22    23   ar
    18    23    24   ar
    19    24    25   ar
    20    25    26   ar
    21    26    27   ar
    22     9    10   ar
    23    18    19   ar
    24    19    20   ar
    25    20    16   ar
    26    10     1   ar
    27    10     6   ar
    28    27    22   ar
    29     4    11    1
    30     4    12    1
@<TRIPOS>MOLECULE
*****
 27 30 0 0 0
SMALL
GASTEIGER

@<TRIPOS>ATOM
      1 C          -5.7871  -18.2146   22.5019 C.ar    1  UNL1        0.2454
      2 N          -4.3414  -17.8688   22.3009 N.ar    1  UNL1       -0.1778
      3 C          -3.8131  -16.5479   22.7762 C.ar    1  UNL1        0.2163
      4 N          -2.3673  -16.2021   22.5752 N.pl3   1  UNL1       -0.3274
      5 N          -4.7305  -15.5727   23.4525 N.ar    1  UNL1       -0.2123
      6 C          -6.1762  -15.9185   23.6535 C.ar    1  UNL1        0.1060
      7 C          -7.3104  -15.1646   24.2821 C.ar    1  UNL1        0.0395
      8 C          -8.5398  -16.0197   24.1953 C.ar    1  UNL1        0.0779
      9 N          -8.1653  -17.3020   23.5130 N.ar    1  UNL1       -0.3154
     10 C          -6.7045  -17.2394   23.1782 C.ar    1  UNL1        0.1322
     11 H          -1.7652  -16.8421   22.1313 H       1  UNL1        0.1452
     12 H          -2.0206  -15.3351   22.8871 H       1  UNL1        0.1452
     13 O          -6.3153  -19.5356   22.0265 O.3     1  UNL1       -0.4524
     14 C          -5.5156  -20.3598   21.0616 C.3     1  UNL1        0.2559
     15 C          -1.6989  -17.8977   18.3687 C.3     1  UNL1        0.0754
     16 C          -2.4113  -18.7549   19.3727 C.ar    1  UNL1        0.1546
     17 C          -3.8949  -18.9556   19.4659 C.ar    1  UNL1        0.0573
     18 C          -4.1656  -19.8866   20.6103 C.ar    1  UNL1        0.1440
     19 N          -2.8494  -20.2613   21.2244 N.ar    1  UNL1       -0.0780
     20 O          -1.7652  -19.5619   20.4595 O.2     1  UNL1       -0.3580
     21 C          -9.0893  -18.4460   23.2175 C.3     1  UNL1        0.1520
     22 C         -10.5741  -18.2544   23.3114 C.ar    1  UNL1        0.0818
     23 C         -11.3314  -18.8224   24.4749 C.ar    1  UNL1        0.0167
     24 C         -12.8161  -18.6308   24.5690 C.ar    1  UNL1        0.0029
     25 C         -13.5435  -17.8712   23.4994 C.ar    1  UNL1        0.0207
     26 C         -12.7861  -17.3032   22.3358 C.ar    1  UNL1        0.0985
     27 N         -11.3015  -17.4948   22.2419 N.ar    1  UNL1       -0.2462
@<TRIPOS>BOND
     1    15    16    1
     2    16    17   ar
     3    17    18   ar
     4    18    14    1
     5    14    13    1
     6    13     1    1
     7     1     2   ar
     8     2     3   ar
     9     3     4    1
    10     3     5   ar
    11     5     6   ar
    12     6     7   ar
    13     7     8   ar
    14     8     9   ar
    15     9    21    1
    16    21    22    1
    17    22    23   ar
    18    23    24   ar
    19    24    25   ar
    20    25    26   ar
    21    26    27   ar
    22     9    10   ar
    23    18    19   ar
    24    19    20   ar
    25    20    16   ar
    26    10     1   ar
    27    10     6   ar
    28    27    22   ar
    29     4    11    1
    30     4    12    1
@<TRIPOS>MOLECULE
*****
 27 30 0 0 0
SMALL
GASTEIGER

@<TRIPOS>ATOM
      1 C          -6.6574  -17.7331   22.9545 C.ar    1  UNL1        0.2454
      2 N          -5.2283  -17.6287   22.5111 N.ar    1  UNL1       -0.1778
      3 C          -4.3520  -16.5395   23.0548 C.ar    1  UNL1        0.2163
      4 N          -2.9228  -16.4351   22.6113 N.pl3   1  UNL1       -0.3274
      5 N          -4.9048  -15.5546   24.0420 N.ar    1  UNL1       -0.2123
      6 C          -6.3339  -15.6591   24.4854 C.ar    1  UNL1        0.1060
      7 C          -7.1513  -14.8390   25.4390 C.ar    1  UNL1        0.0395
      8 C          -8.5329  -15.4215   25.4846 C.ar    1  UNL1        0.0779
      9 N          -8.5693  -16.6014   24.5592 N.ar    1  UNL1       -0.3154
     10 C          -7.2102  -16.7483   23.9417 C.ar    1  UNL1        0.1322
     11 H          -2.5599  -17.0815   21.9634 H       1  UNL1        0.1452
     12 H          -2.3476  -15.7202   22.9682 H       1  UNL1        0.1452
     13 O          -7.5337  -18.8223   22.4107 O.3     1  UNL1       -0.4524
     14 C          -7.1175  -19.5772   21.1832 C.3     1  UNL1        0.2559
     15 C          -9.3519  -21.4005   16.7600 C.3     1  UNL1        0.0754
     16 C          -9.1424  -20.6896   18.0642 C.ar    1  UNL1        0.1546
     17 C          -7.8792  -20.6857   18.8732 C.ar    1  UNL1        0.0573
     18 C          -8.1153  -19.8516   20.0973 C.ar    1  UNL1        0.1440
     19 N          -9.5244  -19.3400   20.0449 N.ar    1  UNL1       -0.0780
     20 O         -10.1591  -19.8579   18.7883 O.2     1  UNL1       -0.3580
     21 C          -9.7564  -17.4802   24.2974 C.3     1  UNL1        0.1520
     22 C         -10.6172  -17.2387   23.0929 C.ar    1  UNL1        0.0818
     23 C         -11.9448  -17.9259   22.9701 C.ar    1  UNL1        0.0167
     24 C         -12.8057  -17.6845   21.7657 C.ar    1  UNL1        0.0029
     25 C         -12.3388  -16.7558   20.6841 C.ar    1  UNL1        0.0207
     26 C         -11.0111  -16.0687   20.8070 C.ar    1  UNL1        0.0985
     27 N         -10.1504  -16.3101   22.0114 N.ar    1  UNL1       -0.2462
@<TRIPOS>BOND
     1    15    16    1
     2    16    17   ar
     3    17    18   ar
     4    18    14    1
     5    14    13    1
     6    13     1    1
     7     1     2   ar
     8     2     3   ar
     9     3     4    1
    10     3     5   ar
    11     5     6   ar
    12     6     7   ar
    13     7     8   ar
    14     8     9   ar
    15     9    21    1
    16    21    22    1
    17    22    23   ar
    18    23    24   ar
    19    24    25   ar
    20    25    26   ar
    21    26    27   ar
    22     9    10   ar
    23    18    19   ar
    24    19    20   ar
    25    20    16   ar
    26    10     1   ar
    27    10     6   ar
    28    27    22   ar
    29     4    11    1
    30     4    12    1
