@<TRIPOS>MOLECULE
*****
 41 44 0 0 0
SMALL
GASTEIGER

@<TRIPOS>ATOM
      1 C          -3.5272  -15.9270   22.7817 C.3     1  UNL1        0.0889
      2 C          -2.4426  -15.2514   21.9961 C.3     1  UNL1        0.0383
      3 C          -1.4948  -16.3080   21.5109 C.3     1  UNL1        0.0739
      4 N          -1.9936  -17.6366   21.9968 N.3     1  UNL1       -0.2712
      5 C          -3.2497  -17.4011   22.7822 C.3     1  UNL1        0.0919
      6 O          -6.2096  -17.2680   22.8612 O.2     1  UNL1       -0.2733
      7 C          -6.0270  -15.9182   23.4894 C.2     1  UNL1        0.2425
      8 N          -4.6859  -15.2477   23.4497 N.am    1  UNL1       -0.3032
      9 H          -4.5660  -14.3618   23.8620 H       1  UNL1        0.1495
     10 C          -7.1856  -15.2389   24.1574 C.3     1  UNL1        0.1759
     11 N          -8.5773  -15.7628   23.9604 N.am    1  UNL1       -0.2931
     12 C          -9.1332  -15.9128   22.5753 C.2     1  UNL1        0.2462
     13 O          -8.2974  -15.5391   21.3872 O.2     1  UNL1       -0.2701
     14 H          -9.1259  -16.0081   24.7402 H       1  UNL1        0.1502
     15 C         -10.5249  -16.4367   22.3783 C.ar    1  UNL1        0.0533
     16 C         -11.1721  -16.3569   21.0275 C.ar    1  UNL1        0.0045
     17 C         -12.5638  -16.8808   20.8306 C.ar    1  UNL1        0.0001
     18 C         -13.3082  -17.4844   21.9845 C.ar    1  UNL1        0.0039
     19 C         -12.6610  -17.5641   23.3353 C.ar    1  UNL1        0.0716
     20 C         -11.2694  -17.0403   23.5322 C.ar    1  UNL1        0.0084
     21 C         -13.4055  -18.1677   24.4892 C.3     1  UNL1        0.4186
     22 F         -14.1500  -18.7713   25.6430 F       1  UNL1       -0.1659
     23 F         -12.1034  -18.4984   25.1563 F       1  UNL1       -0.1659
     24 F         -14.7077  -17.8370   23.8220 F       1  UNL1       -0.1659
     25 C          -1.3495  -18.9671   21.7420 C.3     1  UNL1        0.0721
     26 C          -2.1507  -20.0864   21.1461 C.3     1  UNL1        0.0174
     27 C          -3.6258  -19.9206   20.9303 C.3     1  UNL1        0.0048
     28 C          -4.5902  -20.3076   22.0120 C.3     1  UNL1        0.0216
     29 C          -6.0654  -20.1418   21.7962 C.3     1  UNL1        0.0937
     30 N          -6.5760  -19.5890   20.4986 N.am    1  UNL1       -0.2760
     31 C          -8.0512  -19.4232   20.2829 C.2     1  UNL1        0.2512
     32 O          -8.5619  -18.8705   18.9853 O.2     1  UNL1       -0.2698
     33 C          -5.6116  -19.2020   19.4169 C.3     1  UNL1        0.0937
     34 C          -4.1365  -19.3678   19.6327 C.3     1  UNL1        0.0216
     35 C          -9.0156  -19.8103   21.3646 C.ar    1  UNL1        0.0810
     36 C          -8.5420  -19.9341   22.7824 C.ar    1  UNL1        0.0068
     37 C          -9.5064  -20.3211   23.8642 C.ar    1  UNL1        0.0003
     38 C         -10.9443  -20.5843   23.5280 C.ar    1  UNL1        0.0023
     39 C         -11.4179  -20.4604   22.1101 C.ar    1  UNL1        0.0298
     40 C         -10.4535  -20.0734   21.0284 C.ar    1  UNL1        0.1445
     41 F         -10.9271  -19.9495   19.6106 F       1  UNL1       -0.2040
@<TRIPOS>BOND
     1     6     7    2
     2     7    10    1
     3    10    11    1
     4    11    12   am
     5    12    13    2
     6    12    15    1
     7    15    16   ar
     8    16    17   ar
     9    17    18   ar
    10    18    19   ar
    11    19    21    1
    12    21    22    1
    13    21    23    1
    14    21    24    1
    15    19    20   ar
    16     7     8   am
    17     1     8    1
    18     1     2    1
    19     2     3    1
    20     3     4    1
    21     4    25    1
    22    25    26    1
    23    26    27    1
    24    27    28    1
    25    28    29    1
    26    29    30    1
    27    30    31   am
    28    31    32    2
    29    31    35    1
    30    35    36   ar
    31    36    37   ar
    32    37    38   ar
    33    38    39   ar
    34    39    40   ar
    35    40    41    1
    36    30    33    1
    37    33    34    1
    38     4     5    1
    39    20    15   ar
    40     5     1    1
    41    34    27    1
    42    40    35   ar
    43    11    14    1
    44     8     9    1
@<TRIPOS>MOLECULE
*****
 41 44 0 0 0
SMALL
GASTEIGER

@<TRIPOS>ATOM
      1 C           8.1091   -5.9240   28.2834 C.3     1  UNL1        0.0889
      2 C           9.3127   -5.0878   28.6029 C.3     1  UNL1        0.0383
      3 C           9.0587   -3.6981   28.0986 C.3     1  UNL1        0.0739
      4 N           7.6981   -3.6754   27.4675 N.3     1  UNL1       -0.2712
      5 C           7.1112   -5.0511   27.5817 C.3     1  UNL1        0.0919
      6 O           8.6494   -8.0047   26.1908 O.2     1  UNL1       -0.2733
      7 C           8.2042   -8.4182   27.5623 C.2     1  UNL1        0.2425
      8 N           7.9340   -7.3779   28.6085 N.am    1  UNL1       -0.3032
      9 H           7.6418   -7.6493   29.5086 H       1  UNL1        0.1495
     10 C           8.0291   -9.8720   27.8874 C.3     1  UNL1        0.1759
     11 N           6.7026  -10.5360   27.6645 N.am    1  UNL1       -0.2931
     12 C           6.4830  -11.9463   28.1256 C.2     1  UNL1        0.2462
     13 O           7.5897  -12.6928   28.8096 O.2     1  UNL1       -0.2701
     14 H           5.9762  -10.0461   27.2155 H       1  UNL1        0.1502
     15 C           5.1565  -12.6103   27.9026 C.ar    1  UNL1        0.0533
     16 C           4.8720  -13.2993   26.6010 C.ar    1  UNL1        0.0045
     17 C           3.5455  -13.9632   26.3781 C.ar    1  UNL1        0.0001
     18 C           2.5036  -13.9381   27.4569 C.ar    1  UNL1        0.0039
     19 C           2.7881  -13.2492   28.7585 C.ar    1  UNL1        0.0716
     20 C           4.1145  -12.5852   28.9814 C.ar    1  UNL1        0.0084
     21 C           1.7462  -13.2241   29.8373 C.3     1  UNL1        0.4186
     22 F           0.7042  -13.1990   30.9161 F       1  UNL1       -0.1659
     23 F           1.0106  -14.3378   29.1527 F       1  UNL1       -0.1659
     24 F           2.4817  -12.1104   30.5219 F       1  UNL1       -0.1659
     25 C           7.0400   -2.4859   26.8335 C.3     1  UNL1        0.0721
     26 C           5.5454   -2.3596   26.8477 C.3     1  UNL1        0.0174
     27 C           4.8664   -1.3852   25.9314 C.3     1  UNL1        0.0048
     28 C           4.3410   -1.8452   24.6039 C.3     1  UNL1        0.0216
     29 C           3.6619   -0.8708   23.6876 C.3     1  UNL1        0.0937
     30 N           3.5084    0.5636   24.0989 N.am    1  UNL1       -0.2760
     31 C           2.8294    1.5380   23.1826 C.2     1  UNL1        0.2512
     32 O           2.6758    2.9723   23.5939 O.2     1  UNL1       -0.2698
     33 C           4.0339    1.0235   25.4265 C.3     1  UNL1        0.0937
     34 C           4.7128    0.0492   26.3427 C.3     1  UNL1        0.0216
     35 C           2.3040    1.0780   21.8551 C.ar    1  UNL1        0.0810
     36 C           0.8707    0.6568   21.7209 C.ar    1  UNL1        0.0068
     37 C           0.3453    0.1968   20.3934 C.ar    1  UNL1        0.0003
     38 C           1.2532    0.1581   19.2000 C.ar    1  UNL1        0.0023
     39 C           2.6866    0.5793   19.3342 C.ar    1  UNL1        0.0298
     40 C           3.2120    1.0393   20.6617 C.ar    1  UNL1        0.1445
     41 F           4.6453    1.4605   20.7959 F       1  UNL1       -0.2040
@<TRIPOS>BOND
     1     6     7    2
     2     7    10    1
     3    10    11    1
     4    11    12   am
     5    12    13    2
     6    12    15    1
     7    15    16   ar
     8    16    17   ar
     9    17    18   ar
    10    18    19   ar
    11    19    21    1
    12    21    22    1
    13    21    23    1
    14    21    24    1
    15    19    20   ar
    16     7     8   am
    17     1     8    1
    18     1     2    1
    19     2     3    1
    20     3     4    1
    21     4    25    1
    22    25    26    1
    23    26    27    1
    24    27    28    1
    25    28    29    1
    26    29    30    1
    27    30    31   am
    28    31    32    2
    29    31    35    1
    30    35    36   ar
    31    36    37   ar
    32    37    38   ar
    33    38    39   ar
    34    39    40   ar
    35    40    41    1
    36    30    33    1
    37    33    34    1
    38     4     5    1
    39    20    15   ar
    40     5     1    1
    41    34    27    1
    42    40    35   ar
    43    11    14    1
    44     8     9    1
@<TRIPOS>MOLECULE
*****
 41 44 0 0 0
SMALL
GASTEIGER

@<TRIPOS>ATOM
      1 C          -3.2269  -16.1797   22.4734 C.3     1  UNL1        0.0889
      2 C          -2.0398  -15.6233   21.7447 C.3     1  UNL1        0.0383
      3 C          -1.2331  -16.7759   21.2244 C.3     1  UNL1        0.0739
      4 N          -1.9216  -18.0448   21.6317 N.3     1  UNL1       -0.2712
      5 C          -3.1538  -17.6764   22.4036 C.3     1  UNL1        0.0919
      6 O          -4.4700  -17.1879   25.0108 O.2     1  UNL1       -0.2733
      7 C          -4.9204  -15.8841   24.4214 C.2     1  UNL1        0.2425
      8 N          -4.2988  -15.3800   23.1528 N.am    1  UNL1       -0.3032
      9 H          -4.5944  -14.5243   22.7659 H       1  UNL1        0.1495
     10 C          -5.9923  -15.0844   25.1007 C.3     1  UNL1        0.1759
     11 N          -7.4248  -15.2455   24.6860 N.am    1  UNL1       -0.2931
     12 C          -7.7713  -16.0970   23.5007 C.2     1  UNL1        0.2462
     13 O          -6.6853  -16.7873   22.7301 O.2     1  UNL1       -0.2701
     14 H          -8.1377  -14.7924   25.1918 H       1  UNL1        0.1502
     15 C          -9.2038  -16.2581   23.0860 C.ar    1  UNL1        0.0533
     16 C         -10.2213  -16.7424   24.0760 C.ar    1  UNL1        0.0045
     17 C         -11.6538  -16.9034   23.6612 C.ar    1  UNL1        0.0001
     18 C         -12.0688  -16.5802   22.2565 C.ar    1  UNL1        0.0039
     19 C         -11.0513  -16.0959   21.2665 C.ar    1  UNL1        0.0716
     20 C          -9.6188  -15.9348   21.6812 C.ar    1  UNL1        0.0084
     21 C         -11.4663  -15.7727   19.8618 C.3     1  UNL1        0.4186
     22 F         -11.8813  -15.4494   18.4570 F       1  UNL1       -0.1659
     23 F         -12.5948  -16.7550   19.9691 F       1  UNL1       -0.1659
     24 F         -10.3378  -14.7904   19.7544 F       1  UNL1       -0.1659
     25 C          -1.4592  -19.4376   21.3215 C.3     1  UNL1        0.0721
     26 C          -2.4035  -20.4188   20.6926 C.3     1  UNL1        0.0174
     27 C          -3.8745  -20.1277   20.6585 C.3     1  UNL1        0.0048
     28 C          -4.7434  -20.5186   21.8171 C.3     1  UNL1        0.0216
     29 C          -6.2146  -20.2275   21.7830 C.3     1  UNL1        0.0937
     30 N          -6.8167  -19.5455   20.5904 N.am    1  UNL1       -0.2760
     31 C          -8.2878  -19.2544   20.5563 C.2     1  UNL1        0.2512
     32 O          -8.8900  -18.5724   19.3637 O.2     1  UNL1       -0.2698
     33 C          -5.9478  -19.1546   19.4318 C.3     1  UNL1        0.0937
     34 C          -4.4767  -19.4457   19.4659 C.3     1  UNL1        0.0216
     35 C          -9.1567  -19.6453   21.7149 C.ar    1  UNL1        0.0810
     36 C          -8.5484  -19.8642   23.0683 C.ar    1  UNL1        0.0068
     37 C          -9.4172  -20.2551   24.2268 C.ar    1  UNL1        0.0003
     38 C         -10.8945  -20.4271   24.0319 C.ar    1  UNL1        0.0023
     39 C         -11.5029  -20.2082   22.6783 C.ar    1  UNL1        0.0298
     40 C         -10.6340  -19.8173   21.5198 C.ar    1  UNL1        0.1445
     41 F         -11.2424  -19.5985   20.1664 F       1  UNL1       -0.2040
@<TRIPOS>BOND
     1     6     7    2
     2     7    10    1
     3    10    11    1
     4    11    12   am
     5    12    13    2
     6    12    15    1
     7    15    16   ar
     8    16    17   ar
     9    17    18   ar
    10    18    19   ar
    11    19    21    1
    12    21    22    1
    13    21    23    1
    14    21    24    1
    15    19    20   ar
    16     7     8   am
    17     1     8    1
    18     1     2    1
    19     2     3    1
    20     3     4    1
    21     4    25    1
    22    25    26    1
    23    26    27    1
    24    27    28    1
    25    28    29    1
    26    29    30    1
    27    30    31   am
    28    31    32    2
    29    31    35    1
    30    35    36   ar
    31    36    37   ar
    32    37    38   ar
    33    38    39   ar
    34    39    40   ar
    35    40    41    1
    36    30    33    1
    37    33    34    1
    38     4     5    1
    39    20    15   ar
    40     5     1    1
    41    34    27    1
    42    40    35   ar
    43    11    14    1
    44     8     9    1
@<TRIPOS>MOLECULE
*****
 41 44 0 0 0
SMALL
GASTEIGER

@<TRIPOS>ATOM
      1 C          -1.9296    3.3965   21.0705 C.3     1  UNL1        0.0889
      2 C          -3.4205    3.2506   21.1475 C.3     1  UNL1        0.0383
      3 C          -3.8411    3.5282   22.5602 C.3     1  UNL1        0.0739
      4 N          -2.6101    3.8458   23.3565 N.3     1  UNL1       -0.2712
      5 C          -1.4287    3.7644   22.4357 C.3     1  UNL1        0.0919
      6 O          -0.1546    0.9904   20.8251 O.2     1  UNL1       -0.2733
      7 C          -0.1999    2.0047   19.7209 C.2     1  UNL1        0.2425
      8 N          -1.0873    3.2078   19.8436 N.am    1  UNL1       -0.3032
      9 H          -1.1170    3.8735   19.1189 H       1  UNL1        0.1495
     10 C           0.6423    1.8160   18.4942 C.3     1  UNL1        0.1759
     11 N           1.5025    0.5950   18.3555 N.am    1  UNL1       -0.2931
     12 C           2.8658    0.5631   18.9801 C.2     1  UNL1        0.2462
     13 O           3.3690    1.7523   19.7435 O.2     1  UNL1       -0.2701
     14 H           1.1723   -0.1855   17.8544 H       1  UNL1        0.1502
     15 C           3.7261   -0.6579   18.8414 C.ar    1  UNL1        0.0533
     16 C           5.0635   -0.5607   18.1693 C.ar    1  UNL1        0.0045
     17 C           5.9236   -1.7817   18.0306 C.ar    1  UNL1        0.0001
     18 C           5.4463   -3.0999   18.5641 C.ar    1  UNL1        0.0039
     19 C           4.1089   -3.1971   19.2362 C.ar    1  UNL1        0.0716
     20 C           3.2488   -1.9761   19.3749 C.ar    1  UNL1        0.0084
     21 C           3.6316   -4.5153   19.7697 C.3     1  UNL1        0.4186
     22 F           3.1543   -5.8335   20.3032 F       1  UNL1       -0.1659
     23 F           4.6044   -4.4075   20.9064 F       1  UNL1       -0.1659
     24 F           2.6588   -4.6231   18.6330 F       1  UNL1       -0.1659
     25 C          -2.5679    4.1851   24.8170 C.3     1  UNL1        0.0721
     26 C          -2.1179    3.1577   25.8129 C.3     1  UNL1        0.0174
     27 C          -0.6967    2.6779   25.8054 C.3     1  UNL1        0.0048
     28 C          -0.2434    1.6923   24.7696 C.3     1  UNL1        0.0216
     29 C           1.1779    1.2125   24.7621 C.3     1  UNL1        0.0937
     30 N           2.1456    1.7184   25.7904 N.am    1  UNL1       -0.2760
     31 C           3.5669    1.2386   25.7829 C.2     1  UNL1        0.2512
     32 O           4.5347    1.7445   26.8112 O.2     1  UNL1       -0.2698
     33 C           1.6923    2.7041   26.8262 C.3     1  UNL1        0.0937
     34 C           0.2711    3.1839   26.8337 C.3     1  UNL1        0.0216
     35 C           4.0202    0.2529   24.7471 C.ar    1  UNL1        0.0810
     36 C           4.4715    0.7346   23.4002 C.ar    1  UNL1        0.0068
     37 C           4.9248   -0.2511   22.3644 C.ar    1  UNL1        0.0003
     38 C           4.9269   -1.7184   22.6755 C.ar    1  UNL1        0.0023
     39 C           4.4756   -2.2001   24.0225 C.ar    1  UNL1        0.0298
     40 C           4.0222   -1.2144   25.0583 C.ar    1  UNL1        0.1445
     41 F           3.5710   -1.6961   26.4052 F       1  UNL1       -0.2040
@<TRIPOS>BOND
     1     6     7    2
     2     7    10    1
     3    10    11    1
     4    11    12   am
     5    12    13    2
     6    12    15    1
     7    15    16   ar
     8    16    17   ar
     9    17    18   ar
    10    18    19   ar
    11    19    21    1
    12    21    22    1
    13    21    23    1
    14    21    24    1
    15    19    20   ar
    16     7     8   am
    17     1     8    1
    18     1     2    1
    19     2     3    1
    20     3     4    1
    21     4    25    1
    22    25    26    1
    23    26    27    1
    24    27    28    1
    25    28    29    1
    26    29    30    1
    27    30    31   am
    28    31    32    2
    29    31    35    1
    30    35    36   ar
    31    36    37   ar
    32    37    38   ar
    33    38    39   ar
    34    39    40   ar
    35    40    41    1
    36    30    33    1
    37    33    34    1
    38     4     5    1
    39    20    15   ar
    40     5     1    1
    41    34    27    1
    42    40    35   ar
    43    11    14    1
    44     8     9    1
@<TRIPOS>MOLECULE
*****
 41 44 0 0 0
SMALL
GASTEIGER

@<TRIPOS>ATOM
      1 C           6.4071   -4.6666   28.8268 C.3     1  UNL1        0.0889
      2 C           6.9710   -5.6947   29.7622 C.3     1  UNL1        0.0383
      3 C           7.1194   -5.0603   31.1133 C.3     1  UNL1        0.0739
      4 N           6.6473   -3.6401   31.0130 N.3     1  UNL1       -0.2712
      5 C           6.2070   -3.3967   29.5999 C.3     1  UNL1        0.0919
      6 O           8.1578   -3.4260   26.7302 O.2     1  UNL1       -0.2733
      7 C           6.9729   -4.2519   26.3252 C.2     1  UNL1        0.2425
      8 N           6.0976   -4.8721   27.3735 N.am    1  UNL1       -0.3032
      9 H           5.3199   -5.4142   27.1078 H       1  UNL1        0.1495
     10 C           6.6633   -4.4574   24.8720 C.3     1  UNL1        0.1759
     11 N           5.7289   -3.5213   24.1645 N.am    1  UNL1       -0.2931
     12 C           5.6311   -3.5482   22.6679 C.2     1  UNL1        0.2462
     13 O           6.4678   -4.5113   21.8789 O.2     1  UNL1       -0.2701
     14 H           5.1798   -2.8892   24.6824 H       1  UNL1        0.1502
     15 C           4.6967   -2.6121   21.9604 C.ar    1  UNL1        0.0533
     16 C           3.7330   -1.7760   22.7492 C.ar    1  UNL1        0.0045
     17 C           2.7987   -0.8399   22.0416 C.ar    1  UNL1        0.0001
     18 C           2.8280   -0.7399   20.5453 C.ar    1  UNL1        0.0039
     19 C           3.7917   -1.5759   19.7565 C.ar    1  UNL1        0.0716
     20 C           4.7261   -2.5120   20.4640 C.ar    1  UNL1        0.0084
     21 C           3.8211   -1.4759   18.2601 C.3     1  UNL1        0.4186
     22 F           3.8504   -1.3759   16.7637 F       1  UNL1       -0.1659
     23 F           2.8782   -0.3108   18.3195 F       1  UNL1       -0.1659
     24 F           4.7639   -2.6410   18.2007 F       1  UNL1       -0.1659
     25 C           6.6202   -2.6390   32.1297 C.3     1  UNL1        0.0721
     26 C           5.3571   -2.4175   32.9079 C.3     1  UNL1        0.0174
     27 C           4.3802   -1.3673   32.4690 C.3     1  UNL1        0.0048
     28 C           3.7410   -1.4566   31.1150 C.3     1  UNL1        0.0216
     29 C           2.7640   -0.4064   30.6760 C.3     1  UNL1        0.0937
     30 N           2.4264    0.7331   31.5912 N.am    1  UNL1       -0.2760
     31 C           1.4494    1.7834   31.1523 C.2     1  UNL1        0.2512
     32 O           1.1117    2.9229   32.0674 O.2     1  UNL1       -0.2698
     33 C           3.0656    0.8225   32.9452 C.3     1  UNL1        0.0937
     34 C           4.0425   -0.2278   33.3841 C.3     1  UNL1        0.0216
     35 C           0.8102    1.6941   29.7982 C.ar    1  UNL1        0.0810
     36 C          -0.4315    0.8745   29.6077 C.ar    1  UNL1        0.0068
     37 C          -1.0707    0.7852   28.2536 C.ar    1  UNL1        0.0003
     38 C          -0.4682    1.5155   27.0902 C.ar    1  UNL1        0.0023
     39 C           0.7735    2.3351   27.2808 C.ar    1  UNL1        0.0298
     40 C           1.4128    2.4244   28.6348 C.ar    1  UNL1        0.1445
     41 F           2.6544    3.2440   28.8254 F       1  UNL1       -0.2040
@<TRIPOS>BOND
     1     6     7    2
     2     7    10    1
     3    10    11    1
     4    11    12   am
     5    12    13    2
     6    12    15    1
     7    15    16   ar
     8    16    17   ar
     9    17    18   ar
    10    18    19   ar
    11    19    21    1
    12    21    22    1
    13    21    23    1
    14    21    24    1
    15    19    20   ar
    16     7     8   am
    17     1     8    1
    18     1     2    1
    19     2     3    1
    20     3     4    1
    21     4    25    1
    22    25    26    1
    23    26    27    1
    24    27    28    1
    25    28    29    1
    26    29    30    1
    27    30    31   am
    28    31    32    2
    29    31    35    1
    30    35    36   ar
    31    36    37   ar
    32    37    38   ar
    33    38    39   ar
    34    39    40   ar
    35    40    41    1
    36    30    33    1
    37    33    34    1
    38     4     5    1
    39    20    15   ar
    40     5     1    1
    41    34    27    1
    42    40    35   ar
    43    11    14    1
    44     8     9    1
@<TRIPOS>MOLECULE
*****
 41 44 0 0 0
SMALL
GASTEIGER

@<TRIPOS>ATOM
      1 C         -17.9236   -6.9169   19.5589 C.3     1  UNL1        0.0889
      2 C         -17.9801   -8.1268   20.4438 C.3     1  UNL1        0.0383
      3 C         -16.9941   -9.1293   19.9217 C.3     1  UNL1        0.0739
      4 N         -16.3281   -8.5390   18.7141 N.3     1  UNL1       -0.2712
      5 C         -16.9026   -7.1717   18.4899 C.3     1  UNL1        0.0919
      6 O         -16.5830   -4.3068   20.1838 O.2     1  UNL1       -0.2733
      7 C         -18.0737   -4.3659   20.0280 C.2     1  UNL1        0.2425
      8 N         -18.7440   -5.6709   19.7155 N.am    1  UNL1       -0.3032
      9 H         -19.7224   -5.7096   19.6133 H       1  UNL1        0.1495
     10 C         -18.8942   -3.1200   20.1846 C.3     1  UNL1        0.1759
     11 N         -18.2227   -1.8124   20.4838 N.am    1  UNL1       -0.2931
     12 C         -17.6464   -0.9926   19.3678 C.2     1  UNL1        0.2462
     13 O         -17.7415   -1.4802   17.9524 O.2     1  UNL1       -0.2701
     14 H         -18.1602   -1.4924   21.4128 H       1  UNL1        0.1502
     15 C         -16.9749    0.3150   19.6670 C.ar    1  UNL1        0.0533
     16 C         -15.9574    0.8707   18.7152 C.ar    1  UNL1        0.0045
     17 C         -15.2860    2.1782   19.0145 C.ar    1  UNL1        0.0001
     18 C         -15.6320    2.9300   20.2655 C.ar    1  UNL1        0.0039
     19 C         -16.6494    2.3742   21.2173 C.ar    1  UNL1        0.0716
     20 C         -17.3209    1.0668   20.9181 C.ar    1  UNL1        0.0084
     21 C         -16.9954    3.1260   22.4684 C.3     1  UNL1        0.4186
     22 F         -17.3414    3.8778   23.7194 F       1  UNL1       -0.1659
     23 F         -16.8328    4.4236   21.7336 F       1  UNL1       -0.1659
     24 F         -17.1581    1.8284   23.2031 F       1  UNL1       -0.1659
     25 C         -15.2730   -9.2001   17.8776 C.3     1  UNL1        0.0721
     26 C         -14.5431   -8.4120   16.8307 C.3     1  UNL1        0.0174
     27 C         -13.5962   -7.3219   17.2369 C.3     1  UNL1        0.0048
     28 C         -13.8801   -5.9000   16.8524 C.3     1  UNL1        0.0216
     29 C         -12.9332   -4.8098   17.2587 C.3     1  UNL1        0.0937
     30 N         -11.7025   -5.1416   18.0494 N.am    1  UNL1       -0.2760
     31 C         -10.7556   -4.0514   18.4556 C.2     1  UNL1        0.2512
     32 O          -9.5248   -4.3831   19.2464 O.2     1  UNL1       -0.2698
     33 C         -11.4186   -6.5635   18.4339 C.3     1  UNL1        0.0937
     34 C         -12.3655   -7.6536   18.0276 C.3     1  UNL1        0.0216
     35 C         -11.0394   -2.6296   18.0711 C.ar    1  UNL1        0.0810
     36 C         -10.3585   -2.0247   16.8794 C.ar    1  UNL1        0.0068
     37 C         -10.6424   -0.6029   16.4949 C.ar    1  UNL1        0.0003
     38 C         -11.6072    0.2140   17.3022 C.ar    1  UNL1        0.0023
     39 C         -12.2882   -0.3910   18.4940 C.ar    1  UNL1        0.0298
     40 C         -12.0043   -1.8128   18.8785 C.ar    1  UNL1        0.1445
     41 F         -12.6853   -2.4177   20.0702 F       1  UNL1       -0.2040
@<TRIPOS>BOND
     1     6     7    2
     2     7    10    1
     3    10    11    1
     4    11    12   am
     5    12    13    2
     6    12    15    1
     7    15    16   ar
     8    16    17   ar
     9    17    18   ar
    10    18    19   ar
    11    19    21    1
    12    21    22    1
    13    21    23    1
    14    21    24    1
    15    19    20   ar
    16     7     8   am
    17     1     8    1
    18     1     2    1
    19     2     3    1
    20     3     4    1
    21     4    25    1
    22    25    26    1
    23    26    27    1
    24    27    28    1
    25    28    29    1
    26    29    30    1
    27    30    31   am
    28    31    32    2
    29    31    35    1
    30    35    36   ar
    31    36    37   ar
    32    37    38   ar
    33    38    39   ar
    34    39    40   ar
    35    40    41    1
    36    30    33    1
    37    33    34    1
    38     4     5    1
    39    20    15   ar
    40     5     1    1
    41    34    27    1
    42    40    35   ar
    43    11    14    1
    44     8     9    1
@<TRIPOS>MOLECULE
*****
 41 44 0 0 0
SMALL
GASTEIGER

@<TRIPOS>ATOM
      1 C          -0.6416    2.3544   24.6919 C.3     1  UNL1        0.0889
      2 C          -1.5308    3.2081   25.5465 C.3     1  UNL1        0.0383
      3 C          -1.4262    2.7166   26.9598 C.3     1  UNL1        0.0739
      4 N          -0.4723    1.5591   26.9787 N.3     1  UNL1       -0.2712
      5 C           0.0126    1.3353   25.5770 C.3     1  UNL1        0.0919
      6 O           1.6812    3.9318   23.6353 O.2     1  UNL1       -0.2733
      7 C           0.7198    3.2838   22.6836 C.2     1  UNL1        0.2425
      8 N          -0.4416    2.4951   23.2119 N.am    1  UNL1       -0.3032
      9 H          -1.0726    2.0698   22.5872 H       1  UNL1        0.1495
     10 C           0.9197    3.4245   21.2037 C.3     1  UNL1        0.1759
     11 N           1.8068    2.4614   20.4718 N.am    1  UNL1       -0.2931
     12 C           1.3315    1.0659   20.1949 C.2     1  UNL1        0.2462
     13 O          -0.0308    0.6334   20.6499 O.2     1  UNL1       -0.2701
     14 H           2.7009    2.7452   20.1731 H       1  UNL1        0.1502
     15 C           2.2185    0.1028   19.4630 C.ar    1  UNL1        0.0533
     16 C           2.8033    0.4825   18.1349 C.ar    1  UNL1        0.0045
     17 C           3.6903   -0.4806   17.4031 C.ar    1  UNL1        0.0001
     18 C           3.9926   -1.8234   17.9993 C.ar    1  UNL1        0.0039
     19 C           3.4078   -2.2031   19.3274 C.ar    1  UNL1        0.0716
     20 C           2.5208   -1.2400   20.0593 C.ar    1  UNL1        0.0084
     21 C           3.7101   -3.5459   19.9237 C.3     1  UNL1        0.4186
     22 F           4.0124   -4.8887   20.5200 F       1  UNL1       -0.1659
     23 F           2.9911   -4.2120   18.7882 F       1  UNL1       -0.1659
     24 F           4.4291   -2.8798   21.0592 F       1  UNL1       -0.1659
     25 C          -0.0733    0.7649   28.1870 C.3     1  UNL1        0.0721
     26 C           0.1572    1.4578   29.4973 C.3     1  UNL1        0.0174
     27 C           1.2945    1.0352   30.3792 C.3     1  UNL1        0.0048
     28 C           2.2328   -0.0444   29.9274 C.3     1  UNL1        0.0216
     29 C           3.3703   -0.4670   30.8093 C.3     1  UNL1        0.0937
     30 N           3.5693    0.1901   32.1430 N.am    1  UNL1       -0.2760
     31 C           4.7068   -0.2325   33.0249 C.2     1  UNL1        0.2512
     32 O           4.9058    0.4245   34.3586 O.2     1  UNL1       -0.2698
     33 C           2.6310    1.2697   32.5948 C.3     1  UNL1        0.0937
     34 C           1.4936    1.6922   31.7129 C.3     1  UNL1        0.0216
     35 C           5.6450   -1.3121   32.5731 C.ar    1  UNL1        0.0810
     36 C           6.8962   -0.9545   31.8271 C.ar    1  UNL1        0.0068
     37 C           7.8345   -2.0341   31.3754 C.ar    1  UNL1        0.0003
     38 C           7.5215   -3.4713   31.6696 C.ar    1  UNL1        0.0023
     39 C           6.2703   -3.8288   32.4157 C.ar    1  UNL1        0.0298
     40 C           5.3320   -2.7493   32.8675 C.ar    1  UNL1        0.1445
     41 F           4.0808   -3.1068   33.6135 F       1  UNL1       -0.2040
@<TRIPOS>BOND
     1     6     7    2
     2     7    10    1
     3    10    11    1
     4    11    12   am
     5    12    13    2
     6    12    15    1
     7    15    16   ar
     8    16    17   ar
     9    17    18   ar
    10    18    19   ar
    11    19    21    1
    12    21    22    1
    13    21    23    1
    14    21    24    1
    15    19    20   ar
    16     7     8   am
    17     1     8    1
    18     1     2    1
    19     2     3    1
    20     3     4    1
    21     4    25    1
    22    25    26    1
    23    26    27    1
    24    27    28    1
    25    28    29    1
    26    29    30    1
    27    30    31   am
    28    31    32    2
    29    31    35    1
    30    35    36   ar
    31    36    37   ar
    32    37    38   ar
    33    38    39   ar
    34    39    40   ar
    35    40    41    1
    36    30    33    1
    37    33    34    1
    38     4     5    1
    39    20    15   ar
    40     5     1    1
    41    34    27    1
    42    40    35   ar
    43    11    14    1
    44     8     9    1
@<TRIPOS>MOLECULE
*****
 41 44 0 0 0
SMALL
GASTEIGER

@<TRIPOS>ATOM
      1 C           7.4969   -5.0248   25.5024 C.3     1  UNL1        0.0889
      2 C           7.0658   -6.2984   26.1672 C.3     1  UNL1        0.0383
      3 C           6.8530   -6.0118   27.6241 C.3     1  UNL1        0.0739
      4 N           7.1526   -4.5610   27.8597 N.3     1  UNL1       -0.2712
      5 C           7.5506   -3.9510   26.5484 C.3     1  UNL1        0.0919
      6 O           5.5287   -3.6827   23.6788 O.2     1  UNL1       -0.2733
      7 C           6.8340   -4.1837   23.1353 C.2     1  UNL1        0.2425
      8 N           7.8180   -4.8547   24.0470 N.am    1  UNL1       -0.3032
      9 H           8.6747   -5.1835   23.6902 H       1  UNL1        0.1495
     10 C           7.1551   -4.0137   21.6800 C.3     1  UNL1        0.1759
     11 N           6.4434   -2.9693   20.8719 N.am    1  UNL1       -0.2931
     12 C           5.1254   -3.2869   20.2300 C.2     1  UNL1        0.2462
     13 O           4.5190   -4.6487   20.3962 O.2     1  UNL1       -0.2701
     14 H           6.8414   -2.0755   20.7628 H       1  UNL1        0.1502
     15 C           4.4137   -2.2425   19.4220 C.ar    1  UNL1        0.0533
     16 C           4.9964   -1.7746   18.1214 C.ar    1  UNL1        0.0045
     17 C           4.2847   -0.7303   17.3134 C.ar    1  UNL1        0.0001
     18 C           2.9904   -0.1540   17.8059 C.ar    1  UNL1        0.0039
     19 C           2.4077   -0.6219   19.1065 C.ar    1  UNL1        0.0716
     20 C           3.1194   -1.6662   19.9145 C.ar    1  UNL1        0.0084
     21 C           1.1134   -0.0456   19.5990 C.3     1  UNL1        0.4186
     22 F          -0.1809    0.5307   20.0916 F       1  UNL1       -0.1659
     23 F           0.9919    0.7585   18.3386 F       1  UNL1       -0.1659
     24 F           1.2350   -0.8498   20.8594 F       1  UNL1       -0.1659
     25 C           7.0690   -3.8459   29.1756 C.3     1  UNL1        0.0721
     26 C           7.0837   -2.3465   29.2165 C.3     1  UNL1        0.0174
     27 C           5.8333   -1.5933   29.5615 C.3     1  UNL1        0.0048
     28 C           4.8470   -1.2447   28.4865 C.3     1  UNL1        0.0216
     29 C           3.5965   -0.4914   28.8314 C.3     1  UNL1        0.0937
     30 N           3.3323   -0.0870   30.2515 N.am    1  UNL1       -0.2760
     31 C           2.0818    0.6662   30.5965 C.2     1  UNL1        0.2512
     32 O           1.8175    1.0707   32.0166 O.2     1  UNL1       -0.2698
     33 C           4.3186   -0.4357   31.3266 C.3     1  UNL1        0.0937
     34 C           5.5690   -1.1888   30.9816 C.3     1  UNL1        0.0216
     35 C           1.0956    1.0149   29.5215 C.ar    1  UNL1        0.0810
     36 C           0.0580    0.0159   29.1028 C.ar    1  UNL1        0.0068
     37 C          -0.9282    0.3645   28.0278 C.ar    1  UNL1        0.0003
     38 C          -0.8768    1.7123   27.3714 C.ar    1  UNL1        0.0023
     39 C           0.1608    2.7114   27.7900 C.ar    1  UNL1        0.0298
     40 C           1.1470    2.3627   28.8651 C.ar    1  UNL1        0.1445
     41 F           2.1846    3.3617   29.2837 F       1  UNL1       -0.2040
@<TRIPOS>BOND
     1     6     7    2
     2     7    10    1
     3    10    11    1
     4    11    12   am
     5    12    13    2
     6    12    15    1
     7    15    16   ar
     8    16    17   ar
     9    17    18   ar
    10    18    19   ar
    11    19    21    1
    12    21    22    1
    13    21    23    1
    14    21    24    1
    15    19    20   ar
    16     7     8   am
    17     1     8    1
    18     1     2    1
    19     2     3    1
    20     3     4    1
    21     4    25    1
    22    25    26    1
    23    26    27    1
    24    27    28    1
    25    28    29    1
    26    29    30    1
    27    30    31   am
    28    31    32    2
    29    31    35    1
    30    35    36   ar
    31    36    37   ar
    32    37    38   ar
    33    38    39   ar
    34    39    40   ar
    35    40    41    1
    36    30    33    1
    37    33    34    1
    38     4     5    1
    39    20    15   ar
    40     5     1    1
    41    34    27    1
    42    40    35   ar
    43    11    14    1
    44     8     9    1
@<TRIPOS>MOLECULE
*****
 41 44 0 0 0
SMALL
GASTEIGER

@<TRIPOS>ATOM
      1 C           0.3884    2.0908   23.5820 C.3     1  UNL1        0.0889
      2 C          -0.4644    3.2069   24.1083 C.3     1  UNL1        0.0383
      3 C          -0.8781    2.8546   25.5064 C.3     1  UNL1        0.0739
      4 N          -0.2809    1.5206   25.8443 N.3     1  UNL1       -0.2712
      5 C           0.5018    1.0486   24.6549 C.3     1  UNL1        0.0919
      6 O          -1.3339    2.1821   21.1273 O.2     1  UNL1       -0.2733
      7 C           0.1563    2.0735   20.9944 C.2     1  UNL1        0.2425
      8 N           1.0174    2.0278   22.2217 N.am    1  UNL1       -0.3032
      9 H           1.9954    1.9565   22.1344 H       1  UNL1        0.1495
     10 C           0.7853    2.0105   19.6341 C.3     1  UNL1        0.1759
     11 N           1.5207    0.7758   19.2043 N.am    1  UNL1       -0.2931
     12 C           2.9244    0.5366   19.6758 C.2     1  UNL1        0.2462
     13 O           3.5927    1.5320   20.5772 O.2     1  UNL1       -0.2701
     14 H           1.0821    0.1225   18.6127 H       1  UNL1        0.1502
     15 C           3.6598   -0.6982   19.2459 C.ar    1  UNL1        0.0533
     16 C           4.8313   -0.5877   18.3157 C.ar    1  UNL1        0.0045
     17 C           5.5666   -1.8224   17.8859 C.ar    1  UNL1        0.0001
     18 C           5.1305   -3.1675   18.3863 C.ar    1  UNL1        0.0039
     19 C           3.9591   -3.2780   19.3166 C.ar    1  UNL1        0.0716
     20 C           3.2237   -2.0433   19.7464 C.ar    1  UNL1        0.0084
     21 C           3.5230   -4.6231   19.8171 C.3     1  UNL1        0.4186
     22 F           3.0869   -5.9682   20.3175 F       1  UNL1       -0.1659
     23 F           4.4104   -4.4647   21.0160 F       1  UNL1       -0.1659
     24 F           2.6355   -4.7814   18.6182 F       1  UNL1       -0.1659
     25 C          -0.4387    0.7875   27.1433 C.3     1  UNL1        0.0721
     26 C          -0.5028    1.5514   28.4326 C.3     1  UNL1        0.0174
     27 C           0.4988    1.2800   29.5157 C.3     1  UNL1        0.0048
     28 C           1.5567    0.2358   29.3144 C.3     1  UNL1        0.0216
     29 C           2.5584   -0.0357   30.3975 C.3     1  UNL1        0.0937
     30 N           2.5020    0.7371   31.6819 N.am    1  UNL1       -0.2760
     31 C           3.5036    0.4656   32.7650 C.2     1  UNL1        0.2512
     32 O           3.4473    1.2384   34.0495 O.2     1  UNL1       -0.2698
     33 C           1.4441    1.7813   31.8833 C.3     1  UNL1        0.0937
     34 C           0.4425    2.0527   30.8002 C.3     1  UNL1        0.0216
     35 C           4.5615   -0.5785   32.5637 C.ar    1  UNL1        0.0810
     36 C           4.3219   -1.9869   33.0207 C.ar    1  UNL1        0.0068
     37 C           5.3798   -3.0310   32.8194 C.ar    1  UNL1        0.0003
     38 C           6.6774   -2.6668   32.1610 C.ar    1  UNL1        0.0023
     39 C           6.9170   -1.2583   31.7039 C.ar    1  UNL1        0.0298
     40 C           5.8591   -0.2142   31.9053 C.ar    1  UNL1        0.1445
     41 F           6.0988    1.1942   31.4482 F       1  UNL1       -0.2040
@<TRIPOS>BOND
     1     6     7    2
     2     7    10    1
     3    10    11    1
     4    11    12   am
     5    12    13    2
     6    12    15    1
     7    15    16   ar
     8    16    17   ar
     9    17    18   ar
    10    18    19   ar
    11    19    21    1
    12    21    22    1
    13    21    23    1
    14    21    24    1
    15    19    20   ar
    16     7     8   am
    17     1     8    1
    18     1     2    1
    19     2     3    1
    20     3     4    1
    21     4    25    1
    22    25    26    1
    23    26    27    1
    24    27    28    1
    25    28    29    1
    26    29    30    1
    27    30    31   am
    28    31    32    2
    29    31    35    1
    30    35    36   ar
    31    36    37   ar
    32    37    38   ar
    33    38    39   ar
    34    39    40   ar
    35    40    41    1
    36    30    33    1
    37    33    34    1
    38     4     5    1
    39    20    15   ar
    40     5     1    1
    41    34    27    1
    42    40    35   ar
    43    11    14    1
    44     8     9    1
