@<TRIPOS>MOLECULE
*****
 34 36 0 0 0
SMALL
GASTEIGER

@<TRIPOS>ATOM
      1 C          -8.7660  -18.6969   21.9319 C.ar    1  UNL1        0.0053
      2 C          -8.6714  -19.3381   20.5792 C.ar    1  UNL1        0.0033
      3 C          -7.3332  -19.5156   19.9253 C.ar    1  UNL1        0.0382
      4 C          -6.0896  -19.0518   20.6241 C.ar    1  UNL1        0.1524
      5 C          -6.1841  -18.4105   21.9767 C.ar    1  UNL1        0.0881
      6 C          -7.5223  -18.2330   22.6307 C.ar    1  UNL1        0.0181
      7 N          -4.9405  -17.9467   22.6755 N.am    1  UNL1       -0.2514
      8 C          -3.6023  -18.1241   22.0216 C.2     1  UNL1        0.2657
      9 O          -2.3587  -17.6603   22.7203 O.2     1  UNL1       -0.2708
     10 C          -3.5077  -18.7654   20.6688 C.3     1  UNL1        0.2012
     11 C          -2.9090  -19.3115   19.4065 C.3     1  UNL1        0.0532
     12 C          -2.0561  -18.4913   20.9292 C.3     1  UNL1        0.0532
     13 O          -4.7513  -19.2293   19.9701 O.3     1  UNL1       -0.4727
     14 C         -11.0228  -17.4249   22.1295 C.ar    1  UNL1        0.0645
     15 N         -12.3610  -17.2474   22.7834 N.ar    1  UNL1       -0.2183
     16 C         -12.7807  -18.1644   23.8939 C.ar    1  UNL1        0.2145
     17 N         -14.1189  -17.9869   24.5478 N.pl3   1  UNL1       -0.3274
     18 N         -11.8621  -19.2589   24.3503 N.ar    1  UNL1       -0.1995
     19 C         -10.5239  -19.4364   23.6963 C.ar    1  UNL1        0.1293
     20 N          -9.6053  -20.5309   24.1527 N.pl3   1  UNL1       -0.3425
     21 C         -10.1042  -18.5194   22.5859 C.ar    1  UNL1        0.0449
     22 H         -14.7217  -17.2685   24.2482 H       1  UNL1        0.1452
     23 H         -14.3943  -18.5887   25.2766 H       1  UNL1        0.1452
     24 H          -9.8808  -21.1327   24.8815 H       1  UNL1        0.1437
     25 H          -8.7270  -20.6474   23.7235 H       1  UNL1        0.1437
     26 C         -11.4850  -16.3309   19.8187 C.3     1  UNL1        0.0067
     27 C         -10.6030  -16.5078   21.0190 C.3     1  UNL1        0.0460
     28 C          -5.0351  -17.3054   24.0282 C.3     1  UNL1        0.1196
     29 C          -5.6683  -15.9535   24.1747 C.3     1  UNL1        0.1113
     30 N          -6.1373  -15.4869   25.5210 N.am    1  UNL1       -0.3026
     31 C          -7.5744  -15.6582   25.9152 C.2     1  UNL1        0.2230
     32 C          -8.0435  -15.1917   27.2614 C.3     1  UNL1        0.0946
     33 O          -8.5425  -16.2960   24.9633 O.2     1  UNL1       -0.2751
     34 H          -5.5020  -15.0684   26.1457 H       1  UNL1        0.1495
@<TRIPOS>BOND
     1    26    27    1
     2    27    14    1
     3    14    15   ar
     4    15    16   ar
     5    16    17    1
     6    16    18   ar
     7    18    19   ar
     8    19    20    1
     9    19    21   ar
    10    21     1    1
    11     1     2   ar
    12     2     3   ar
    13     3     4   ar
    14     4     5   ar
    15     5     6   ar
    16     5     7    1
    17     7    28    1
    18    28    29    1
    19    29    30    1
    20    30    31   am
    21    31    32    1
    22    31    33    2
    23     7     8   am
    24     8     9    2
    25     8    10    1
    26    10    11    1
    27    10    12    1
    28    10    13    1
    29    21    14   ar
    30     6     1   ar
    31    13     4    1
    32    17    22    1
    33    17    23    1
    34    20    24    1
    35    20    25    1
    36    30    34    1
@<TRIPOS>MOLECULE
*****
 34 36 0 0 0
SMALL
GASTEIGER

@<TRIPOS>ATOM
      1 C          -8.5932  -18.6081   21.7408 C.ar    1  UNL1        0.0053
      2 C          -8.4654  -19.2314   20.3825 C.ar    1  UNL1        0.0033
      3 C          -7.1099  -19.4211   19.7689 C.ar    1  UNL1        0.0382
      4 C          -5.8822  -18.9875   20.5136 C.ar    1  UNL1        0.1524
      5 C          -6.0100  -18.3642   21.8720 C.ar    1  UNL1        0.0881
      6 C          -7.3655  -18.1745   22.4856 C.ar    1  UNL1        0.0181
      7 N          -4.7822  -17.9306   22.6167 N.am    1  UNL1       -0.2514
      8 C          -3.4267  -18.1203   22.0031 C.2     1  UNL1        0.2657
      9 O          -2.1990  -17.6867   22.7479 O.2     1  UNL1       -0.2708
     10 C          -3.2989  -18.7436   20.6447 C.3     1  UNL1        0.2012
     11 C          -2.6687  -19.2812   19.3942 C.3     1  UNL1        0.0532
     12 C          -1.8523  -18.4967   20.9551 C.3     1  UNL1        0.0532
     13 O          -4.5266  -19.1772   19.9000 O.3     1  UNL1       -0.4727
     14 C         -10.4154  -19.3402   23.4419 C.ar    1  UNL1        0.0645
     15 N         -11.7709  -19.1505   24.0556 N.ar    1  UNL1       -0.2183
     16 C         -12.6598  -18.0389   23.5819 C.ar    1  UNL1        0.2145
     17 N         -14.0153  -17.8493   24.1955 N.pl3   1  UNL1       -0.3274
     18 N         -12.1932  -17.1171   22.4945 N.ar    1  UNL1       -0.1995
     19 C         -10.8376  -17.3068   21.8808 C.ar    1  UNL1        0.1293
     20 N         -10.3709  -16.3850   20.7934 N.pl3   1  UNL1       -0.3425
     21 C          -9.9488  -18.4184   22.3545 C.ar    1  UNL1        0.0449
     22 H         -14.3216  -18.4543   24.9092 H       1  UNL1        0.1452
     23 H         -14.5987  -17.1197   23.8846 H       1  UNL1        0.1452
     24 H         -10.9543  -15.6554   20.4825 H       1  UNL1        0.1437
     25 H          -9.4813  -16.5095   20.3906 H       1  UNL1        0.1437
     26 C          -9.9211  -21.2709   25.1087 C.3     1  UNL1        0.0067
     27 C          -9.5265  -20.4518   23.9156 C.3     1  UNL1        0.0460
     28 C          -4.9100  -17.3073   23.9751 C.3     1  UNL1        0.1196
     29 C          -5.5093  -15.9398   24.1194 C.3     1  UNL1        0.1113
     30 N          -5.9768  -15.4639   25.4630 N.am    1  UNL1       -0.3026
     31 C          -7.4060  -15.6620   25.8732 C.2     1  UNL1        0.2230
     32 C          -7.8735  -15.1861   27.2166 C.3     1  UNL1        0.0946
     33 O          -8.3676  -16.3361   24.9399 O.2     1  UNL1       -0.2751
     34 H          -5.3457  -15.0215   26.0755 H       1  UNL1        0.1495
@<TRIPOS>BOND
     1    26    27    1
     2    27    14    1
     3    14    15   ar
     4    15    16   ar
     5    16    17    1
     6    16    18   ar
     7    18    19   ar
     8    19    20    1
     9    19    21   ar
    10    21     1    1
    11     1     2   ar
    12     2     3   ar
    13     3     4   ar
    14     4     5   ar
    15     5     6   ar
    16     5     7    1
    17     7    28    1
    18    28    29    1
    19    29    30    1
    20    30    31   am
    21    31    32    1
    22    31    33    2
    23     7     8   am
    24     8     9    2
    25     8    10    1
    26    10    11    1
    27    10    12    1
    28    10    13    1
    29    21    14   ar
    30     6     1   ar
    31    13     4    1
    32    17    22    1
    33    17    23    1
    34    20    24    1
    35    20    25    1
    36    30    34    1
@<TRIPOS>MOLECULE
*****
 34 36 0 0 0
SMALL
GASTEIGER

@<TRIPOS>ATOM
      1 C          -8.9046  -18.4451   22.1744 C.ar    1  UNL1        0.0053
      2 C         -10.0469  -18.5648   23.1392 C.ar    1  UNL1        0.0033
      3 C          -9.9900  -17.8568   24.4603 C.ar    1  UNL1        0.0382
      4 C          -8.7909  -17.0291   24.8166 C.ar    1  UNL1        0.1524
      5 C          -7.6487  -16.9093   23.8519 C.ar    1  UNL1        0.0881
      6 C          -7.7055  -17.6173   22.5307 C.ar    1  UNL1        0.0181
      7 N          -6.4496  -16.0815   24.2082 N.am    1  UNL1       -0.2514
      8 C          -6.3927  -15.3736   25.5294 C.2     1  UNL1        0.2657
      9 O          -5.1937  -14.5458   25.8857 O.2     1  UNL1       -0.2708
     10 C          -7.5350  -15.4933   26.4942 C.3     1  UNL1        0.2012
     11 C          -8.3605  -15.3026   27.7321 C.3     1  UNL1        0.0532
     12 C          -6.6226  -14.5993   27.2805 C.3     1  UNL1        0.0532
     13 O          -8.7341  -16.3210   26.1379 O.3     1  UNL1       -0.4727
     14 C         -10.1561  -18.9835   19.9621 C.ar    1  UNL1        0.0645
     15 N         -10.2129  -19.6915   18.6410 N.ar    1  UNL1       -0.2183
     16 C          -9.0750  -20.5691   18.2108 C.ar    1  UNL1        0.2145
     17 N          -9.1319  -21.2770   16.8896 N.pl3   1  UNL1       -0.3274
     18 N          -7.8803  -20.7387   19.1018 N.ar    1  UNL1       -0.1995
     19 C          -7.8235  -20.0306   20.4230 C.ar    1  UNL1        0.1293
     20 N          -6.6288  -20.2002   21.3140 N.pl3   1  UNL1       -0.3425
     21 C          -8.9614  -19.1531   20.8531 C.ar    1  UNL1        0.0449
     22 H          -9.9160  -21.1657   16.3048 H       1  UNL1        0.1452
     23 H          -8.3850  -21.8530   16.6072 H       1  UNL1        0.1452
     24 H          -5.8819  -20.7762   21.0316 H       1  UNL1        0.1437
     25 H          -6.5915  -19.7355   22.1811 H       1  UNL1        0.1437
     26 C         -11.3548  -16.6786   19.9351 C.3     1  UNL1        0.0067
     27 C         -11.2940  -18.1059   20.3924 C.3     1  UNL1        0.0460
     28 C          -5.3073  -15.9618   23.2434 C.3     1  UNL1        0.1196
     29 C          -4.0383  -16.7240   23.4853 C.3     1  UNL1        0.1113
     30 N          -3.2920  -17.3239   22.3305 N.am    1  UNL1       -0.3026
     31 C          -3.4276  -18.7870   22.0288 C.2     1  UNL1        0.2230
     32 C          -2.6814  -19.3869   20.8741 C.3     1  UNL1        0.0946
     33 O          -4.3094  -19.6502   22.8818 O.2     1  UNL1       -0.2751
     34 H          -2.7133  -16.7574   21.7707 H       1  UNL1        0.1495
@<TRIPOS>BOND
     1    26    27    1
     2    27    14    1
     3    14    15   ar
     4    15    16   ar
     5    16    17    1
     6    16    18   ar
     7    18    19   ar
     8    19    20    1
     9    19    21   ar
    10    21     1    1
    11     1     2   ar
    12     2     3   ar
    13     3     4   ar
    14     4     5   ar
    15     5     6   ar
    16     5     7    1
    17     7    28    1
    18    28    29    1
    19    29    30    1
    20    30    31   am
    21    31    32    1
    22    31    33    2
    23     7     8   am
    24     8     9    2
    25     8    10    1
    26    10    11    1
    27    10    12    1
    28    10    13    1
    29    21    14   ar
    30     6     1   ar
    31    13     4    1
    32    17    22    1
    33    17    23    1
    34    20    24    1
    35    20    25    1
    36    30    34    1
@<TRIPOS>MOLECULE
*****
 34 36 0 0 0
SMALL
GASTEIGER

@<TRIPOS>ATOM
      1 C          -8.9411  -18.3904   22.1266 C.ar    1  UNL1        0.0053
      2 C         -10.1262  -18.4169   23.0457 C.ar    1  UNL1        0.0033
      3 C         -10.0738  -17.6924   24.3581 C.ar    1  UNL1        0.0382
      4 C          -8.8363  -16.9414   24.7514 C.ar    1  UNL1        0.1524
      5 C          -7.6512  -16.9150   23.8323 C.ar    1  UNL1        0.0881
      6 C          -7.7036  -17.6394   22.5199 C.ar    1  UNL1        0.0181
      7 N          -6.4137  -16.1640   24.2255 N.am    1  UNL1       -0.2514
      8 C          -6.3613  -15.4395   25.5379 C.2     1  UNL1        0.2657
      9 O          -5.1238  -14.6886   25.9312 O.2     1  UNL1       -0.2708
     10 C          -7.5465  -15.4660   26.4571 C.3     1  UNL1        0.2012
     11 C          -8.4054  -15.1996   27.6576 C.3     1  UNL1        0.0532
     12 C          -6.6073  -14.6225   27.2673 C.3     1  UNL1        0.0532
     13 O          -8.7840  -16.2170   26.0638 O.3     1  UNL1       -0.4727
     14 C          -7.8238  -19.9401   20.3659 C.ar    1  UNL1        0.0645
     15 N          -7.8761  -20.6645   19.0535 N.ar    1  UNL1       -0.2183
     16 C          -9.0981  -20.5638   18.1894 C.ar    1  UNL1        0.2145
     17 N          -9.1504  -21.2883   16.8770 N.pl3   1  UNL1       -0.3274
     18 N         -10.2678  -19.7386   18.6377 N.ar    1  UNL1       -0.1995
     19 C         -10.2154  -19.0141   19.9501 C.ar    1  UNL1        0.1293
     20 N         -11.3851  -18.1889   20.3984 N.pl3   1  UNL1       -0.3425
     21 C          -8.9935  -19.1149   20.8142 C.ar    1  UNL1        0.0449
     22 H          -8.3828  -21.8299   16.5828 H       1  UNL1        0.1452
     23 H          -9.9525  -21.2222   16.3099 H       1  UNL1        0.1452
     24 H         -12.1871  -18.1228   19.8313 H       1  UNL1        0.1437
     25 H         -11.3507  -17.7134   21.2598 H       1  UNL1        0.1437
     26 C          -5.2838  -20.4217   20.6236 C.3     1  UNL1        0.0067
     27 C          -6.6018  -20.0408   21.2300 C.3     1  UNL1        0.0460
     28 C          -5.2286  -16.1375   23.3065 C.3     1  UNL1        0.1196
     29 C          -4.1237  -17.1373   23.4783 C.3     1  UNL1        0.1113
     30 N          -3.5661  -17.8518   22.2830 N.am    1  UNL1       -0.3026
     31 C          -2.6136  -17.1458   21.3641 C.2     1  UNL1        0.2230
     32 C          -2.0561  -17.8602   20.1689 C.3     1  UNL1        0.0946
     33 O          -2.2187  -15.7254   21.6406 O.2     1  UNL1       -0.2751
     34 H          -3.8253  -18.7841   22.1016 H       1  UNL1        0.1495
@<TRIPOS>BOND
     1    26    27    1
     2    27    14    1
     3    14    15   ar
     4    15    16   ar
     5    16    17    1
     6    16    18   ar
     7    18    19   ar
     8    19    20    1
     9    19    21   ar
    10    21     1    1
    11     1     2   ar
    12     2     3   ar
    13     3     4   ar
    14     4     5   ar
    15     5     6   ar
    16     5     7    1
    17     7    28    1
    18    28    29    1
    19    29    30    1
    20    30    31   am
    21    31    32    1
    22    31    33    2
    23     7     8   am
    24     8     9    2
    25     8    10    1
    26    10    11    1
    27    10    12    1
    28    10    13    1
    29    21    14   ar
    30     6     1   ar
    31    13     4    1
    32    17    22    1
    33    17    23    1
    34    20    24    1
    35    20    25    1
    36    30    34    1
@<TRIPOS>MOLECULE
*****
 34 36 0 0 0
SMALL
GASTEIGER

@<TRIPOS>ATOM
      1 C          -0.2928    2.7824   27.0248 C.ar    1  UNL1        0.0053
      2 C           0.7488    2.6122   25.9590 C.ar    1  UNL1        0.0033
      3 C           0.3807    2.7888   24.5157 C.ar    1  UNL1        0.0382
      4 C          -1.0290    3.1356   24.1381 C.ar    1  UNL1        0.1524
      5 C          -2.0706    3.3058   25.2040 C.ar    1  UNL1        0.0881
      6 C          -1.7025    3.1292   26.6473 C.ar    1  UNL1        0.0181
      7 N          -3.4802    3.6526   24.8265 N.am    1  UNL1       -0.2514
      8 C          -3.8483    3.8292   23.3831 C.2     1  UNL1        0.2657
      9 O          -5.2580    4.1760   23.0056 O.2     1  UNL1       -0.2708
     10 C          -2.8067    3.6590   22.3172 C.3     1  UNL1        0.2012
     11 C          -2.1789    3.6024   20.9561 C.3     1  UNL1        0.0532
     12 C          -3.9983    3.9861   21.4670 C.3     1  UNL1        0.0532
     13 O          -1.3970    3.3122   22.6947 O.3     1  UNL1       -0.4727
     14 C          -0.0717    1.2632   29.1209 C.ar    1  UNL1        0.0645
     15 N           0.2964    1.0866   30.5642 N.ar    1  UNL1       -0.2183
     16 C           0.8113    2.2526   31.3551 C.ar    1  UNL1        0.2145
     17 N           1.1794    2.0760   32.7984 N.pl3   1  UNL1       -0.3274
     18 N           0.9583    3.5952   30.7025 N.ar    1  UNL1       -0.1995
     19 C           0.5902    3.7718   29.2590 C.ar    1  UNL1        0.1293
     20 N           0.7371    5.1144   28.6064 N.pl3   1  UNL1       -0.3425
     21 C           0.0753    2.6058   28.4683 C.ar    1  UNL1        0.0449
     22 H           1.0829    1.1948   33.2267 H       1  UNL1        0.1452
     23 H           1.5173    2.8412   33.3174 H       1  UNL1        0.1452
     24 H           1.0751    5.8796   29.1254 H       1  UNL1        0.1437
     25 H           0.4956    5.2303   27.6591 H       1  UNL1        0.1437
     26 C          -1.6675   -0.7748   28.8970 C.3     1  UNL1        0.0067
     27 C          -0.5866    0.0973   28.3300 C.3     1  UNL1        0.0460
     28 C          -4.5219    3.8228   25.8923 C.3     1  UNL1        0.1196
     29 C          -4.8670    5.1946   26.3915 C.3     1  UNL1        0.1113
     30 N          -4.2985    5.6851   27.6901 N.am    1  UNL1       -0.3026
     31 C          -2.9893    6.4169   27.7069 C.2     1  UNL1        0.2230
     32 C          -2.4208    6.9074   29.0054 C.3     1  UNL1        0.0946
     33 O          -2.2484    6.6582   26.4251 O.2     1  UNL1       -0.2751
     34 H          -4.7848    5.5267   28.5314 H       1  UNL1        0.1495
@<TRIPOS>BOND
     1    26    27    1
     2    27    14    1
     3    14    15   ar
     4    15    16   ar
     5    16    17    1
     6    16    18   ar
     7    18    19   ar
     8    19    20    1
     9    19    21   ar
    10    21     1    1
    11     1     2   ar
    12     2     3   ar
    13     3     4   ar
    14     4     5   ar
    15     5     6   ar
    16     5     7    1
    17     7    28    1
    18    28    29    1
    19    29    30    1
    20    30    31   am
    21    31    32    1
    22    31    33    2
    23     7     8   am
    24     8     9    2
    25     8    10    1
    26    10    11    1
    27    10    12    1
    28    10    13    1
    29    21    14   ar
    30     6     1   ar
    31    13     4    1
    32    17    22    1
    33    17    23    1
    34    20    24    1
    35    20    25    1
    36    30    34    1
@<TRIPOS>MOLECULE
*****
 34 36 0 0 0
SMALL
GASTEIGER

@<TRIPOS>ATOM
      1 C           0.2793    2.4126   26.8565 C.ar    1  UNL1        0.0053
      2 C           1.2868    1.7998   25.9295 C.ar    1  UNL1        0.0033
      3 C           1.0783    1.8659   24.4456 C.ar    1  UNL1        0.0382
      4 C          -0.1377    2.5449   23.8886 C.ar    1  UNL1        0.1524
      5 C          -1.1453    3.1577   24.8155 C.ar    1  UNL1        0.0881
      6 C          -0.9368    3.0915   26.2995 C.ar    1  UNL1        0.0181
      7 N          -2.3613    3.8366   24.2585 N.am    1  UNL1       -0.2514
      8 C          -2.5698    3.9027   22.7746 C.2     1  UNL1        0.2657
      9 O          -3.7859    4.5817   22.2176 O.2     1  UNL1       -0.2708
     10 C          -1.5623    3.2899   21.8476 C.3     1  UNL1        0.2012
     11 C          -0.8967    2.8612   20.5735 C.3     1  UNL1        0.0532
     12 C          -2.5472    3.8199   20.8481 C.3     1  UNL1        0.0532
     13 O          -0.3462    2.6110   22.4046 O.3     1  UNL1       -0.4727
     14 C           0.0486    1.1337   29.1062 C.ar    1  UNL1        0.0645
     15 N           0.2570    1.0675   30.5902 N.ar    1  UNL1       -0.2183
     16 C           0.9047    2.2142   31.3085 C.ar    1  UNL1        0.2145
     17 N           1.1131    2.1480   32.7924 N.pl3   1  UNL1       -0.3274
     18 N           1.3438    3.4270   30.5427 N.ar    1  UNL1       -0.1995
     19 C           1.1353    3.4931   29.0587 C.ar    1  UNL1        0.1293
     20 N           1.5745    4.7058   28.2930 N.pl3   1  UNL1       -0.3425
     21 C           0.4877    2.3465   28.3405 C.ar    1  UNL1        0.0449
     22 H           0.8249    1.3521   33.2950 H       1  UNL1        0.1452
     23 H           1.5381    2.9006   33.2638 H       1  UNL1        0.1452
     24 H           1.9995    5.4584   28.7644 H       1  UNL1        0.1437
     25 H           1.4377    4.7493   27.3190 H       1  UNL1        0.1437
     26 C          -1.7751   -0.7138   29.0009 C.3     1  UNL1        0.0067
     27 C          -0.5990   -0.0129   28.3879 C.3     1  UNL1        0.0460
     28 C          -3.3689    4.4494   25.1855 C.3     1  UNL1        0.1196
     29 C          -4.6123    3.6927   25.5478 C.3     1  UNL1        0.1113
     30 N          -5.7299    3.5670   24.5551 N.am    1  UNL1       -0.3026
     31 C          -6.7516    4.6585   24.4339 C.2     1  UNL1        0.2230
     32 C          -7.8691    4.5329   23.4413 C.3     1  UNL1        0.0946
     33 O          -6.6559    5.8757   25.3054 O.2     1  UNL1       -0.2751
     34 H          -5.7927    2.7682   23.9831 H       1  UNL1        0.1495
@<TRIPOS>BOND
     1    26    27    1
     2    27    14    1
     3    14    15   ar
     4    15    16   ar
     5    16    17    1
     6    16    18   ar
     7    18    19   ar
     8    19    20    1
     9    19    21   ar
    10    21     1    1
    11     1     2   ar
    12     2     3   ar
    13     3     4   ar
    14     4     5   ar
    15     5     6   ar
    16     5     7    1
    17     7    28    1
    18    28    29    1
    19    29    30    1
    20    30    31   am
    21    31    32    1
    22    31    33    2
    23     7     8   am
    24     8     9    2
    25     8    10    1
    26    10    11    1
    27    10    12    1
    28    10    13    1
    29    21    14   ar
    30     6     1   ar
    31    13     4    1
    32    17    22    1
    33    17    23    1
    34    20    24    1
    35    20    25    1
    36    30    34    1
@<TRIPOS>MOLECULE
*****
 34 36 0 0 0
SMALL
GASTEIGER

@<TRIPOS>ATOM
      1 C           7.9271   -4.2276   23.0184 C.ar    1  UNL1        0.0053
      2 C           8.9481   -3.1485   23.2259 C.ar    1  UNL1        0.0033
      3 C           9.0729   -2.0329   22.2310 C.ar    1  UNL1        0.0382
      4 C           8.1767   -1.9964   21.0287 C.ar    1  UNL1        0.1524
      5 C           7.1557   -3.0755   20.8213 C.ar    1  UNL1        0.0881
      6 C           7.0309   -4.1911   21.8161 C.ar    1  UNL1        0.0181
      7 N           6.2595   -3.0390   19.6190 N.am    1  UNL1       -0.2514
      8 C           6.3844   -1.9234   18.6241 C.2     1  UNL1        0.2657
      9 O           5.4882   -1.8869   17.4218 O.2     1  UNL1       -0.2708
     10 C           7.4054   -0.8442   18.8315 C.3     1  UNL1        0.2012
     11 C           8.2126    0.3973   18.5925 C.3     1  UNL1        0.0532
     12 C           6.7895   -0.3766   17.5462 C.3     1  UNL1        0.0532
     13 O           8.3016   -0.8807   20.0338 O.3     1  UNL1       -0.4727
     14 C           7.0720   -5.1187   25.3042 C.ar    1  UNL1        0.0645
     15 N           6.9471   -6.2343   26.2991 N.ar    1  UNL1       -0.2183
     16 C           7.5525   -7.5745   26.0031 C.ar    1  UNL1        0.2145
     17 N           7.4276   -8.6901   26.9980 N.pl3   1  UNL1       -0.3274
     18 N           8.2827   -7.7990   24.7123 N.ar    1  UNL1       -0.1995
     19 C           8.4076   -6.6833   23.7174 C.ar    1  UNL1        0.1293
     20 N           9.1378   -6.9078   22.4265 N.pl3   1  UNL1       -0.3425
     21 C           7.8022   -5.3432   24.0134 C.ar    1  UNL1        0.0449
     22 H           6.9483   -8.5427   27.8453 H       1  UNL1        0.1452
     23 H           7.8249   -9.5696   26.8038 H       1  UNL1        0.1452
     24 H           9.5351   -7.7874   22.2322 H       1  UNL1        0.1437
     25 H           9.2197   -6.1756   21.7735 H       1  UNL1        0.1437
     26 C           7.1529   -2.8380   26.5460 C.3     1  UNL1        0.0067
     27 C           6.4667   -3.7785   25.6002 C.3     1  UNL1        0.0460
     28 C           5.2385   -4.1181   19.4116 C.3     1  UNL1        0.1196
     29 C           3.8211   -3.9044   19.8535 C.3     1  UNL1        0.1113
     30 N           3.0823   -2.6688   19.4320 N.am    1  UNL1       -0.3026
     31 C           2.9957   -1.4936   20.3601 C.2     1  UNL1        0.2230
     32 C           2.2569   -0.2580   19.9387 C.3     1  UNL1        0.0946
     33 O           3.6480   -1.5539   21.7096 O.2     1  UNL1       -0.2751
     34 H           2.6542   -2.6292   18.5464 H       1  UNL1        0.1495
@<TRIPOS>BOND
     1    26    27    1
     2    27    14    1
     3    14    15   ar
     4    15    16   ar
     5    16    17    1
     6    16    18   ar
     7    18    19   ar
     8    19    20    1
     9    19    21   ar
    10    21     1    1
    11     1     2   ar
    12     2     3   ar
    13     3     4   ar
    14     4     5   ar
    15     5     6   ar
    16     5     7    1
    17     7    28    1
    18    28    29    1
    19    29    30    1
    20    30    31   am
    21    31    32    1
    22    31    33    2
    23     7     8   am
    24     8     9    2
    25     8    10    1
    26    10    11    1
    27    10    12    1
    28    10    13    1
    29    21    14   ar
    30     6     1   ar
    31    13     4    1
    32    17    22    1
    33    17    23    1
    34    20    24    1
    35    20    25    1
    36    30    34    1
@<TRIPOS>MOLECULE
*****
 34 36 0 0 0
SMALL
GASTEIGER

@<TRIPOS>ATOM
      1 C           6.8396   -2.6351   31.3440 C.ar    1  UNL1        0.0053
      2 C           7.8734   -2.0178   32.2385 C.ar    1  UNL1        0.0033
      3 C           7.5411   -0.7891   33.0322 C.ar    1  UNL1        0.0382
      4 C           6.1750   -0.1778   32.9314 C.ar    1  UNL1        0.1524
      5 C           5.1412   -0.7951   32.0369 C.ar    1  UNL1        0.0881
      6 C           5.4735   -2.0238   31.2432 C.ar    1  UNL1        0.0181
      7 N           3.7752   -0.1838   31.9361 N.am    1  UNL1       -0.2514
      8 C           3.4429    1.0449   32.7298 C.2     1  UNL1        0.2657
      9 O           2.0769    1.6562   32.6290 O.2     1  UNL1       -0.2708
     10 C           4.4768    1.6623   33.6243 C.3     1  UNL1        0.2012
     11 C           5.1129    2.6057   34.6017 C.3     1  UNL1        0.0532
     12 C           3.3316    2.6012   33.8629 C.3     1  UNL1        0.0532
     13 O           5.8428    1.0509   33.7251 O.3     1  UNL1       -0.4727
     14 C           7.6907   -3.7338   29.1489 C.ar    1  UNL1        0.0645
     15 N           8.0230   -4.9625   28.3552 N.ar    1  UNL1       -0.2183
     16 C           7.8362   -6.3212   28.9628 C.ar    1  UNL1        0.2145
     17 N           8.1685   -7.5498   28.1691 N.pl3   1  UNL1       -0.3274
     18 N           7.3173   -6.4512   30.3642 N.ar    1  UNL1       -0.1995
     19 C           6.9851   -5.2224   31.1579 C.ar    1  UNL1        0.1293
     20 N           6.4661   -5.3524   32.5593 N.pl3   1  UNL1       -0.3425
     21 C           7.1718   -3.8638   30.5503 C.ar    1  UNL1        0.0449
     22 H           8.5091   -7.4645   27.2493 H       1  UNL1        0.1452
     23 H           8.0459   -8.4415   28.5679 H       1  UNL1        0.1452
     24 H           6.3436   -6.2442   32.9581 H       1  UNL1        0.1437
     25 H           6.2481   -4.5460   33.0802 H       1  UNL1        0.1437
     26 C           6.8263   -1.8087   27.6334 C.3     1  UNL1        0.0067
     27 C           7.8774   -2.3751   28.5413 C.3     1  UNL1        0.0460
     28 C           2.7414   -0.8011   31.0416 C.3     1  UNL1        0.1196
     29 C           2.5050   -0.2408   29.6704 C.3     1  UNL1        0.1113
     30 N           1.2911   -0.6523   28.8911 N.am    1  UNL1       -0.3026
     31 C          -0.0403   -0.0311   29.1934 C.2     1  UNL1        0.2230
     32 C          -1.2542   -0.4425   28.4141 C.3     1  UNL1        0.0946
     33 O          -0.1579    1.0016   30.2750 O.2     1  UNL1       -0.2751
     34 H           1.3683   -1.3300   28.1812 H       1  UNL1        0.1495
@<TRIPOS>BOND
     1    26    27    1
     2    27    14    1
     3    14    15   ar
     4    15    16   ar
     5    16    17    1
     6    16    18   ar
     7    18    19   ar
     8    19    20    1
     9    19    21   ar
    10    21     1    1
    11     1     2   ar
    12     2     3   ar
    13     3     4   ar
    14     4     5   ar
    15     5     6   ar
    16     5     7    1
    17     7    28    1
    18    28    29    1
    19    29    30    1
    20    30    31   am
    21    31    32    1
    22    31    33    2
    23     7     8   am
    24     8     9    2
    25     8    10    1
    26    10    11    1
    27    10    12    1
    28    10    13    1
    29    21    14   ar
    30     6     1   ar
    31    13     4    1
    32    17    22    1
    33    17    23    1
    34    20    24    1
    35    20    25    1
    36    30    34    1
@<TRIPOS>MOLECULE
*****
 34 36 0 0 0
SMALL
GASTEIGER

@<TRIPOS>ATOM
      1 C           3.5377    2.5383   35.9326 C.ar    1  UNL1        0.0053
      2 C           2.3811    3.4404   35.6191 C.ar    1  UNL1        0.0033
      3 C           1.6525    3.3001   34.3154 C.ar    1  UNL1        0.0382
      4 C           2.0806    2.2577   33.3254 C.ar    1  UNL1        0.1524
      5 C           3.2373    1.3556   33.6390 C.ar    1  UNL1        0.0881
      6 C           3.9659    1.4960   34.9426 C.ar    1  UNL1        0.0181
      7 N           3.6654    0.3133   32.6489 N.am    1  UNL1       -0.2514
      8 C           2.9368    0.1729   31.3453 C.2     1  UNL1        0.2657
      9 O           3.3650   -0.8694   30.3553 O.2     1  UNL1       -0.2708
     10 C           1.7801    1.0750   31.0317 C.3     1  UNL1        0.2012
     11 C           0.6338    1.6891   30.2841 C.3     1  UNL1        0.0532
     12 C           1.8101    0.2459   29.7820 C.3     1  UNL1        0.0532
     13 O           1.3520    2.1174   32.0217 O.3     1  UNL1       -0.4727
     14 C           3.8035    1.9131   38.4403 C.ar    1  UNL1        0.0645
     15 N           4.5321    2.0533   39.7440 N.ar    1  UNL1       -0.2183
     16 C           5.7236    2.9592   39.8436 C.ar    1  UNL1        0.2145
     17 N           6.4521    3.0994   41.1472 N.pl3   1  UNL1       -0.3274
     18 N           6.1864    3.7247   38.6396 N.ar    1  UNL1       -0.1995
     19 C           5.4578    3.5845   37.3359 C.ar    1  UNL1        0.1293
     20 N           5.9206    4.3500   36.1319 N.pl3   1  UNL1       -0.3425
     21 C           4.2664    2.6786   37.2363 C.ar    1  UNL1        0.0449
     22 H           6.1483    2.5970   41.9375 H       1  UNL1        0.1452
     23 H           7.2341    3.6940   41.2126 H       1  UNL1        0.1452
     24 H           6.7026    4.9446   36.1973 H       1  UNL1        0.1437
     25 H           5.4424    4.2580   35.2763 H       1  UNL1        0.1437
     26 C           1.3894    1.2827   39.1649 C.3     1  UNL1        0.0067
     27 C           2.6120    1.0072   38.3407 C.3     1  UNL1        0.0460
     28 C           4.8221   -0.5888   32.9625 C.3     1  UNL1        0.1196
     29 C           4.5748   -1.9595   33.5193 C.3     1  UNL1        0.1113
     30 N           4.9914   -3.1718   32.7403 N.am    1  UNL1       -0.3026
     31 C           6.4320   -3.3671   32.3705 C.2     1  UNL1        0.2230
     32 C           6.8486   -4.5793   31.5915 C.3     1  UNL1        0.0946
     33 O           7.4558   -2.3500   32.7796 O.2     1  UNL1       -0.2751
     34 H           4.3194   -3.8393   32.4718 H       1  UNL1        0.1495
@<TRIPOS>BOND
     1    26    27    1
     2    27    14    1
     3    14    15   ar
     4    15    16   ar
     5    16    17    1
     6    16    18   ar
     7    18    19   ar
     8    19    20    1
     9    19    21   ar
    10    21     1    1
    11     1     2   ar
    12     2     3   ar
    13     3     4   ar
    14     4     5   ar
    15     5     6   ar
    16     5     7    1
    17     7    28    1
    18    28    29    1
    19    29    30    1
    20    30    31   am
    21    31    32    1
    22    31    33    2
    23     7     8   am
    24     8     9    2
    25     8    10    1
    26    10    11    1
    27    10    12    1
    28    10    13    1
    29    21    14   ar
    30     6     1   ar
    31    13     4    1
    32    17    22    1
    33    17    23    1
    34    20    24    1
    35    20    25    1
    36    30    34    1
