@<TRIPOS>MOLECULE
*****
 27 29 0 0 0
SMALL
GASTEIGER

@<TRIPOS>ATOM
      1 O         -11.0571  -19.8533   23.9792 O.2     1  UNL1       -0.2830
      2 C         -10.2478  -19.2273   22.8823 C.ar    1  UNL1        0.2379
      3 C          -8.8008  -19.5870   22.7191 C.ar    1  UNL1        0.2082
      4 O          -8.1630  -20.5729   23.6527 O.3     1  UNL1       -0.5007
      5 C          -7.9914  -18.9610   21.6222 C.ar    1  UNL1        0.1819
      6 O          -8.6291  -17.9753   20.6886 O.2     1  UNL1       -0.4500
      7 C         -10.0762  -17.6155   20.8519 C.ar    1  UNL1        0.1545
      8 C         -10.7139  -16.6297   19.9183 C.ar    1  UNL1        0.0744
      9 C         -12.1609  -16.2700   20.0816 C.ar    1  UNL1        0.1397
     10 O         -12.7986  -15.2842   19.1480 O.3     1  UNL1       -0.5053
     11 C         -12.9702  -16.8960   21.1784 C.ar    1  UNL1        0.0735
     12 C         -12.3325  -17.8817   22.1120 C.ar    1  UNL1        0.1428
     13 O         -13.1419  -18.5078   23.2089 O.3     1  UNL1       -0.5052
     14 C         -10.8855  -18.2415   21.9487 C.ar    1  UNL1        0.1104
     15 H          -8.6686  -20.9639   24.3378 H       1  UNL1        0.2924
     16 H         -12.2931  -14.8931   18.4628 H       1  UNL1        0.2922
     17 H         -14.0458  -18.2830   23.3109 H       1  UNL1        0.2922
     18 C          -6.5443  -19.3208   21.4590 C.ar    1  UNL1        0.0409
     19 C          -6.1386  -20.3619   20.4582 C.ar    1  UNL1        0.0064
     20 C          -4.6916  -20.7216   20.2950 C.ar    1  UNL1        0.0399
     21 C          -3.6503  -20.0403   21.1325 C.ar    1  UNL1        0.1675
     22 O          -2.2032  -20.4001   20.9693 O.3     1  UNL1       -0.5029
     23 C          -4.0560  -18.9993   22.1333 C.ar    1  UNL1        0.1676
     24 O          -3.0147  -18.3180   22.9709 O.3     1  UNL1       -0.5029
     25 C          -5.5030  -18.6395   22.2965 C.ar    1  UNL1        0.0429
     26 H          -1.9498  -21.0504   20.3441 H       1  UNL1        0.2923
     27 H          -2.1108  -18.5427   22.8689 H       1  UNL1        0.2923
@<TRIPOS>BOND
     1     1     2    2
     2     2     3   ar
     3     3     4    1
     4     3     5   ar
     5     5    18    1
     6    18    19   ar
     7    19    20   ar
     8    20    21   ar
     9    21    22    1
    10    21    23   ar
    11    23    24    1
    12    23    25   ar
    13     5     6   ar
    14     6     7   ar
    15     7     8   ar
    16     8     9   ar
    17     9    10    1
    18     9    11   ar
    19    11    12   ar
    20    12    13    1
    21    12    14   ar
    22    14     2   ar
    23    25    18   ar
    24    14     7   ar
    25     4    15    1
    26    22    26    1
    27    24    27    1
    28    10    16    1
    29    13    17    1
@<TRIPOS>MOLECULE
*****
 27 29 0 0 0
SMALL
GASTEIGER

@<TRIPOS>ATOM
      1 O         -10.9729  -17.9789   19.3833 O.2     1  UNL1       -0.2830
      2 C         -10.2116  -18.3843   20.6105 C.ar    1  UNL1        0.2379
      3 C          -8.7485  -18.7008   20.5151 C.ar    1  UNL1        0.2082
      4 O          -8.0466  -18.6119   19.1924 O.3     1  UNL1       -0.5007
      5 C          -7.9873  -19.1062   21.7424 C.ar    1  UNL1        0.1819
      6 O          -8.6891  -19.1951   23.0650 O.2     1  UNL1       -0.4500
      7 C         -10.1523  -18.8786   23.1605 C.ar    1  UNL1        0.1545
      8 C         -10.8541  -18.9675   24.4831 C.ar    1  UNL1        0.0744
      9 C         -12.3172  -18.6510   24.5785 C.ar    1  UNL1        0.1397
     10 O         -13.0192  -18.7399   25.9012 O.3     1  UNL1       -0.5053
     11 C         -13.0785  -18.2456   23.3513 C.ar    1  UNL1        0.0735
     12 C         -12.3766  -18.1567   22.0286 C.ar    1  UNL1        0.1428
     13 O         -13.1379  -17.7513   20.8014 O.3     1  UNL1       -0.5052
     14 C         -10.9135  -18.4732   21.9332 C.ar    1  UNL1        0.1104
     15 H          -8.5221  -18.3586   18.4258 H       1  UNL1        0.2924
     16 H         -12.5436  -18.9932   26.6679 H       1  UNL1        0.2922
     17 H         -14.0518  -17.5536   20.8610 H       1  UNL1        0.2922
     18 C          -6.5241  -19.4227   21.6469 C.ar    1  UNL1        0.0409
     19 C          -6.0539  -20.5351   20.7573 C.ar    1  UNL1        0.0064
     20 C          -4.5908  -20.8515   20.6619 C.ar    1  UNL1        0.0399
     21 C          -3.5979  -20.0556   21.4561 C.ar    1  UNL1        0.1675
     22 O          -2.1347  -20.3721   21.3606 O.3     1  UNL1       -0.5029
     23 C          -4.0681  -18.9432   22.3456 C.ar    1  UNL1        0.1676
     24 O          -3.0753  -18.1472   23.1398 O.3     1  UNL1       -0.5029
     25 C          -5.5312  -18.6267   22.4410 C.ar    1  UNL1        0.0429
     26 H          -1.8410  -21.0670   20.8049 H       1  UNL1        0.2923
     27 H          -2.1613  -18.3449   23.0802 H       1  UNL1        0.2923
@<TRIPOS>BOND
     1     1     2    2
     2     2     3   ar
     3     3     4    1
     4     3     5   ar
     5     5    18    1
     6    18    19   ar
     7    19    20   ar
     8    20    21   ar
     9    21    22    1
    10    21    23   ar
    11    23    24    1
    12    23    25   ar
    13     5     6   ar
    14     6     7   ar
    15     7     8   ar
    16     8     9   ar
    17     9    10    1
    18     9    11   ar
    19    11    12   ar
    20    12    13    1
    21    12    14   ar
    22    14     2   ar
    23    25    18   ar
    24    14     7   ar
    25     4    15    1
    26    22    26    1
    27    24    27    1
    28    10    16    1
    29    13    17    1
@<TRIPOS>MOLECULE
*****
 27 29 0 0 0
SMALL
GASTEIGER

@<TRIPOS>ATOM
      1 O          -9.5894  -18.6716   19.1595 O.2     1  UNL1       -0.2830
      2 C          -8.9850  -18.6548   20.5322 C.ar    1  UNL1        0.2379
      3 C          -7.4941  -18.6318   20.6950 C.ar    1  UNL1        0.2082
      4 O          -6.6075  -18.6256   19.4850 O.3     1  UNL1       -0.5007
      5 C          -6.8896  -18.6149   22.0677 C.ar    1  UNL1        0.1819
      6 O          -7.7761  -18.6211   23.2777 O.2     1  UNL1       -0.4500
      7 C          -9.2672  -18.6441   23.1149 C.ar    1  UNL1        0.1545
      8 C         -10.1537  -18.6503   24.3249 C.ar    1  UNL1        0.0744
      9 C         -11.6446  -18.6733   24.1621 C.ar    1  UNL1        0.1397
     10 O         -12.5312  -18.6795   25.3721 O.3     1  UNL1       -0.5053
     11 C         -12.2490  -18.6902   22.7894 C.ar    1  UNL1        0.0735
     12 C         -11.3625  -18.6840   21.5794 C.ar    1  UNL1        0.1428
     13 O         -11.9669  -18.7009   20.2067 O.3     1  UNL1       -0.5052
     14 C          -9.8716  -18.6610   21.7422 C.ar    1  UNL1        0.1104
     15 H          -6.9850  -18.6361   18.6275 H       1  UNL1        0.2924
     16 H         -12.1536  -18.6690   26.2296 H       1  UNL1        0.2922
     17 H         -12.8983  -18.7153   20.1050 H       1  UNL1        0.2922
     18 C          -5.3986  -18.5919   22.2305 C.ar    1  UNL1        0.0409
     19 C          -4.7550  -17.5529   23.1000 C.ar    1  UNL1        0.0064
     20 C          -3.2641  -17.5299   23.2627 C.ar    1  UNL1        0.0399
     21 C          -2.4167  -18.5459   22.5559 C.ar    1  UNL1        0.1675
     22 O          -0.9257  -18.5229   22.7186 O.3     1  UNL1       -0.5029
     23 C          -3.0603  -19.5849   21.6863 C.ar    1  UNL1        0.1676
     24 O          -2.2129  -20.6010   20.9794 O.3     1  UNL1       -0.5029
     25 C          -4.5512  -19.6079   21.5236 C.ar    1  UNL1        0.0429
     26 H          -0.5237  -17.8738   23.2618 H       1  UNL1        0.2923
     27 H          -1.2816  -20.5866   21.0811 H       1  UNL1        0.2923
@<TRIPOS>BOND
     1     1     2    2
     2     2     3   ar
     3     3     4    1
     4     3     5   ar
     5     5    18    1
     6    18    19   ar
     7    19    20   ar
     8    20    21   ar
     9    21    22    1
    10    21    23   ar
    11    23    24    1
    12    23    25   ar
    13     5     6   ar
    14     6     7   ar
    15     7     8   ar
    16     8     9   ar
    17     9    10    1
    18     9    11   ar
    19    11    12   ar
    20    12    13    1
    21    12    14   ar
    22    14     2   ar
    23    25    18   ar
    24    14     7   ar
    25     4    15    1
    26    22    26    1
    27    24    27    1
    28    10    16    1
    29    13    17    1
@<TRIPOS>MOLECULE
*****
 27 29 0 0 0
SMALL
GASTEIGER

@<TRIPOS>ATOM
      1 O          -8.9600  -21.2340   23.9005 O.2     1  UNL1       -0.2830
      2 C          -8.4306  -20.0456   23.1540 C.ar    1  UNL1        0.2379
      3 C          -7.0320  -20.0624   22.6121 C.ar    1  UNL1        0.2082
      4 O          -6.1628  -21.2677   22.8168 O.3     1  UNL1       -0.5007
      5 C          -6.5026  -18.8740   21.8656 C.ar    1  UNL1        0.1819
      6 O          -7.3717  -17.6687   21.6610 O.2     1  UNL1       -0.4500
      7 C          -8.7703  -17.6518   22.2029 C.ar    1  UNL1        0.1545
      8 C          -9.6394  -16.4466   21.9982 C.ar    1  UNL1        0.0744
      9 C         -11.0380  -16.4297   22.5401 C.ar    1  UNL1        0.1397
     10 O         -11.9072  -15.2244   22.3355 O.3     1  UNL1       -0.5053
     11 C         -11.5675  -17.6182   23.2866 C.ar    1  UNL1        0.0735
     12 C         -10.6983  -18.8234   23.4913 C.ar    1  UNL1        0.1428
     13 O         -11.2278  -20.0119   24.2378 O.3     1  UNL1       -0.5052
     14 C          -9.2998  -18.8403   22.9494 C.ar    1  UNL1        0.1104
     15 H          -6.4935  -22.0101   23.2831 H       1  UNL1        0.2924
     16 H         -11.5765  -14.4820   21.8691 H       1  UNL1        0.2922
     17 H         -12.1015  -20.0014   24.5763 H       1  UNL1        0.2922
     18 C          -5.1039  -18.8908   21.3237 C.ar    1  UNL1        0.0409
     19 C          -4.8663  -19.1723   19.8697 C.ar    1  UNL1        0.0064
     20 C          -3.4677  -19.1891   19.3279 C.ar    1  UNL1        0.0399
     21 C          -2.3067  -18.9246   20.2401 C.ar    1  UNL1        0.1675
     22 O          -0.9081  -18.9414   19.6982 O.3     1  UNL1       -0.5029
     23 C          -2.5443  -18.6431   21.6941 C.ar    1  UNL1        0.1676
     24 O          -1.3834  -18.3786   22.6064 O.3     1  UNL1       -0.5029
     25 C          -3.9429  -18.6263   22.2360 C.ar    1  UNL1        0.0429
     26 H          -0.7596  -19.1172   18.7899 H       1  UNL1        0.2923
     27 H          -0.5097  -18.3891   22.2679 H       1  UNL1        0.2923
@<TRIPOS>BOND
     1     1     2    2
     2     2     3   ar
     3     3     4    1
     4     3     5   ar
     5     5    18    1
     6    18    19   ar
     7    19    20   ar
     8    20    21   ar
     9    21    22    1
    10    21    23   ar
    11    23    24    1
    12    23    25   ar
    13     5     6   ar
    14     6     7   ar
    15     7     8   ar
    16     8     9   ar
    17     9    10    1
    18     9    11   ar
    19    11    12   ar
    20    12    13    1
    21    12    14   ar
    22    14     2   ar
    23    25    18   ar
    24    14     7   ar
    25     4    15    1
    26    22    26    1
    27    24    27    1
    28    10    16    1
    29    13    17    1
@<TRIPOS>MOLECULE
*****
 27 29 0 0 0
SMALL
GASTEIGER

@<TRIPOS>ATOM
      1 O          -5.0931  -15.6827   23.7572 O.2     1  UNL1       -0.2830
      2 C          -5.8953  -16.8163   23.1903 C.ar    1  UNL1        0.2379
      3 C          -7.3806  -16.8598   23.3945 C.ar    1  UNL1        0.2082
      4 O          -8.0639  -15.7696   24.1657 O.3     1  UNL1       -0.5007
      5 C          -8.1828  -17.9934   22.8276 C.ar    1  UNL1        0.1819
      6 O          -7.4996  -19.0836   22.0564 O.2     1  UNL1       -0.4500
      7 C          -6.0142  -19.0402   21.8522 C.ar    1  UNL1        0.1545
      8 C          -5.3310  -20.1303   21.0810 C.ar    1  UNL1        0.0744
      9 C          -3.8456  -20.0869   20.8768 C.ar    1  UNL1        0.1397
     10 O          -3.1624  -21.1771   20.1056 O.3     1  UNL1       -0.5053
     11 C          -3.0435  -18.9533   21.4437 C.ar    1  UNL1        0.0735
     12 C          -3.7266  -17.8631   22.2149 C.ar    1  UNL1        0.1428
     13 O          -2.9245  -16.7295   22.7818 O.3     1  UNL1       -0.5052
     14 C          -5.2120  -17.9065   22.4191 C.ar    1  UNL1        0.1104
     15 H          -7.5628  -15.0614   24.5199 H       1  UNL1        0.2924
     16 H          -3.6634  -21.8852   19.7514 H       1  UNL1        0.2922
     17 H          -1.9966  -16.7023   22.6542 H       1  UNL1        0.2922
     18 C          -9.6683  -18.0368   23.0318 C.ar    1  UNL1        0.0409
     19 C         -10.2333  -18.5575   24.3201 C.ar    1  UNL1        0.0064
     20 C         -11.7186  -18.6009   24.5243 C.ar    1  UNL1        0.0399
     21 C         -12.6390  -18.1236   23.4403 C.ar    1  UNL1        0.1675
     22 O         -14.1244  -18.1671   23.6445 O.3     1  UNL1       -0.5029
     23 C         -12.0740  -17.6030   22.1520 C.ar    1  UNL1        0.1676
     24 O         -12.9944  -17.1257   21.0680 O.3     1  UNL1       -0.5029
     25 C         -10.5886  -17.5596   21.9478 C.ar    1  UNL1        0.0429
     26 H         -14.4774  -18.4923   24.4493 H       1  UNL1        0.2923
     27 H         -13.9222  -17.1529   21.1955 H       1  UNL1        0.2923
@<TRIPOS>BOND
     1     1     2    2
     2     2     3   ar
     3     3     4    1
     4     3     5   ar
     5     5    18    1
     6    18    19   ar
     7    19    20   ar
     8    20    21   ar
     9    21    22    1
    10    21    23   ar
    11    23    24    1
    12    23    25   ar
    13     5     6   ar
    14     6     7   ar
    15     7     8   ar
    16     8     9   ar
    17     9    10    1
    18     9    11   ar
    19    11    12   ar
    20    12    13    1
    21    12    14   ar
    22    14     2   ar
    23    25    18   ar
    24    14     7   ar
    25     4    15    1
    26    22    26    1
    27    24    27    1
    28    10    16    1
    29    13    17    1
@<TRIPOS>MOLECULE
*****
 27 29 0 0 0
SMALL
GASTEIGER

@<TRIPOS>ATOM
      1 O          -6.1848  -21.0059   19.3582 O.2     1  UNL1       -0.2830
      2 C          -6.3982  -20.0277   20.4752 C.ar    1  UNL1        0.2379
      3 C          -7.7888  -19.6088   20.8500 C.ar    1  UNL1        0.2082
      4 O          -8.9663  -20.1681   20.1077 O.3     1  UNL1       -0.5007
      5 C          -8.0022  -18.6307   21.9670 C.ar    1  UNL1        0.1819
      6 O          -6.8248  -18.0714   22.7092 O.2     1  UNL1       -0.4500
      7 C          -5.4340  -18.4903   22.3345 C.ar    1  UNL1        0.1545
      8 C          -4.2567  -17.9310   23.0767 C.ar    1  UNL1        0.0744
      9 C          -2.8660  -18.3498   22.7019 C.ar    1  UNL1        0.1397
     10 O          -1.6885  -17.7905   23.4442 O.3     1  UNL1       -0.5053
     11 C          -2.6527  -19.3280   21.5849 C.ar    1  UNL1        0.0735
     12 C          -3.8300  -19.8873   20.8427 C.ar    1  UNL1        0.1428
     13 O          -3.6167  -20.8654   19.7257 O.3     1  UNL1       -0.5052
     14 C          -5.2207  -19.4684   21.2174 C.ar    1  UNL1        0.1104
     15 H          -8.8331  -20.7791   19.4099 H       1  UNL1        0.2924
     16 H          -1.8218  -17.1795   24.1420 H       1  UNL1        0.2922
     17 H          -2.7480  -21.1271   19.4916 H       1  UNL1        0.2922
     18 C          -9.3930  -18.2118   22.3417 C.ar    1  UNL1        0.0409
     19 C         -10.1253  -17.2070   21.5027 C.ar    1  UNL1        0.0064
     20 C         -11.5160  -16.7882   21.8775 C.ar    1  UNL1        0.0399
     21 C         -12.1744  -17.3742   23.0912 C.ar    1  UNL1        0.1675
     22 O         -13.5651  -16.9553   23.4660 O.3     1  UNL1       -0.5029
     23 C         -11.4420  -18.3790   23.9302 C.ar    1  UNL1        0.1676
     24 O         -12.1004  -18.9651   25.1439 O.3     1  UNL1       -0.5029
     25 C         -10.0513  -18.7979   23.5554 C.ar    1  UNL1        0.0429
     26 H         -14.0226  -16.3276   22.9419 H       1  UNL1        0.2923
     27 H         -12.9691  -18.7035   25.3780 H       1  UNL1        0.2923
@<TRIPOS>BOND
     1     1     2    2
     2     2     3   ar
     3     3     4    1
     4     3     5   ar
     5     5    18    1
     6    18    19   ar
     7    19    20   ar
     8    20    21   ar
     9    21    22    1
    10    21    23   ar
    11    23    24    1
    12    23    25   ar
    13     5     6   ar
    14     6     7   ar
    15     7     8   ar
    16     8     9   ar
    17     9    10    1
    18     9    11   ar
    19    11    12   ar
    20    12    13    1
    21    12    14   ar
    22    14     2   ar
    23    25    18   ar
    24    14     7   ar
    25     4    15    1
    26    22    26    1
    27    24    27    1
    28    10    16    1
    29    13    17    1
@<TRIPOS>MOLECULE
*****
 27 29 0 0 0
SMALL
GASTEIGER

@<TRIPOS>ATOM
      1 O         -15.0122   -3.5761   20.3288 O.2     1  UNL1       -0.2830
      2 C         -14.6720   -4.8278   19.5754 C.ar    1  UNL1        0.2379
      3 C         -15.7210   -5.8758   19.3494 C.ar    1  UNL1        0.2082
      4 O         -17.1105   -5.6721   19.8768 O.3     1  UNL1       -0.5007
      5 C         -15.3808   -7.1274   18.5960 C.ar    1  UNL1        0.1819
      6 O         -13.9914   -7.3311   18.0687 O.2     1  UNL1       -0.4500
      7 C         -12.9423   -6.2831   18.2947 C.ar    1  UNL1        0.1545
      8 C         -11.5529   -6.4868   17.7673 C.ar    1  UNL1        0.0744
      9 C         -10.5038   -5.4389   17.9933 C.ar    1  UNL1        0.1397
     10 O          -9.1144   -5.6425   17.4659 O.3     1  UNL1       -0.5053
     11 C         -10.8441   -4.1872   18.7467 C.ar    1  UNL1        0.0735
     12 C         -12.2334   -3.9835   19.2741 C.ar    1  UNL1        0.1428
     13 O         -12.5737   -2.7318   20.0274 O.3     1  UNL1       -0.5052
     14 C         -13.2825   -5.0315   19.0480 C.ar    1  UNL1        0.1104
     15 H         -17.3231   -4.8902   20.3474 H       1  UNL1        0.2924
     16 H          -8.9018   -6.4244   16.9953 H       1  UNL1        0.2922
     17 H         -11.9183   -2.0772   20.1686 H       1  UNL1        0.2922
     18 C         -16.4300   -8.1754   18.3700 C.ar    1  UNL1        0.0409
     19 C         -17.6956   -7.8255   17.6450 C.ar    1  UNL1        0.0064
     20 C         -18.7447   -8.8735   17.4190 C.ar    1  UNL1        0.0399
     21 C         -18.5282  -10.2713   17.9181 C.ar    1  UNL1        0.1675
     22 O         -19.5774  -11.3193   17.6921 O.3     1  UNL1       -0.5029
     23 C         -17.2626  -10.6212   18.6432 C.ar    1  UNL1        0.1676
     24 O         -17.0461  -12.0191   19.1423 O.3     1  UNL1       -0.5029
     25 C         -16.2135   -9.5733   18.8691 C.ar    1  UNL1        0.0429
     26 H         -20.3680  -11.1008   17.2392 H       1  UNL1        0.2923
     27 H         -17.7014  -12.6737   19.0011 H       1  UNL1        0.2923
@<TRIPOS>BOND
     1     1     2    2
     2     2     3   ar
     3     3     4    1
     4     3     5   ar
     5     5    18    1
     6    18    19   ar
     7    19    20   ar
     8    20    21   ar
     9    21    22    1
    10    21    23   ar
    11    23    24    1
    12    23    25   ar
    13     5     6   ar
    14     6     7   ar
    15     7     8   ar
    16     8     9   ar
    17     9    10    1
    18     9    11   ar
    19    11    12   ar
    20    12    13    1
    21    12    14   ar
    22    14     2   ar
    23    25    18   ar
    24    14     7   ar
    25     4    15    1
    26    22    26    1
    27    24    27    1
    28    10    16    1
    29    13    17    1
@<TRIPOS>MOLECULE
*****
 27 29 0 0 0
SMALL
GASTEIGER

@<TRIPOS>ATOM
      1 O          -8.6746  -17.7806   22.3288 O.2     1  UNL1       -0.2830
      2 C          -7.3237  -17.4109   22.8658 C.ar    1  UNL1        0.2379
      3 C          -6.0847  -17.8230   22.1276 C.ar    1  UNL1        0.2082
      4 O          -6.1966  -18.6049   20.8523 O.3     1  UNL1       -0.5007
      5 C          -4.7338  -17.4533   22.6646 C.ar    1  UNL1        0.1819
      6 O          -4.6219  -16.6715   23.9398 O.2     1  UNL1       -0.4500
      7 C          -5.8609  -16.2593   24.6781 C.ar    1  UNL1        0.1545
      8 C          -5.7490  -15.4774   25.9532 C.ar    1  UNL1        0.0744
      9 C          -6.9880  -15.0653   26.6914 C.ar    1  UNL1        0.1397
     10 O          -6.8761  -14.2834   27.9667 O.3     1  UNL1       -0.5053
     11 C          -8.3389  -15.4350   26.1545 C.ar    1  UNL1        0.0735
     12 C          -8.4508  -16.2169   24.8793 C.ar    1  UNL1        0.1428
     13 O          -9.8017  -16.5866   24.3423 O.3     1  UNL1       -0.5052
     14 C          -7.2118  -16.6290   24.1411 C.ar    1  UNL1        0.1104
     15 H          -7.0404  -18.8359   20.5169 H       1  UNL1        0.2924
     16 H          -6.0323  -14.0525   28.3022 H       1  UNL1        0.2922
     17 H         -10.5757  -16.3291   24.8034 H       1  UNL1        0.2922
     18 C          -3.4947  -17.8655   21.9263 C.ar    1  UNL1        0.0409
     19 C          -3.1931  -19.3204   21.7210 C.ar    1  UNL1        0.0064
     20 C          -1.9541  -19.7325   20.9828 C.ar    1  UNL1        0.0399
     21 C          -1.0168  -18.6897   20.4498 C.ar    1  UNL1        0.1675
     22 O           0.2223  -19.1019   19.7116 O.3     1  UNL1       -0.5029
     23 C          -1.3184  -17.2348   20.6551 C.ar    1  UNL1        0.1676
     24 O          -0.3811  -16.1920   20.1222 O.3     1  UNL1       -0.5029
     25 C          -2.5574  -16.8227   21.3934 C.ar    1  UNL1        0.0429
     26 H           0.4107  -20.0107   19.5833 H       1  UNL1        0.2923
     27 H           0.3928  -16.4494   19.6610 H       1  UNL1        0.2923
@<TRIPOS>BOND
     1     1     2    2
     2     2     3   ar
     3     3     4    1
     4     3     5   ar
     5     5    18    1
     6    18    19   ar
     7    19    20   ar
     8    20    21   ar
     9    21    22    1
    10    21    23   ar
    11    23    24    1
    12    23    25   ar
    13     5     6   ar
    14     6     7   ar
    15     7     8   ar
    16     8     9   ar
    17     9    10    1
    18     9    11   ar
    19    11    12   ar
    20    12    13    1
    21    12    14   ar
    22    14     2   ar
    23    25    18   ar
    24    14     7   ar
    25     4    15    1
    26    22    26    1
    27    24    27    1
    28    10    16    1
    29    13    17    1
@<TRIPOS>MOLECULE
*****
 27 29 0 0 0
SMALL
GASTEIGER

@<TRIPOS>ATOM
      1 O          -8.7641  -20.0533   20.7238 O.2     1  UNL1       -0.2830
      2 C          -7.7126  -19.1710   21.3288 C.ar    1  UNL1        0.2379
      3 C          -6.2832  -19.3007   20.8931 C.ar    1  UNL1        0.2082
      4 O          -5.9052  -20.3127   19.8523 O.3     1  UNL1       -0.5007
      5 C          -5.2317  -18.4185   21.4981 C.ar    1  UNL1        0.1819
      6 O          -5.6097  -17.4066   22.5388 O.2     1  UNL1       -0.4500
      7 C          -7.0392  -17.2769   22.9746 C.ar    1  UNL1        0.1545
      8 C          -7.4171  -16.2650   24.0153 C.ar    1  UNL1        0.0744
      9 C          -8.8466  -16.1353   24.4510 C.ar    1  UNL1        0.1397
     10 O          -9.2246  -15.1234   25.4918 O.3     1  UNL1       -0.5053
     11 C          -9.8980  -17.0175   23.8460 C.ar    1  UNL1        0.0735
     12 C          -9.5201  -18.0294   22.8053 C.ar    1  UNL1        0.1428
     13 O         -10.5716  -18.9117   22.2002 O.3     1  UNL1       -0.5052
     14 C          -8.0907  -18.1591   22.3696 C.ar    1  UNL1        0.1104
     15 H          -6.5620  -20.8638   19.4743 H       1  UNL1        0.2924
     16 H          -8.5678  -14.5723   25.8698 H       1  UNL1        0.2922
     17 H         -11.4645  -18.8307   22.4724 H       1  UNL1        0.2922
     18 C          -3.8022  -18.5482   21.0624 C.ar    1  UNL1        0.0409
     19 C          -2.7812  -19.1206   22.0004 C.ar    1  UNL1        0.0064
     20 C          -1.3518  -19.2503   21.5646 C.ar    1  UNL1        0.0399
     21 C          -0.9434  -18.8076   20.1908 C.ar    1  UNL1        0.1675
     22 O           0.4860  -18.9373   19.7551 O.3     1  UNL1       -0.5029
     23 C          -1.9645  -18.2352   19.2528 C.ar    1  UNL1        0.1676
     24 O          -1.5561  -17.7925   17.8791 O.3     1  UNL1       -0.5029
     25 C          -3.3939  -18.1055   19.6886 C.ar    1  UNL1        0.0429
     26 H           1.1238  -19.2948   20.3410 H       1  UNL1        0.2923
     27 H          -0.6631  -17.8735   17.6069 H       1  UNL1        0.2923
@<TRIPOS>BOND
     1     1     2    2
     2     2     3   ar
     3     3     4    1
     4     3     5   ar
     5     5    18    1
     6    18    19   ar
     7    19    20   ar
     8    20    21   ar
     9    21    22    1
    10    21    23   ar
    11    23    24    1
    12    23    25   ar
    13     5     6   ar
    14     6     7   ar
    15     7     8   ar
    16     8     9   ar
    17     9    10    1
    18     9    11   ar
    19    11    12   ar
    20    12    13    1
    21    12    14   ar
    22    14     2   ar
    23    25    18   ar
    24    14     7   ar
    25     4    15    1
    26    22    26    1
    27    24    27    1
    28    10    16    1
    29    13    17    1
