@<TRIPOS>MOLECULE
*****
 31 34 0 0 0
SMALL
GASTEIGER

@<TRIPOS>ATOM
      1 N           7.1882    1.0034   34.7140 N.3     1  UNL1       -0.3206
      2 C           6.4861   -0.1929   34.1431 C.3     1  UNL1        0.0750
      3 C           7.2144   -1.1164   33.2120 C.3     1  UNL1        0.1079
      4 N           6.5124   -2.3127   32.6412 N.pl3   1  UNL1       -0.2905
      5 C           5.0821   -2.5856   33.0014 C.3     1  UNL1        0.0926
      6 C           4.3538   -1.6622   33.9324 C.3     1  UNL1        0.0273
      7 C           5.0558   -0.4658   34.5033 C.3     1  UNL1        0.0422
      8 H           8.1463    1.0338   34.3654 H       1  UNL1        0.1189
      9 H           7.1986    0.9380   35.7318 H       1  UNL1        0.1189
     10 C           7.2407   -3.2362   31.7101 C.ar    1  UNL1        0.1536
     11 C           8.7098   -3.4787   31.8914 C.ar    1  UNL1        0.0393
     12 C           9.4380   -4.4021   30.9603 C.ar    1  UNL1        0.0435
     13 C           8.6971   -5.0830   29.8479 C.ar    1  UNL1        0.1853
     14 N           9.1442   -6.0390   28.7819 N.ar    1  UNL1       -0.2010
     15 C           7.9514   -6.3872   27.9417 C.ar    1  UNL1        0.2571
     16 N           6.7671   -5.6465   28.4885 N.ar    1  UNL1       -0.1229
     17 N           7.2280   -4.8405   29.6666 N.ar    1  UNL1       -0.1273
     18 N           6.4998   -3.9171   30.5977 N.ar    1  UNL1       -0.1315
     19 C           7.9441   -7.3135   26.7619 C.3     1  UNL1        0.4541
     20 F           7.9367   -8.2398   25.5821 F       1  UNL1       -0.1631
     21 F           6.6385   -6.7287   26.3109 F       1  UNL1       -0.1631
     22 F           9.2497   -7.8984   27.2129 F       1  UNL1       -0.1631
     23 C           4.3275    0.4576   35.4344 C.ar    1  UNL1        0.0087
     24 C           4.3727    0.2190   36.9145 C.ar    1  UNL1        0.0300
     25 C           3.6444    1.1424   37.8457 C.ar    1  UNL1        0.1672
     26 F           3.6896    0.9038   39.3258 F       1  UNL1       -0.2018
     27 C           2.8709    2.3044   37.2965 C.ar    1  UNL1        0.1696
     28 F           2.1427    3.2278   38.2276 F       1  UNL1       -0.2017
     29 C           2.8258    2.5430   35.8163 C.ar    1  UNL1        0.0612
     30 C           3.5541    1.6196   34.8852 C.ar    1  UNL1        0.1386
     31 F           3.5089    1.8582   33.4050 F       1  UNL1       -0.2044
@<TRIPOS>BOND
     1     2     1    1
     2     2     3    1
     3     3     4    1
     4     4    10    1
     5    10    11   ar
     6    11    12   ar
     7    12    13   ar
     8    13    14   ar
     9    14    15   ar
    10    15    19    1
    11    19    20    1
    12    19    21    1
    13    19    22    1
    14    15    16   ar
    15    16    17   ar
    16    17    18   ar
    17     4     5    1
    18     5     6    1
    19     6     7    1
    20     7    23    1
    21    23    24   ar
    22    24    25   ar
    23    25    26    1
    24    25    27   ar
    25    27    28    1
    26    27    29   ar
    27    29    30   ar
    28    30    31    1
    29     7     2    1
    30    30    23   ar
    31    18    10   ar
    32    17    13   ar
    33     1     8    1
    34     1     9    1
@<TRIPOS>MOLECULE
*****
 31 34 0 0 0
SMALL
GASTEIGER

@<TRIPOS>ATOM
      1 N          -4.6380  -17.1790   23.0076 N.3     1  UNL1       -0.3206
      2 C          -5.6425  -17.8376   22.1092 C.3     1  UNL1        0.0750
      3 C          -7.1055  -17.7507   22.4291 C.3     1  UNL1        0.1079
      4 N          -8.1100  -18.4093   21.5307 N.pl3   1  UNL1       -0.2905
      5 C          -7.6516  -19.1549   20.3125 C.3     1  UNL1        0.0926
      6 C          -6.1888  -19.2418   19.9926 C.3     1  UNL1        0.0273
      7 C          -5.1841  -18.5832   20.8910 C.3     1  UNL1        0.0422
      8 H          -5.1214  -16.7216   23.7805 H       1  UNL1        0.1189
      9 H          -4.1113  -16.4847   22.4775 H       1  UNL1        0.1189
     10 C          -9.5730  -18.3224   21.8505 C.ar    1  UNL1        0.1536
     11 C         -10.5600  -18.0046   20.7667 C.ar    1  UNL1        0.0393
     12 C         -12.0229  -17.9177   21.0866 C.ar    1  UNL1        0.0435
     13 C         -12.4988  -18.1486   22.4902 C.ar    1  UNL1        0.1853
     14 N         -13.8684  -18.1294   23.1017 N.ar    1  UNL1       -0.2010
     15 C         -13.7278  -18.4353   24.5634 C.ar    1  UNL1        0.2571
     16 N         -12.2713  -18.6436   24.8553 N.ar    1  UNL1       -0.1229
     17 N         -11.5117  -18.4663   23.5740 N.ar    1  UNL1       -0.1273
     18 N         -10.0488  -18.5532   23.2542 N.ar    1  UNL1       -0.1315
     19 C         -14.8472  -18.5184   25.5585 C.3     1  UNL1        0.4541
     20 F         -15.9664  -18.6015   26.5536 F       1  UNL1       -0.1631
     21 F         -13.8920  -18.1714   26.6618 F       1  UNL1       -0.1631
     22 F         -15.8023  -18.8655   24.4551 F       1  UNL1       -0.1631
     23 C          -3.7212  -18.6701   20.5712 C.ar    1  UNL1        0.0087
     24 C          -3.1902  -18.0479   19.3139 C.ar    1  UNL1        0.0300
     25 C          -1.7272  -18.1348   18.9940 C.ar    1  UNL1        0.1672
     26 F          -1.1962  -17.5126   17.7368 F       1  UNL1       -0.2018
     27 C          -0.7954  -18.8440   19.9314 C.ar    1  UNL1        0.1696
     28 F           0.6675  -18.9309   19.6116 F       1  UNL1       -0.2017
     29 C          -1.3265  -19.4662   21.1888 C.ar    1  UNL1        0.0612
     30 C          -2.7894  -19.3793   21.5086 C.ar    1  UNL1        0.1386
     31 F          -3.3205  -20.0015   22.7659 F       1  UNL1       -0.2044
@<TRIPOS>BOND
     1     2     1    1
     2     2     3    1
     3     3     4    1
     4     4    10    1
     5    10    11   ar
     6    11    12   ar
     7    12    13   ar
     8    13    14   ar
     9    14    15   ar
    10    15    19    1
    11    19    20    1
    12    19    21    1
    13    19    22    1
    14    15    16   ar
    15    16    17   ar
    16    17    18   ar
    17     4     5    1
    18     5     6    1
    19     6     7    1
    20     7    23    1
    21    23    24   ar
    22    24    25   ar
    23    25    26    1
    24    25    27   ar
    25    27    28    1
    26    27    29   ar
    27    29    30   ar
    28    30    31    1
    29     7     2    1
    30    30    23   ar
    31    18    10   ar
    32    17    13   ar
    33     1     8    1
    34     1     9    1
@<TRIPOS>MOLECULE
*****
 31 34 0 0 0
SMALL
GASTEIGER

@<TRIPOS>ATOM
      1 N           6.4510    1.0585   32.6814 N.3     1  UNL1       -0.3206
      2 C           5.9354   -0.3478   32.7613 C.3     1  UNL1        0.0750
      3 C           6.5164   -1.4110   31.8769 C.3     1  UNL1        0.1079
      4 N           6.0007   -2.8173   31.9567 N.pl3   1  UNL1       -0.2905
      5 C           4.9041   -3.1604   32.9209 C.3     1  UNL1        0.0926
      6 C           4.3231   -2.0973   33.8052 C.3     1  UNL1        0.0273
      7 C           4.8387   -0.6909   33.7254 C.3     1  UNL1        0.0422
      8 H           7.1889    1.1107   31.9791 H       1  UNL1        0.1189
      9 H           6.8253    1.3354   33.5890 H       1  UNL1        0.1189
     10 C           6.5817   -3.8806   31.0724 C.ar    1  UNL1        0.1536
     11 C           7.4664   -4.9415   31.6570 C.ar    1  UNL1        0.0393
     12 C           8.0473   -6.0047   30.7726 C.ar    1  UNL1        0.0435
     13 C           7.7436   -6.0069   29.3037 C.ar    1  UNL1        0.1853
     14 N           8.1693   -6.9199   28.1921 N.ar    1  UNL1       -0.2010
     15 C           7.5476   -6.4232   26.9206 C.ar    1  UNL1        0.2571
     16 N           6.7378   -5.2032   27.2463 N.ar    1  UNL1       -0.1229
     17 N           6.8589   -4.9460   28.7191 N.ar    1  UNL1       -0.1273
     18 N           6.2780   -3.8829   29.6035 N.ar    1  UNL1       -0.1315
     19 C           7.7076   -7.0383   25.5619 C.3     1  UNL1        0.4541
     20 F           7.8677   -7.6534   24.2032 F       1  UNL1       -0.1631
     21 F           7.4558   -5.7026   24.9276 F       1  UNL1       -0.1631
     22 F           7.9595   -8.3741   26.1963 F       1  UNL1       -0.1631
     23 C           4.2578    0.3722   34.6098 C.ar    1  UNL1        0.0087
     24 C           3.2669    1.3514   34.0536 C.ar    1  UNL1        0.0300
     25 C           2.6858    2.4147   34.9380 C.ar    1  UNL1        0.1672
     26 F           1.6950    3.3939   34.3818 F       1  UNL1       -0.2018
     27 C           3.0957    2.4986   36.3784 C.ar    1  UNL1        0.1696
     28 F           2.5147    3.5618   37.2628 F       1  UNL1       -0.2017
     29 C           4.0866    1.5194   36.9346 C.ar    1  UNL1        0.0612
     30 C           4.6676    0.4562   36.0502 C.ar    1  UNL1        0.1386
     31 F           5.6585   -0.5230   36.6064 F       1  UNL1       -0.2044
@<TRIPOS>BOND
     1     2     1    1
     2     2     3    1
     3     3     4    1
     4     4    10    1
     5    10    11   ar
     6    11    12   ar
     7    12    13   ar
     8    13    14   ar
     9    14    15   ar
    10    15    19    1
    11    19    20    1
    12    19    21    1
    13    19    22    1
    14    15    16   ar
    15    16    17   ar
    16    17    18   ar
    17     4     5    1
    18     5     6    1
    19     6     7    1
    20     7    23    1
    21    23    24   ar
    22    24    25   ar
    23    25    26    1
    24    25    27   ar
    25    27    28    1
    26    27    29   ar
    27    29    30   ar
    28    30    31    1
    29     7     2    1
    30    30    23   ar
    31    18    10   ar
    32    17    13   ar
    33     1     8    1
    34     1     9    1
@<TRIPOS>MOLECULE
*****
 31 34 0 0 0
SMALL
GASTEIGER

@<TRIPOS>ATOM
      1 N           3.5480   -0.0568   17.4820 N.3     1  UNL1       -0.3206
      2 C           2.6109    0.1191   18.6399 C.3     1  UNL1        0.0750
      3 C           1.5045    1.1290   18.5626 C.3     1  UNL1        0.1079
      4 N           0.5673    1.3049   19.7206 N.pl3   1  UNL1       -0.2905
      5 C           0.7366    0.4709   20.9558 C.3     1  UNL1        0.0926
      6 C           1.8430   -0.5390   21.0331 C.3     1  UNL1        0.0273
      7 C           2.7802   -0.7149   19.8752 C.3     1  UNL1        0.0422
      8 H           3.2883    0.5858   16.7337 H       1  UNL1        0.1189
      9 H           3.4909   -1.0165   17.1411 H       1  UNL1        0.1189
     10 C          -0.5391    2.3148   19.6433 C.ar    1  UNL1        0.1536
     11 C          -0.4613    3.4382   18.6524 C.ar    1  UNL1        0.0393
     12 C          -1.5677    4.4480   18.5752 C.ar    1  UNL1        0.0435
     13 C          -2.7520    4.3344   19.4888 C.ar    1  UNL1        0.1853
     14 N          -3.9858    5.1738   19.6418 N.ar    1  UNL1       -0.2010
     15 C          -4.8260    4.5691   20.7273 C.ar    1  UNL1        0.2571
     16 N          -4.1116    3.3560   21.2451 N.ar    1  UNL1       -0.1229
     17 N          -2.8298    3.2110   20.4797 N.ar    1  UNL1       -0.1273
     18 N          -1.7234    2.2012   20.5569 N.ar    1  UNL1       -0.1315
     19 C          -6.1486    5.0865   21.2102 C.3     1  UNL1        0.4541
     20 F          -7.4711    5.6039   21.6931 F       1  UNL1       -0.1631
     21 F          -6.3003    3.8796   22.0877 F       1  UNL1       -0.1631
     22 F          -5.9968    6.2935   20.3325 F       1  UNL1       -0.1631
     23 C           3.8866   -1.7248   19.9525 C.ar    1  UNL1        0.0087
     24 C           3.7206   -3.0698   19.3096 C.ar    1  UNL1        0.0300
     25 C           4.8270   -4.0798   19.3869 C.ar    1  UNL1        0.1672
     26 F           4.6610   -5.4248   18.7440 F       1  UNL1       -0.2018
     27 C           6.0994   -3.7446   20.1071 C.ar    1  UNL1        0.1696
     28 F           7.2058   -4.7545   20.1844 F       1  UNL1       -0.2017
     29 C           6.2654   -2.3995   20.7500 C.ar    1  UNL1        0.0612
     30 C           5.1590   -1.3897   20.6727 C.ar    1  UNL1        0.1386
     31 F           5.3250   -0.0447   21.3156 F       1  UNL1       -0.2044
@<TRIPOS>BOND
     1     2     1    1
     2     2     3    1
     3     3     4    1
     4     4    10    1
     5    10    11   ar
     6    11    12   ar
     7    12    13   ar
     8    13    14   ar
     9    14    15   ar
    10    15    19    1
    11    19    20    1
    12    19    21    1
    13    19    22    1
    14    15    16   ar
    15    16    17   ar
    16    17    18   ar
    17     4     5    1
    18     5     6    1
    19     6     7    1
    20     7    23    1
    21    23    24   ar
    22    24    25   ar
    23    25    26    1
    24    25    27   ar
    25    27    28    1
    26    27    29   ar
    27    29    30   ar
    28    30    31    1
    29     7     2    1
    30    30    23   ar
    31    18    10   ar
    32    17    13   ar
    33     1     8    1
    34     1     9    1
@<TRIPOS>MOLECULE
*****
 31 34 0 0 0
SMALL
GASTEIGER

@<TRIPOS>ATOM
      1 N           3.6935   -3.6868   19.5647 N.3     1  UNL1       -0.3206
      2 C           4.3153   -3.1163   20.8048 C.3     1  UNL1        0.0750
      3 C           5.2130   -3.9673   21.6533 C.3     1  UNL1        0.1079
      4 N           5.8349   -3.3969   22.8934 N.pl3   1  UNL1       -0.2905
      5 C           5.5590   -1.9754   23.2850 C.3     1  UNL1        0.0926
      6 C           4.6613   -1.1244   22.4366 C.3     1  UNL1        0.0273
      7 C           4.0395   -1.6949   21.1964 C.3     1  UNL1        0.0422
      8 H           3.9869   -4.6572   19.4527 H       1  UNL1        0.1189
      9 H           3.9933   -3.1452   18.7540 H       1  UNL1        0.1189
     10 C           6.7326   -4.2479   23.7419 C.ar    1  UNL1        0.1536
     11 C           7.8680   -4.9995   23.1128 C.ar    1  UNL1        0.0393
     12 C           8.7657   -5.8504   23.9613 C.ar    1  UNL1        0.0435
     13 C           8.5279   -5.9498   25.4390 C.ar    1  UNL1        0.1853
     14 N           9.2412   -6.7039   26.5219 N.ar    1  UNL1       -0.2010
     15 C           8.5466   -6.4184   27.8203 C.ar    1  UNL1        0.2571
     16 N           7.4040   -5.4878   27.5399 N.ar    1  UNL1       -0.1229
     17 N           7.3925   -5.1982   26.0682 N.ar    1  UNL1       -0.1273
     18 N           6.4949   -4.3473   25.2196 N.ar    1  UNL1       -0.1315
     19 C           8.9276   -6.9671   29.1634 C.3     1  UNL1        0.4541
     20 F           9.3086   -7.5157   30.5065 F       1  UNL1       -0.1631
     21 F           8.9063   -5.5807   29.7357 F       1  UNL1       -0.1631
     22 F           8.9489   -8.3534   28.5910 F       1  UNL1       -0.1631
     23 C           3.1418   -0.8439   20.3480 C.ar    1  UNL1        0.0087
     24 C           1.7376   -0.5600   20.7925 C.ar    1  UNL1        0.0300
     25 C           0.8398    0.2911   19.9440 C.ar    1  UNL1        0.1672
     26 F          -0.5643    0.5749   20.3886 F       1  UNL1       -0.2018
     27 C           1.3463    0.8582   18.6511 C.ar    1  UNL1        0.1696
     28 F           0.4487    1.7092   17.8026 F       1  UNL1       -0.2017
     29 C           2.7506    0.5743   18.2065 C.ar    1  UNL1        0.0612
     30 C           3.6483   -0.2767   19.0550 C.ar    1  UNL1        0.1386
     31 F           5.0524   -0.5606   18.6104 F       1  UNL1       -0.2044
@<TRIPOS>BOND
     1     2     1    1
     2     2     3    1
     3     3     4    1
     4     4    10    1
     5    10    11   ar
     6    11    12   ar
     7    12    13   ar
     8    13    14   ar
     9    14    15   ar
    10    15    19    1
    11    19    20    1
    12    19    21    1
    13    19    22    1
    14    15    16   ar
    15    16    17   ar
    16    17    18   ar
    17     4     5    1
    18     5     6    1
    19     6     7    1
    20     7    23    1
    21    23    24   ar
    22    24    25   ar
    23    25    26    1
    24    25    27   ar
    25    27    28    1
    26    27    29   ar
    27    29    30   ar
    28    30    31    1
    29     7     2    1
    30    30    23   ar
    31    18    10   ar
    32    17    13   ar
    33     1     8    1
    34     1     9    1
@<TRIPOS>MOLECULE
*****
 31 34 0 0 0
SMALL
GASTEIGER

@<TRIPOS>ATOM
      1 N           7.3792   -5.3787   23.4228 N.3     1  UNL1       -0.3206
      2 C           6.7354   -4.3016   24.2445 C.3     1  UNL1        0.0750
      3 C           6.8392   -4.3364   25.7406 C.3     1  UNL1        0.1079
      4 N           6.1953   -3.2593   26.5623 N.pl3   1  UNL1       -0.2905
      5 C           5.4476   -2.1474   25.8880 C.3     1  UNL1        0.0926
      6 C           5.3437   -2.1126   24.3921 C.3     1  UNL1        0.0273
      7 C           5.9876   -3.1897   23.5703 C.3     1  UNL1        0.0422
      8 H           7.8404   -6.0473   24.0399 H       1  UNL1        0.1189
      9 H           8.0685   -4.9625   22.7967 H       1  UNL1        0.1189
     10 C           6.2991   -3.2940   28.0583 C.ar    1  UNL1        0.1536
     11 C           7.0098   -4.4287   28.7347 C.ar    1  UNL1        0.0393
     12 C           7.1136   -4.4634   30.2306 C.ar    1  UNL1        0.0435
     13 C           6.5067   -3.3634   31.0503 C.ar    1  UNL1        0.1853
     14 N           6.4501   -3.1292   32.5308 N.ar    1  UNL1       -0.2010
     15 C           5.7045   -1.8497   32.7695 C.ar    1  UNL1        0.2571
     16 N           5.3003   -1.2932   31.4365 N.ar    1  UNL1       -0.1229
     17 N           5.7961   -2.2287   30.3739 N.ar    1  UNL1       -0.1273
     18 N           5.6923   -2.1940   28.8780 N.ar    1  UNL1       -0.1315
     19 C           5.4141   -1.2346   34.1065 C.3     1  UNL1        0.4541
     20 F           5.1236   -0.6196   35.4434 F       1  UNL1       -0.1631
     21 F           4.0736   -1.9075   34.1248 F       1  UNL1       -0.1631
     22 F           6.7546   -0.5617   34.0881 F       1  UNL1       -0.1631
     23 C           5.8838   -3.1549   22.0743 C.ar    1  UNL1        0.0087
     24 C           4.6876   -3.7490   21.3916 C.ar    1  UNL1        0.0300
     25 C           4.5837   -3.7142   19.8955 C.ar    1  UNL1        0.1672
     26 F           3.3875   -4.3082   19.2128 F       1  UNL1       -0.2018
     27 C           5.6760   -3.0854   19.0823 C.ar    1  UNL1        0.1696
     28 F           5.5722   -3.0506   17.5863 F       1  UNL1       -0.2017
     29 C           6.8723   -2.4913   19.7651 C.ar    1  UNL1        0.0612
     30 C           6.9761   -2.5261   21.2611 C.ar    1  UNL1        0.1386
     31 F           8.1724   -1.9321   21.9438 F       1  UNL1       -0.2044
@<TRIPOS>BOND
     1     2     1    1
     2     2     3    1
     3     3     4    1
     4     4    10    1
     5    10    11   ar
     6    11    12   ar
     7    12    13   ar
     8    13    14   ar
     9    14    15   ar
    10    15    19    1
    11    19    20    1
    12    19    21    1
    13    19    22    1
    14    15    16   ar
    15    16    17   ar
    16    17    18   ar
    17     4     5    1
    18     5     6    1
    19     6     7    1
    20     7    23    1
    21    23    24   ar
    22    24    25   ar
    23    25    26    1
    24    25    27   ar
    25    27    28    1
    26    27    29   ar
    27    29    30   ar
    28    30    31    1
    29     7     2    1
    30    30    23   ar
    31    18    10   ar
    32    17    13   ar
    33     1     8    1
    34     1     9    1
@<TRIPOS>MOLECULE
*****
 31 34 0 0 0
SMALL
GASTEIGER

@<TRIPOS>ATOM
      1 N           2.8766   -0.9153   22.5358 N.3     1  UNL1       -0.3206
      2 C           2.5270   -0.3058   21.2106 C.3     1  UNL1        0.0750
      3 C           1.3603    0.6306   21.1001 C.3     1  UNL1        0.1079
      4 N           1.0107    1.2401   19.7749 N.pl3   1  UNL1       -0.2905
      5 C           1.8277    0.9133   18.5601 C.3     1  UNL1        0.0926
      6 C           2.9943   -0.0230   18.6705 C.3     1  UNL1        0.0273
      7 C           3.3440   -0.6326   19.9958 C.3     1  UNL1        0.0422
      8 H           2.2216   -0.5859   23.2449 H       1  UNL1        0.1189
      9 H           3.8246   -0.6430   22.7958 H       1  UNL1        0.1189
     10 C          -0.1560    2.1765   19.6644 C.ar    1  UNL1        0.1536
     11 C          -0.1551    3.2562   18.6232 C.ar    1  UNL1        0.0393
     12 C          -1.3218    4.1924   18.5128 C.ar    1  UNL1        0.0435
     13 C          -2.4893    4.0491   19.4436 C.ar    1  UNL1        0.1853
     14 N          -3.7707    4.8182   19.5723 N.ar    1  UNL1       -0.2010
     15 C          -4.5635    4.2137   20.6930 C.ar    1  UNL1        0.2571
     16 N          -3.7721    3.0711   21.2570 N.ar    1  UNL1       -0.1229
     17 N          -2.4901    2.9694   20.4848 N.ar    1  UNL1       -0.1273
     18 N          -1.3235    2.0331   20.5952 N.ar    1  UNL1       -0.1315
     19 C          -5.9112    4.6715   21.1667 C.3     1  UNL1        0.4541
     20 F          -7.2588    5.1293   21.6403 F       1  UNL1       -0.1631
     21 F          -5.9013    5.7639   20.1388 F       1  UNL1       -0.1631
     22 F          -5.9210    3.5791   22.1946 F       1  UNL1       -0.1631
     23 C           4.5106   -1.5689   20.1062 C.ar    1  UNL1        0.0087
     24 C           5.8597   -1.0432   20.4980 C.ar    1  UNL1        0.0300
     25 C           7.0264   -1.9796   20.6085 C.ar    1  UNL1        0.1672
     26 F           8.3755   -1.4539   21.0003 F       1  UNL1       -0.2018
     27 C           6.8440   -3.4416   20.3270 C.ar    1  UNL1        0.1696
     28 F           8.0106   -4.3779   20.4374 F       1  UNL1       -0.2017
     29 C           5.4948   -3.9673   19.9351 C.ar    1  UNL1        0.0612
     30 C           4.3282   -3.0310   19.8247 C.ar    1  UNL1        0.1386
     31 F           2.9791   -3.5567   19.4329 F       1  UNL1       -0.2044
@<TRIPOS>BOND
     1     2     1    1
     2     2     3    1
     3     3     4    1
     4     4    10    1
     5    10    11   ar
     6    11    12   ar
     7    12    13   ar
     8    13    14   ar
     9    14    15   ar
    10    15    19    1
    11    19    20    1
    12    19    21    1
    13    19    22    1
    14    15    16   ar
    15    16    17   ar
    16    17    18   ar
    17     4     5    1
    18     5     6    1
    19     6     7    1
    20     7    23    1
    21    23    24   ar
    22    24    25   ar
    23    25    26    1
    24    25    27   ar
    25    27    28    1
    26    27    29   ar
    27    29    30   ar
    28    30    31    1
    29     7     2    1
    30    30    23   ar
    31    18    10   ar
    32    17    13   ar
    33     1     8    1
    34     1     9    1
@<TRIPOS>MOLECULE
*****
 31 34 0 0 0
SMALL
GASTEIGER

@<TRIPOS>ATOM
      1 N          -3.1838    3.8631   24.6155 N.3     1  UNL1       -0.3206
      2 C          -3.1635    3.8001   23.1170 C.3     1  UNL1        0.0750
      3 C          -1.9588    3.2595   22.4052 C.3     1  UNL1        0.1079
      4 N          -1.9386    3.1964   20.9067 N.pl3   1  UNL1       -0.2905
      5 C          -3.1230    3.6739   20.1199 C.3     1  UNL1        0.0926
      6 C          -4.3277    4.2145   20.8315 C.3     1  UNL1        0.0273
      7 C          -4.3479    4.2776   22.3301 C.3     1  UNL1        0.0422
      8 H          -2.3040    3.5006   24.9829 H       1  UNL1        0.1189
      9 H          -3.9576    3.3004   24.9690 H       1  UNL1        0.1189
     10 C          -0.7339    2.6558   20.1950 C.ar    1  UNL1        0.1536
     11 C           0.0129    3.5196   19.2222 C.ar    1  UNL1        0.0393
     12 C           1.2175    2.9789   18.5105 C.ar    1  UNL1        0.0435
     13 C           1.6754    1.5746   18.7716 C.ar    1  UNL1        0.1853
     14 N           2.8191    0.7736   18.2235 N.ar    1  UNL1       -0.2010
     15 C           2.7792   -0.5852   18.8576 C.ar    1  UNL1        0.2571
     16 N           1.6108   -0.6240   19.7975 N.ar    1  UNL1       -0.1229
     17 N           0.9287    0.7109   19.7444 N.ar    1  UNL1       -0.1273
     18 N          -0.2760    1.2515   20.4560 N.ar    1  UNL1       -0.1315
     19 C           3.7391   -1.7082   18.5974 C.3     1  UNL1        0.4541
     20 F           4.6990   -2.8311   18.3372 F       1  UNL1       -0.1631
     21 F           4.0974   -1.0957   17.2759 F       1  UNL1       -0.1631
     22 F           3.3808   -2.3207   19.9190 F       1  UNL1       -0.1631
     23 C          -5.5526    4.8182   23.0418 C.ar    1  UNL1        0.0087
     24 C          -6.8080    4.0008   23.1182 C.ar    1  UNL1        0.0300
     25 C          -8.0128    4.5414   23.8299 C.ar    1  UNL1        0.1672
     26 F          -9.2682    3.7241   23.9063 F       1  UNL1       -0.2018
     27 C          -7.9620    5.8993   24.4652 C.ar    1  UNL1        0.1696
     28 F          -9.1667    6.4399   25.1768 F       1  UNL1       -0.2017
     29 C          -6.7065    6.7166   24.3887 C.ar    1  UNL1        0.0612
     30 C          -5.5019    6.1761   23.6770 C.ar    1  UNL1        0.1386
     31 F          -4.2465    6.9934   23.6006 F       1  UNL1       -0.2044
@<TRIPOS>BOND
     1     2     1    1
     2     2     3    1
     3     3     4    1
     4     4    10    1
     5    10    11   ar
     6    11    12   ar
     7    12    13   ar
     8    13    14   ar
     9    14    15   ar
    10    15    19    1
    11    19    20    1
    12    19    21    1
    13    19    22    1
    14    15    16   ar
    15    16    17   ar
    16    17    18   ar
    17     4     5    1
    18     5     6    1
    19     6     7    1
    20     7    23    1
    21    23    24   ar
    22    24    25   ar
    23    25    26    1
    24    25    27   ar
    25    27    28    1
    26    27    29   ar
    27    29    30   ar
    28    30    31    1
    29     7     2    1
    30    30    23   ar
    31    18    10   ar
    32    17    13   ar
    33     1     8    1
    34     1     9    1
@<TRIPOS>MOLECULE
*****
 31 34 0 0 0
SMALL
GASTEIGER

@<TRIPOS>ATOM
      1 N           3.9158    2.5024   18.3297 N.3     1  UNL1       -0.3206
      2 C           2.6985    1.8649   18.9311 C.3     1  UNL1        0.0750
      3 C           1.4375    2.6610   19.0935 C.3     1  UNL1        0.1079
      4 N           0.2202    2.0234   19.6949 N.pl3   1  UNL1       -0.2905
      5 C           0.2638    0.5898   20.1338 C.3     1  UNL1        0.0926
      6 C           1.5247   -0.2063   19.9715 C.3     1  UNL1        0.0273
      7 C           2.7420    0.4312   19.3701 C.3     1  UNL1        0.0422
      8 H           3.7088    3.4723   18.0910 H       1  UNL1        0.1189
      9 H           4.1842    1.9946   17.4868 H       1  UNL1        0.1189
     10 C          -1.0407    2.8196   19.8573 C.ar    1  UNL1        0.1536
     11 C          -1.3079    3.9923   18.9610 C.ar    1  UNL1        0.0393
     12 C          -2.5688    4.7883   19.1234 C.ar    1  UNL1        0.0435
     13 C          -3.5625    4.4117   20.1821 C.ar    1  UNL1        0.1853
     14 N          -4.8830    5.0044   20.5757 N.ar    1  UNL1       -0.2010
     15 C          -5.4319    4.1980   21.7151 C.ar    1  UNL1        0.2571
     16 N          -4.4506    3.1069   22.0258 N.ar    1  UNL1       -0.1229
     17 N          -3.2952    3.2390   21.0784 N.ar    1  UNL1       -0.1273
     18 N          -2.0343    2.4429   20.9160 N.ar    1  UNL1       -0.1315
     19 C          -6.7336    4.4402   22.4202 C.3     1  UNL1        0.4541
     20 F          -8.0352    4.6823   23.1252 F       1  UNL1       -0.1631
     21 F          -7.3157    4.9960   21.1545 F       1  UNL1       -0.1631
     22 F          -6.1514    3.8843   23.6860 F       1  UNL1       -0.1631
     23 C           4.0029   -0.3649   19.2077 C.ar    1  UNL1        0.0087
     24 C           4.9590   -0.4977   20.3557 C.ar    1  UNL1        0.0300
     25 C           6.2200   -1.2939   20.1934 C.ar    1  UNL1        0.1672
     26 F           7.1761   -1.4267   21.3414 F       1  UNL1       -0.2018
     27 C           6.5247   -1.9572   18.8830 C.ar    1  UNL1        0.1696
     28 F           7.7855   -2.7533   18.7206 F       1  UNL1       -0.2017
     29 C           5.5684   -1.8243   17.7349 C.ar    1  UNL1        0.0612
     30 C           4.3076   -1.0282   17.8973 C.ar    1  UNL1        0.1386
     31 F           3.3514   -0.8954   16.7492 F       1  UNL1       -0.2044
@<TRIPOS>BOND
     1     2     1    1
     2     2     3    1
     3     3     4    1
     4     4    10    1
     5    10    11   ar
     6    11    12   ar
     7    12    13   ar
     8    13    14   ar
     9    14    15   ar
    10    15    19    1
    11    19    20    1
    12    19    21    1
    13    19    22    1
    14    15    16   ar
    15    16    17   ar
    16    17    18   ar
    17     4     5    1
    18     5     6    1
    19     6     7    1
    20     7    23    1
    21    23    24   ar
    22    24    25   ar
    23    25    26    1
    24    25    27   ar
    25    27    28    1
    26    27    29   ar
    27    29    30   ar
    28    30    31    1
    29     7     2    1
    30    30    23   ar
    31    18    10   ar
    32    17    13   ar
    33     1     8    1
    34     1     9    1
