@<TRIPOS>MOLECULE
*****
 31 33 0 0 0
SMALL
GASTEIGER

@<TRIPOS>ATOM
      1 C          -6.0962  -15.3595   23.8196 C.2     1  UNL1        0.2270
      2 O          -7.0024  -15.3640   22.6243 O.2     1  UNL1       -0.2748
      3 N          -6.6693  -15.5256   25.1958 N.am    1  UNL1       -0.2794
      4 C          -5.8919  -15.5415   26.4786 C.3     1  UNL1        0.0935
      5 C          -6.8625  -15.7307   27.6065 C.3     1  UNL1        0.0233
      6 C          -8.2397  -15.8318   27.0208 C.3     1  UNL1        0.0233
      7 C          -8.1203  -15.7050   25.5309 C.3     1  UNL1        0.0949
      8 C          -4.6170  -15.1889   23.6388 C.3     1  UNL1        0.1010
      9 N          -2.8373  -15.9054   21.8868 N.3     1  UNL1       -0.3215
     10 C          -3.8146  -16.2635   22.9669 C.3     1  UNL1        0.0644
     11 H          -2.8480  -14.8961   21.7396 H       1  UNL1        0.1188
     12 H          -3.0986  -16.3780   21.0215 H       1  UNL1        0.1188
     13 C          -3.9897  -17.6963   23.3750 C.3     1  UNL1        0.0447
     14 C          -4.5452  -18.6915   22.3998 C.ar    1  UNL1        0.0090
     15 C          -6.0296  -18.8443   22.2477 C.ar    1  UNL1        0.0300
     16 C          -6.5851  -19.8394   21.2725 C.ar    1  UNL1        0.1672
     17 F          -8.0695  -19.9923   21.1204 F       1  UNL1       -0.2018
     18 C          -5.6561  -20.6818   20.4494 C.ar    1  UNL1        0.1696
     19 F          -6.2117  -21.6770   19.4741 F       1  UNL1       -0.2017
     20 C          -4.1717  -20.5290   20.6014 C.ar    1  UNL1        0.0612
     21 C          -3.6163  -19.5338   21.5766 C.ar    1  UNL1        0.1386
     22 F          -2.1318  -19.3809   21.7287 F       1  UNL1       -0.2044
     23 C          -9.2530  -15.7499   24.5486 C.3     1  UNL1        0.1091
     24 N          -9.4587  -16.9667   23.6959 N.am    1  UNL1       -0.3027
     25 C         -10.6458  -17.0508   22.7829 C.2     1  UNL1        0.2220
     26 O         -11.6274  -15.9181   22.7226 O.2     1  UNL1       -0.2751
     27 H          -8.8145  -17.7101   23.7355 H       1  UNL1        0.1495
     28 C         -10.8515  -18.2677   21.9302 C.3     1  UNL1        0.0765
     29 C         -11.0333  -19.7322   22.1984 C.3     1  UNL1        0.0091
     30 C         -11.1422  -19.9885   20.7245 C.3     1  UNL1        0.0010
     31 C         -10.9604  -18.5240   20.4563 C.3     1  UNL1        0.0091
@<TRIPOS>BOND
     1    10     9    1
     2    10     8    1
     3     8     1    1
     4     1     2    2
     5     1     3   am
     6     3     4    1
     7     4     5    1
     8     5     6    1
     9     6     7    1
    10     7    23    1
    11    23    24    1
    12    24    25   am
    13    25    26    2
    14    25    28    1
    15    28    29    1
    16    29    30    1
    17    30    31    1
    18    10    13    1
    19    13    14    1
    20    14    15   ar
    21    15    16   ar
    22    16    17    1
    23    16    18   ar
    24    18    19    1
    25    18    20   ar
    26    20    21   ar
    27    21    22    1
    28     7     3    1
    29    31    28    1
    30    21    14   ar
    31     9    11    1
    32     9    12    1
    33    24    27    1
@<TRIPOS>MOLECULE
*****
 31 33 0 0 0
SMALL
GASTEIGER

@<TRIPOS>ATOM
      1 C          -8.3345  -16.1836   23.6593 C.2     1  UNL1        0.2270
      2 O          -7.5787  -16.2329   22.3646 O.2     1  UNL1       -0.2748
      3 N          -7.6147  -15.8656   24.9363 N.am    1  UNL1       -0.2794
      4 C          -8.2338  -15.7811   26.3000 C.3     1  UNL1        0.0935
      5 C          -7.1512  -15.4395   27.2803 C.3     1  UNL1        0.0233
      6 C          -5.8628  -15.3127   26.5224 C.3     1  UNL1        0.0233
      7 C          -6.1494  -15.5761   25.0738 C.3     1  UNL1        0.0949
      8 C          -9.8101  -16.4524   23.6771 C.3     1  UNL1        0.1010
      9 N         -10.6718  -18.5184   24.9959 N.3     1  UNL1       -0.3215
     10 C         -10.3150  -17.8648   23.6938 C.3     1  UNL1        0.0644
     11 H         -10.5108  -17.8630   25.7607 H       1  UNL1        0.1188
     12 H         -10.0921  -19.3469   25.1305 H       1  UNL1        0.1188
     13 C         -10.4632  -18.6235   22.4084 C.3     1  UNL1        0.0447
     14 C          -9.2476  -19.1440   21.7002 C.ar    1  UNL1        0.0090
     15 C          -8.0407  -19.5590   22.4882 C.ar    1  UNL1        0.0300
     16 C          -6.8252  -20.0795   21.7800 C.ar    1  UNL1        0.1672
     17 F          -5.6182  -20.4946   22.5681 F       1  UNL1       -0.2018
     18 C          -6.8166  -20.1848   20.2838 C.ar    1  UNL1        0.1696
     19 F          -5.6009  -20.7053   19.5756 F       1  UNL1       -0.2017
     20 C          -8.0234  -19.7698   19.4957 C.ar    1  UNL1        0.0612
     21 C          -9.2390  -19.2494   20.2039 C.ar    1  UNL1        0.1386
     22 F         -10.4459  -18.8343   19.4158 F       1  UNL1       -0.2044
     23 C          -5.1465  -15.5538   23.9585 C.3     1  UNL1        0.1091
     24 N          -4.7446  -16.8327   23.2855 N.am    1  UNL1       -0.3027
     25 C          -3.5828  -16.8482   22.3370 C.2     1  UNL1        0.2220
     26 O          -2.8228  -15.5847   22.0613 O.2     1  UNL1       -0.2751
     27 H          -5.2434  -17.6620   23.4665 H       1  UNL1        0.1495
     28 C          -3.1809  -18.1272   21.6640 C.3     1  UNL1        0.0765
     29 C          -2.6060  -19.4334   22.1258 C.3     1  UNL1        0.0091
     30 C          -2.6127  -19.9358   20.7125 C.3     1  UNL1        0.0010
     31 C          -3.1876  -18.6296   20.2507 C.3     1  UNL1        0.0091
@<TRIPOS>BOND
     1    10     9    1
     2    10     8    1
     3     8     1    1
     4     1     2    2
     5     1     3   am
     6     3     4    1
     7     4     5    1
     8     5     6    1
     9     6     7    1
    10     7    23    1
    11    23    24    1
    12    24    25   am
    13    25    26    2
    14    25    28    1
    15    28    29    1
    16    29    30    1
    17    30    31    1
    18    10    13    1
    19    13    14    1
    20    14    15   ar
    21    15    16   ar
    22    16    17    1
    23    16    18   ar
    24    18    19    1
    25    18    20   ar
    26    20    21   ar
    27    21    22    1
    28     7     3    1
    29    31    28    1
    30    21    14   ar
    31     9    11    1
    32     9    12    1
    33    24    27    1
@<TRIPOS>MOLECULE
*****
 31 33 0 0 0
SMALL
GASTEIGER

@<TRIPOS>ATOM
      1 C          -7.9486  -18.3325   21.0525 C.2     1  UNL1        0.2270
      2 O          -7.2953  -17.1273   21.6614 O.2     1  UNL1       -0.2748
      3 N          -9.4172  -18.5679   21.2464 N.am    1  UNL1       -0.2794
      4 C         -10.2047  -19.7222   20.7010 C.3     1  UNL1        0.0935
      5 C         -11.6304  -19.5581   21.1373 C.3     1  UNL1        0.0233
      6 C         -11.7240  -18.3023   21.9524 C.3     1  UNL1        0.0233
      7 C         -10.3562  -17.6904   22.0198 C.3     1  UNL1        0.0949
      8 C          -7.1332  -19.3023   20.2497 C.3     1  UNL1        0.1010
      9 N          -6.5671  -20.8518   22.2568 N.3     1  UNL1       -0.3215
     10 C          -6.1879  -20.2398   20.9408 C.3     1  UNL1        0.0644
     11 H          -7.4930  -20.5230   22.5305 H       1  UNL1        0.1188
     12 H          -5.8865  -20.5807   22.9665 H       1  UNL1        0.1188
     13 C          -4.8637  -20.5653   20.3161 C.3     1  UNL1        0.0447
     14 C          -3.7655  -19.5435   20.3108 C.ar    1  UNL1        0.0090
     15 C          -3.1747  -19.0842   19.0108 C.ar    1  UNL1        0.0300
     16 C          -2.0765  -18.0625   19.0056 C.ar    1  UNL1        0.1672
     17 F          -1.4856  -17.6031   17.7055 F       1  UNL1       -0.2018
     18 C          -1.5692  -17.5000   20.3003 C.ar    1  UNL1        0.1696
     19 F          -0.4710  -16.4782   20.2950 F       1  UNL1       -0.2017
     20 C          -2.1600  -17.9593   21.6002 C.ar    1  UNL1        0.0612
     21 C          -3.2582  -18.9810   21.6055 C.ar    1  UNL1        0.1386
     22 F          -3.8490  -19.4404   22.9055 F       1  UNL1       -0.2044
     23 C          -9.9915  -16.4234   22.7351 C.3     1  UNL1        0.1091
     24 N          -9.4125  -16.4825   24.1176 N.am    1  UNL1       -0.3027
     25 C          -8.2959  -15.5581   24.5034 C.2     1  UNL1        0.2220
     26 O          -7.7583  -14.5745   23.5065 O.2     1  UNL1       -0.2751
     27 H          -9.7653  -17.1280   24.7718 H       1  UNL1        0.1495
     28 C          -7.7170  -15.6173   25.8859 C.3     1  UNL1        0.0765
     29 C          -6.3372  -15.5066   26.4635 C.3     1  UNL1        0.0091
     30 C          -6.8983  -15.7009   27.8410 C.3     1  UNL1        0.0010
     31 C          -8.2782  -15.8116   27.2633 C.3     1  UNL1        0.0091
@<TRIPOS>BOND
     1    10     9    1
     2    10     8    1
     3     8     1    1
     4     1     2    2
     5     1     3   am
     6     3     4    1
     7     4     5    1
     8     5     6    1
     9     6     7    1
    10     7    23    1
    11    23    24    1
    12    24    25   am
    13    25    26    2
    14    25    28    1
    15    28    29    1
    16    29    30    1
    17    30    31    1
    18    10    13    1
    19    13    14    1
    20    14    15   ar
    21    15    16   ar
    22    16    17    1
    23    16    18   ar
    24    18    19    1
    25    18    20   ar
    26    20    21   ar
    27    21    22    1
    28     7     3    1
    29    31    28    1
    30    21    14   ar
    31     9    11    1
    32     9    12    1
    33    24    27    1
@<TRIPOS>MOLECULE
*****
 31 33 0 0 0
SMALL
GASTEIGER

@<TRIPOS>ATOM
      1 C          -8.7019  -17.3269   24.3995 C.2     1  UNL1        0.2270
      2 O          -8.1826  -17.4796   23.0006 O.2     1  UNL1       -0.2748
      3 N          -7.9404  -16.5050   25.3967 N.am    1  UNL1       -0.2794
      4 C          -8.3336  -16.2630   26.8239 C.3     1  UNL1        0.0935
      5 C          -7.2881  -15.3892   27.4511 C.3     1  UNL1        0.0233
      6 C          -6.2487  -15.0911   26.4114 C.3     1  UNL1        0.0233
      7 C          -6.6518  -15.7806   25.1418 C.3     1  UNL1        0.0949
      8 C          -9.9829  -17.9960   24.8012 C.3     1  UNL1        0.1010
      9 N          -9.9113  -20.5192   25.4167 N.3     1  UNL1       -0.3215
     10 C         -10.2270  -19.4300   24.4348 C.3     1  UNL1        0.0644
     11 H          -9.5422  -20.1076   26.2739 H       1  UNL1        0.1188
     12 H          -9.2162  -21.1482   25.0149 H       1  UNL1        0.1188
     13 C         -10.7867  -19.7748   23.0866 C.3     1  UNL1        0.0447
     14 C         -11.1847  -18.6829   22.1382 C.ar    1  UNL1        0.0090
     15 C         -11.9744  -17.5085   22.6354 C.ar    1  UNL1        0.0300
     16 C         -12.3724  -16.4167   21.6870 C.ar    1  UNL1        0.1672
     17 F         -13.1621  -15.2423   22.1842 F       1  UNL1       -0.2018
     18 C         -11.9807  -16.4993   20.2414 C.ar    1  UNL1        0.1696
     19 F         -12.3788  -15.4074   19.2930 F       1  UNL1       -0.2017
     20 C         -11.1911  -17.6736   19.7442 C.ar    1  UNL1        0.0612
     21 C         -10.7931  -18.7654   20.6926 C.ar    1  UNL1        0.1386
     22 F         -10.0034  -19.9399   20.1954 F       1  UNL1       -0.2044
     23 C          -5.8986  -15.7511   23.8450 C.3     1  UNL1        0.1091
     24 N          -5.2092  -16.9878   23.3495 N.am    1  UNL1       -0.3027
     25 C          -3.9118  -16.8761   22.6051 C.2     1  UNL1        0.2220
     26 O          -3.3038  -15.5276   22.3560 O.2     1  UNL1       -0.2751
     27 H          -5.6083  -17.8728   23.5130 H       1  UNL1        0.1495
     28 C          -3.2225  -18.1128   22.1097 C.3     1  UNL1        0.0765
     29 C          -3.5872  -19.5647   22.0156 C.3     1  UNL1        0.0091
     30 C          -2.2478  -19.8617   21.4091 C.3     1  UNL1        0.0010
     31 C          -1.8831  -18.4098   21.5032 C.3     1  UNL1        0.0091
@<TRIPOS>BOND
     1    10     9    1
     2    10     8    1
     3     8     1    1
     4     1     2    2
     5     1     3   am
     6     3     4    1
     7     4     5    1
     8     5     6    1
     9     6     7    1
    10     7    23    1
    11    23    24    1
    12    24    25   am
    13    25    26    2
    14    25    28    1
    15    28    29    1
    16    29    30    1
    17    30    31    1
    18    10    13    1
    19    13    14    1
    20    14    15   ar
    21    15    16   ar
    22    16    17    1
    23    16    18   ar
    24    18    19    1
    25    18    20   ar
    26    20    21   ar
    27    21    22    1
    28     7     3    1
    29    31    28    1
    30    21    14   ar
    31     9    11    1
    32     9    12    1
    33    24    27    1
@<TRIPOS>MOLECULE
*****
 31 33 0 0 0
SMALL
GASTEIGER

@<TRIPOS>ATOM
      1 C          -9.0304  -17.1758   24.7223 C.2     1  UNL1        0.2270
      2 O          -8.7596  -17.2114   23.2474 O.2     1  UNL1       -0.2748
      3 N          -8.0840  -16.4620   25.6416 N.am    1  UNL1       -0.2794
      4 C          -8.2227  -16.3426   27.1304 C.3     1  UNL1        0.0935
      5 C          -7.0572  -15.5492   27.6423 C.3     1  UNL1        0.0233
      6 C          -6.1982  -15.1783   26.4699 C.3     1  UNL1        0.0233
      7 C          -6.8328  -15.7424   25.2334 C.3     1  UNL1        0.0949
      8 C         -10.2475  -17.8538   25.2781 C.3     1  UNL1        0.1010
      9 N          -9.9250  -20.4311   25.3389 N.3     1  UNL1       -0.3215
     10 C         -10.6289  -19.2225   24.7970 C.3     1  UNL1        0.0644
     11 H          -9.2225  -20.1393   26.0184 H       1  UNL1        0.1188
     12 H          -9.4714  -20.9316   24.5746 H       1  UNL1        0.1188
     13 C         -11.7143  -19.3825   23.7742 C.3     1  UNL1        0.0447
     14 C         -11.6826  -18.5700   22.5136 C.ar    1  UNL1        0.0090
     15 C         -10.8138  -18.9970   21.3678 C.ar    1  UNL1        0.0300
     16 C         -10.7821  -18.1846   20.1073 C.ar    1  UNL1        0.1672
     17 F          -9.9133  -18.6115   18.9614 F       1  UNL1       -0.2018
     18 C         -11.6192  -16.9452   19.9926 C.ar    1  UNL1        0.1696
     19 F         -11.5875  -16.1327   18.7320 F       1  UNL1       -0.2017
     20 C         -12.4880  -16.5182   21.1384 C.ar    1  UNL1        0.0612
     21 C         -12.5197  -17.3306   22.3989 C.ar    1  UNL1        0.1386
     22 F         -13.3885  -16.9037   23.5447 F       1  UNL1       -0.2044
     23 C          -6.3083  -15.6102   23.8343 C.3     1  UNL1        0.1091
     24 N          -4.9867  -16.2180   23.4682 N.am    1  UNL1       -0.3027
     25 C          -4.9400  -17.5224   22.7290 C.2     1  UNL1        0.2220
     26 O          -6.2150  -18.2191   22.3560 O.2     1  UNL1       -0.2751
     27 H          -4.1499  -15.7607   23.7130 H       1  UNL1        0.1495
     28 C          -3.6184  -18.1301   22.3629 C.3     1  UNL1        0.0765
     29 C          -2.2030  -17.6366   22.3079 C.3     1  UNL1        0.0091
     30 C          -1.7494  -18.9894   21.8451 C.3     1  UNL1        0.0010
     31 C          -3.1648  -19.4829   21.9002 C.3     1  UNL1        0.0091
@<TRIPOS>BOND
     1    10     9    1
     2    10     8    1
     3     8     1    1
     4     1     2    2
     5     1     3   am
     6     3     4    1
     7     4     5    1
     8     5     6    1
     9     6     7    1
    10     7    23    1
    11    23    24    1
    12    24    25   am
    13    25    26    2
    14    25    28    1
    15    28    29    1
    16    29    30    1
    17    30    31    1
    18    10    13    1
    19    13    14    1
    20    14    15   ar
    21    15    16   ar
    22    16    17    1
    23    16    18   ar
    24    18    19    1
    25    18    20   ar
    26    20    21   ar
    27    21    22    1
    28     7     3    1
    29    31    28    1
    30    21    14   ar
    31     9    11    1
    32     9    12    1
    33    24    27    1
@<TRIPOS>MOLECULE
*****
 31 33 0 0 0
SMALL
GASTEIGER

@<TRIPOS>ATOM
      1 C          -6.4486  -19.0078   22.4260 C.2     1  UNL1        0.2270
      2 O          -5.2000  -19.8390   22.4147 O.2     1  UNL1       -0.2748
      3 N          -6.4148  -17.6110   22.9717 N.am    1  UNL1       -0.2794
      4 C          -7.5772  -16.6659   23.0481 C.3     1  UNL1        0.0935
      5 C          -7.0935  -15.3849   23.6604 C.3     1  UNL1        0.0233
      6 C          -5.6322  -15.5383   23.9624 C.3     1  UNL1        0.0233
      7 C          -5.2128  -16.9141   23.5367 C.3     1  UNL1        0.0949
      8 C          -7.7310  -19.5734   21.8916 C.3     1  UNL1        0.1010
      9 N          -7.1147  -18.9239   19.4526 N.3     1  UNL1       -0.3215
     10 C          -8.1468  -19.2855   20.4794 C.3     1  UNL1        0.0644
     11 H          -6.1911  -18.9212   19.8853 H       1  UNL1        0.1188
     12 H          -7.3177  -17.9969   19.0784 H       1  UNL1        0.1188
     13 C          -9.5945  -19.3593   20.0939 C.3     1  UNL1        0.0447
     14 C         -10.6475  -18.8497   21.0328 C.ar    1  UNL1        0.0090
     15 C         -10.7169  -19.3725   22.4370 C.ar    1  UNL1        0.0300
     16 C         -11.7699  -18.8630   23.3758 C.ar    1  UNL1        0.1672
     17 F         -11.8393  -19.3858   24.7801 F       1  UNL1       -0.2018
     18 C         -12.7536  -17.8306   22.9104 C.ar    1  UNL1        0.1696
     19 F         -13.8066  -17.3210   23.8494 F       1  UNL1       -0.2017
     20 C         -12.6842  -17.3078   21.5063 C.ar    1  UNL1        0.0612
     21 C         -11.6312  -17.8173   20.5674 C.ar    1  UNL1        0.1386
     22 F         -11.5618  -17.2945   19.1631 F       1  UNL1       -0.2044
     23 C          -3.8335  -17.4915   23.6553 C.3     1  UNL1        0.1091
     24 N          -3.0986  -17.9372   22.4259 N.am    1  UNL1       -0.3027
     25 C          -2.4515  -16.9230   21.5300 C.2     1  UNL1        0.2220
     26 O          -2.5393  -15.4632   21.8635 O.2     1  UNL1       -0.2751
     27 H          -3.0410  -18.8953   22.2071 H       1  UNL1        0.1495
     28 C          -1.7166  -17.3688   20.3006 C.3     1  UNL1        0.0765
     29 C          -0.2791  -17.6282   19.9599 C.3     1  UNL1        0.0091
     30 C          -0.6774  -17.9991   18.5621 C.3     1  UNL1        0.0010
     31 C          -2.1149  -17.7396   18.9028 C.3     1  UNL1        0.0091
@<TRIPOS>BOND
     1    10     9    1
     2    10     8    1
     3     8     1    1
     4     1     2    2
     5     1     3   am
     6     3     4    1
     7     4     5    1
     8     5     6    1
     9     6     7    1
    10     7    23    1
    11    23    24    1
    12    24    25   am
    13    25    26    2
    14    25    28    1
    15    28    29    1
    16    29    30    1
    17    30    31    1
    18    10    13    1
    19    13    14    1
    20    14    15   ar
    21    15    16   ar
    22    16    17    1
    23    16    18   ar
    24    18    19    1
    25    18    20   ar
    26    20    21   ar
    27    21    22    1
    28     7     3    1
    29    31    28    1
    30    21    14   ar
    31     9    11    1
    32     9    12    1
    33    24    27    1
@<TRIPOS>MOLECULE
*****
 31 33 0 0 0
SMALL
GASTEIGER

@<TRIPOS>ATOM
      1 C          -8.6658  -19.7773   22.7293 C.2     1  UNL1        0.2270
      2 O          -7.1899  -20.0365   22.7958 O.2     1  UNL1       -0.2748
      3 N          -9.3245  -19.5267   21.4052 N.am    1  UNL1       -0.2794
      4 C         -10.7827  -19.2543   21.1833 C.3     1  UNL1        0.0935
      5 C         -11.0000  -19.0638   19.7114 C.3     1  UNL1        0.0233
      6 C          -9.6759  -19.2185   19.0236 C.3     1  UNL1        0.0233
      7 C          -8.6404  -19.5046   20.0704 C.3     1  UNL1        0.0949
      8 C          -9.4832  -19.7686   23.9870 C.3     1  UNL1        0.1010
      9 N         -11.6764  -18.8296   25.0157 N.3     1  UNL1       -0.3215
     10 C         -10.3835  -18.6072   24.2884 C.3     1  UNL1        0.0644
     11 H         -11.7815  -19.8220   25.2267 H       1  UNL1        0.1188
     12 H         -12.4531  -18.5223   24.4302 H       1  UNL1        0.1188
     13 C          -9.9909  -17.2236   23.8625 C.3     1  UNL1        0.0447
     14 C          -8.7164  -16.6161   24.3692 C.ar    1  UNL1        0.0090
     15 C          -8.5721  -16.2804   25.8240 C.ar    1  UNL1        0.0300
     16 C          -7.2976  -15.6730   26.3307 C.ar    1  UNL1        0.1672
     17 F          -7.1532  -15.3373   27.7855 F       1  UNL1       -0.2018
     18 C          -6.1675  -15.4013   25.3825 C.ar    1  UNL1        0.1696
     19 F          -4.8930  -14.7938   25.8892 F       1  UNL1       -0.2017
     20 C          -6.3118  -15.7370   23.9277 C.ar    1  UNL1        0.0612
     21 C          -7.5863  -16.3444   23.4211 C.ar    1  UNL1        0.1386
     22 F          -7.7307  -16.6801   21.9662 F       1  UNL1       -0.2044
     23 C          -7.1777  -19.7291   19.8255 C.3     1  UNL1        0.1091
     24 N          -6.1621  -18.8447   20.4860 N.am    1  UNL1       -0.3027
     25 C          -4.7548  -19.3287   20.6736 C.2     1  UNL1        0.2220
     26 O          -4.3631  -20.6972   20.2006 O.2     1  UNL1       -0.2751
     27 H          -6.4192  -17.9465   20.7964 H       1  UNL1        0.1495
     28 C          -3.7392  -18.4441   21.3342 C.3     1  UNL1        0.0765
     29 C          -3.5342  -17.9191   22.7242 C.3     1  UNL1        0.0091
     30 C          -2.3032  -17.1933   22.2683 C.3     1  UNL1        0.0010
     31 C          -2.5082  -17.7184   20.8783 C.3     1  UNL1        0.0091
@<TRIPOS>BOND
     1    10     9    1
     2    10     8    1
     3     8     1    1
     4     1     2    2
     5     1     3   am
     6     3     4    1
     7     4     5    1
     8     5     6    1
     9     6     7    1
    10     7    23    1
    11    23    24    1
    12    24    25   am
    13    25    26    2
    14    25    28    1
    15    28    29    1
    16    29    30    1
    17    30    31    1
    18    10    13    1
    19    13    14    1
    20    14    15   ar
    21    15    16   ar
    22    16    17    1
    23    16    18   ar
    24    18    19    1
    25    18    20   ar
    26    20    21   ar
    27    21    22    1
    28     7     3    1
    29    31    28    1
    30    21    14   ar
    31     9    11    1
    32     9    12    1
    33    24    27    1
@<TRIPOS>MOLECULE
*****
 31 33 0 0 0
SMALL
GASTEIGER

@<TRIPOS>ATOM
      1 C          -6.4084  -16.9165   23.0368 C.2     1  UNL1        0.2270
      2 O          -5.1284  -16.9736   23.8169 O.2     1  UNL1       -0.2748
      3 N          -6.7580  -18.0237   22.0873 N.am    1  UNL1       -0.2794
      4 C          -7.9959  -18.1040   21.2439 C.3     1  UNL1        0.0935
      5 C          -7.9342  -19.3750   20.4497 C.3     1  UNL1        0.0233
      6 C          -6.6580  -20.0803   20.8023 C.3     1  UNL1        0.0233
      7 C          -5.9312  -19.2451   21.8143 C.3     1  UNL1        0.0949
      8 C          -7.3386  -15.7521   23.2063 C.3     1  UNL1        0.1010
      9 N          -7.2162  -14.7802   25.6126 N.3     1  UNL1       -0.3215
     10 C          -7.9810  -15.4927   24.5368 C.3     1  UNL1        0.0644
     11 H          -6.2843  -14.5469   25.2698 H       1  UNL1        0.1188
     12 H          -7.1362  -15.3847   26.4302 H       1  UNL1        0.1188
     13 C          -9.3880  -15.9459   24.7914 C.3     1  UNL1        0.0447
     14 C          -9.9047  -17.1924   24.1361 C.ar    1  UNL1        0.0090
     15 C          -9.3737  -18.5327   24.5501 C.ar    1  UNL1        0.0300
     16 C          -9.8905  -19.7791   23.8948 C.ar    1  UNL1        0.1672
     17 F          -9.3595  -21.1195   24.3089 F       1  UNL1       -0.2018
     18 C         -10.9381  -19.6851   22.8255 C.ar    1  UNL1        0.1696
     19 F         -11.4549  -20.9316   22.1701 F       1  UNL1       -0.2017
     20 C         -11.4691  -18.3448   22.4114 C.ar    1  UNL1        0.0612
     21 C         -10.9524  -17.0984   23.0667 C.ar    1  UNL1        0.1386
     22 F         -11.4834  -15.7579   22.6527 F       1  UNL1       -0.2044
     23 C          -4.6096  -19.5737   22.4430 C.3     1  UNL1        0.1091
     24 N          -3.3965  -18.7567   22.1096 N.am    1  UNL1       -0.3027
     25 C          -2.7662  -18.8690   20.7532 C.2     1  UNL1        0.2220
     26 O          -3.3489  -19.7984   19.7300 O.2     1  UNL1       -0.2751
     27 H          -3.0141  -18.1468   22.7812 H       1  UNL1        0.1495
     28 C          -1.5531  -18.0520   20.4199 C.3     1  UNL1        0.0765
     29 C          -0.2672  -18.3108   19.6923 C.3     1  UNL1        0.0091
     30 C           0.1623  -16.8967   19.9485 C.3     1  UNL1        0.0010
     31 C          -1.1236  -16.6378   20.6761 C.3     1  UNL1        0.0091
@<TRIPOS>BOND
     1    10     9    1
     2    10     8    1
     3     8     1    1
     4     1     2    2
     5     1     3   am
     6     3     4    1
     7     4     5    1
     8     5     6    1
     9     6     7    1
    10     7    23    1
    11    23    24    1
    12    24    25   am
    13    25    26    2
    14    25    28    1
    15    28    29    1
    16    29    30    1
    17    30    31    1
    18    10    13    1
    19    13    14    1
    20    14    15   ar
    21    15    16   ar
    22    16    17    1
    23    16    18   ar
    24    18    19    1
    25    18    20   ar
    26    20    21   ar
    27    21    22    1
    28     7     3    1
    29    31    28    1
    30    21    14   ar
    31     9    11    1
    32     9    12    1
    33    24    27    1
@<TRIPOS>MOLECULE
*****
 31 33 0 0 0
SMALL
GASTEIGER

@<TRIPOS>ATOM
      1 C          -6.4949  -18.6607   22.4685 C.2     1  UNL1        0.2270
      2 O          -5.0372  -19.0085   22.4043 O.2     1  UNL1       -0.2748
      3 N          -6.9296  -17.3597   23.0754 N.am    1  UNL1       -0.2794
      4 C          -8.3438  -16.8778   23.2086 C.3     1  UNL1        0.0935
      5 C          -8.3146  -15.5324   23.8713 C.3     1  UNL1        0.0233
      6 C          -6.8823  -15.1829   24.1477 C.3     1  UNL1        0.0233
      7 C          -6.0263  -16.3122   23.6558 C.3     1  UNL1        0.0949
      8 C          -7.5180  -19.6139   21.9256 C.3     1  UNL1        0.1010
      9 N          -7.1592  -18.9637   19.4359 N.3     1  UNL1       -0.3215
     10 C          -8.0638  -19.4203   20.5419 C.3     1  UNL1        0.0644
     11 H          -6.2153  -18.8345   19.8002 H       1  UNL1        0.1188
     12 H          -7.5021  -18.0800   19.0591 H       1  UNL1        0.1188
     13 C          -9.5142  -19.6833   20.2641 C.3     1  UNL1        0.0447
     14 C         -10.5707  -18.9541   21.0402 C.ar    1  UNL1        0.0090
     15 C         -11.2646  -17.7708   20.4333 C.ar    1  UNL1        0.0300
     16 C         -12.3210  -17.0416   21.2093 C.ar    1  UNL1        0.1672
     17 F         -13.0149  -15.8583   20.6025 F       1  UNL1       -0.2018
     18 C         -12.6836  -17.4958   22.5922 C.ar    1  UNL1        0.1696
     19 F         -13.7401  -16.7665   23.3682 F       1  UNL1       -0.2017
     20 C         -11.9897  -18.6791   23.1990 C.ar    1  UNL1        0.0612
     21 C         -10.9333  -19.4082   22.4230 C.ar    1  UNL1        0.1386
     22 F         -10.2393  -20.5916   23.0299 F       1  UNL1       -0.2044
     23 C          -4.5298  -16.3818   23.7311 C.3     1  UNL1        0.1091
     24 N          -3.7211  -16.5182   22.4752 N.am    1  UNL1       -0.3027
     25 C          -2.5167  -17.4120   22.4519 C.2     1  UNL1        0.2220
     26 O          -2.1210  -18.1694   23.6847 O.2     1  UNL1       -0.2751
     27 H          -3.9808  -16.0211   21.6661 H       1  UNL1        0.1495
     28 C          -1.7080  -17.5483   21.1959 C.3     1  UNL1        0.0765
     29 C          -1.4613  -18.6493   20.2076 C.3     1  UNL1        0.0091
     30 C          -0.5645  -17.7411   19.4198 C.3     1  UNL1        0.0010
     31 C          -0.8112  -16.6401   20.4081 C.3     1  UNL1        0.0091
@<TRIPOS>BOND
     1    10     9    1
     2    10     8    1
     3     8     1    1
     4     1     2    2
     5     1     3   am
     6     3     4    1
     7     4     5    1
     8     5     6    1
     9     6     7    1
    10     7    23    1
    11    23    24    1
    12    24    25   am
    13    25    26    2
    14    25    28    1
    15    28    29    1
    16    29    30    1
    17    30    31    1
    18    10    13    1
    19    13    14    1
    20    14    15   ar
    21    15    16   ar
    22    16    17    1
    23    16    18   ar
    24    18    19    1
    25    18    20   ar
    26    20    21   ar
    27    21    22    1
    28     7     3    1
    29    31    28    1
    30    21    14   ar
    31     9    11    1
    32     9    12    1
    33    24    27    1
