@<TRIPOS>MOLECULE
*****
 20 22 0 0 0
SMALL
GASTEIGER

@<TRIPOS>ATOM
      1 C         -10.3388  -19.6349   19.5736 C.3     1  UNL1        0.0061
      2 C          -8.8826  -19.4818   19.8991 C.3     1  UNL1        0.0377
      3 C          -8.7878  -20.3647   18.6901 C.3     1  UNL1        0.0061
      4 C          -7.3935  -19.6354   19.8048 C.3     1  UNL1        0.1025
      5 N          -6.5048  -18.9592   20.8063 N.am    1  UNL1       -0.2534
      6 C          -7.1052  -18.1295   21.9022 C.2     1  UNL1        0.2525
      7 O          -6.2166  -17.4534   22.9038 O.2     1  UNL1       -0.2696
      8 C          -8.5944  -17.9759   21.9966 C.ar    1  UNL1        0.0500
      9 C          -9.1949  -17.1463   23.0925 C.ar    1  UNL1        0.0051
     10 C         -10.6840  -16.9927   23.1868 C.ar    1  UNL1        0.0115
     11 C         -11.5726  -17.6688   22.1853 C.ar    1  UNL1        0.0574
     12 CL        -13.0618  -17.5152   22.2796 Cl      1  UNL1       -0.0823
     13 C         -10.9722  -18.4985   21.0894 C.ar    1  UNL1        0.0073
     14 C          -9.4831  -18.6521   20.9950 C.ar    1  UNL1       -0.0160
     15 C          -5.0156  -19.1128   20.7120 C.ar    1  UNL1        0.0733
     16 C          -4.2906  -18.6525   19.4822 C.ar    1  UNL1        0.0181
     17 C          -2.8015  -18.8061   19.3878 C.ar    1  UNL1        0.0220
     18 C          -2.0374  -19.4200   20.5233 C.ar    1  UNL1        0.0990
     19 N          -2.7624  -19.8803   21.7531 N.ar    1  UNL1       -0.2410
     20 C          -4.2515  -19.7267   21.8474 C.ar    1  UNL1        0.1137
@<TRIPOS>BOND
     1     1     2    1
     2     2     3    1
     3     2     4    1
     4     4     5    1
     5     5    15    1
     6    15    16   ar
     7    16    17   ar
     8    17    18   ar
     9    18    19   ar
    10    19    20   ar
    11     5     6   am
    12     6     7    2
    13     6     8    1
    14     8     9   ar
    15     9    10   ar
    16    10    11   ar
    17    11    12    1
    18    11    13   ar
    19    13    14   ar
    20    14     2    1
    21    20    15   ar
    22    14     8   ar
@<TRIPOS>MOLECULE
*****
 20 22 0 0 0
SMALL
GASTEIGER

@<TRIPOS>ATOM
      1 C          -9.2195  -16.3128   24.0397 C.3     1  UNL1        0.0061
      2 C          -8.1193  -17.0319   23.3167 C.3     1  UNL1        0.0377
      3 C          -7.3073  -16.0945   24.1604 C.3     1  UNL1        0.0061
      4 C          -6.7373  -17.4255   22.8867 C.3     1  UNL1        0.1025
      5 N          -6.5493  -18.5067   21.8642 N.am    1  UNL1       -0.2534
      6 C          -7.7433  -19.1944   21.2717 C.2     1  UNL1        0.2525
      7 O          -7.5553  -20.2757   20.2491 O.2     1  UNL1       -0.2696
      8 C          -9.1255  -18.8009   21.7016 C.ar    1  UNL1        0.0500
      9 C         -10.3196  -19.4886   21.1091 C.ar    1  UNL1        0.0051
     10 C         -11.7017  -19.0951   21.5390 C.ar    1  UNL1        0.0115
     11 C         -11.8897  -18.0139   22.5616 C.ar    1  UNL1        0.0574
     12 CL        -13.2719  -17.6203   22.9915 Cl      1  UNL1       -0.0823
     13 C         -10.6956  -17.3261   23.1541 C.ar    1  UNL1        0.0073
     14 C          -9.3135  -17.7197   22.7242 C.ar    1  UNL1       -0.0160
     15 C          -5.1671  -18.9003   21.4343 C.ar    1  UNL1        0.0733
     16 C          -4.8142  -18.9273   19.9766 C.ar    1  UNL1        0.0181
     17 C          -3.4321  -19.3208   19.5467 C.ar    1  UNL1        0.0220
     18 C          -2.4028  -19.6873   20.5745 C.ar    1  UNL1        0.0990
     19 N          -2.7557  -19.6602   22.0321 N.ar    1  UNL1       -0.2410
     20 C          -4.1378  -19.2667   22.4620 C.ar    1  UNL1        0.1137
@<TRIPOS>BOND
     1     1     2    1
     2     2     3    1
     3     2     4    1
     4     4     5    1
     5     5    15    1
     6    15    16   ar
     7    16    17   ar
     8    17    18   ar
     9    18    19   ar
    10    19    20   ar
    11     5     6   am
    12     6     7    2
    13     6     8    1
    14     8     9   ar
    15     9    10   ar
    16    10    11   ar
    17    11    12    1
    18    11    13   ar
    19    13    14   ar
    20    14     2    1
    21    20    15   ar
    22    14     8   ar
@<TRIPOS>MOLECULE
*****
 20 22 0 0 0
SMALL
GASTEIGER

@<TRIPOS>ATOM
      1 C          -5.5788  -20.1402   20.3029 C.3     1  UNL1        0.0061
      2 C          -6.7834  -19.4536   20.8753 C.3     1  UNL1        0.0377
      3 C          -7.4469  -20.3514   19.8735 C.3     1  UNL1        0.0061
      4 C          -8.2183  -19.0787   21.0998 C.3     1  UNL1        0.1025
      5 N          -8.5714  -18.0445   22.1273 N.am    1  UNL1       -0.2534
      6 C          -7.4896  -17.3852   22.9303 C.2     1  UNL1        0.2525
      7 O          -7.8427  -16.3510   23.9578 O.2     1  UNL1       -0.2696
      8 C          -6.0546  -17.7600   22.7058 C.ar    1  UNL1        0.0500
      9 C          -4.9727  -17.1006   23.5088 C.ar    1  UNL1        0.0051
     10 C          -3.5378  -17.4754   23.2843 C.ar    1  UNL1        0.0115
     11 C          -3.1847  -18.5096   22.2568 C.ar    1  UNL1        0.0574
     12 CL         -1.7497  -18.8844   22.0323 Cl      1  UNL1       -0.0823
     13 C          -4.2665  -19.1690   21.4538 C.ar    1  UNL1        0.0073
     14 C          -5.7015  -18.7942   21.6783 C.ar    1  UNL1       -0.0160
     15 C         -10.0064  -17.6697   22.3518 C.ar    1  UNL1        0.0733
     16 C         -10.8987  -18.5669   23.1572 C.ar    1  UNL1        0.0181
     17 C         -12.3337  -18.1921   23.3817 C.ar    1  UNL1        0.0220
     18 C         -12.8763  -16.9201   22.8007 C.ar    1  UNL1        0.0990
     19 N         -11.9840  -16.0229   21.9952 N.ar    1  UNL1       -0.2410
     20 C         -10.5490  -16.3977   21.7708 C.ar    1  UNL1        0.1137
@<TRIPOS>BOND
     1     1     2    1
     2     2     3    1
     3     2     4    1
     4     4     5    1
     5     5    15    1
     6    15    16   ar
     7    16    17   ar
     8    17    18   ar
     9    18    19   ar
    10    19    20   ar
    11     5     6   am
    12     6     7    2
    13     6     8    1
    14     8     9   ar
    15     9    10   ar
    16    10    11   ar
    17    11    12    1
    18    11    13   ar
    19    13    14   ar
    20    14     2    1
    21    20    15   ar
    22    14     8   ar
@<TRIPOS>MOLECULE
*****
 20 22 0 0 0
SMALL
GASTEIGER

@<TRIPOS>ATOM
      1 C         -11.2732  -18.3387   21.1448 C.3     1  UNL1        0.0061
      2 C         -10.2926  -17.7777   22.1316 C.3     1  UNL1        0.0377
      3 C         -11.5760  -17.2808   22.7284 C.3     1  UNL1        0.0061
      4 C          -9.7577  -17.0441   23.3256 C.3     1  UNL1        0.1025
      5 N          -8.2801  -17.0022   23.5801 N.am    1  UNL1       -0.2534
      6 C          -7.3373  -17.6939   22.6407 C.2     1  UNL1        0.2525
      7 O          -5.8596  -17.6520   22.8952 O.2     1  UNL1       -0.2696
      8 C          -7.8721  -18.4275   21.4466 C.ar    1  UNL1        0.0500
      9 C          -6.9293  -19.1192   20.5071 C.ar    1  UNL1        0.0051
     10 C          -7.4642  -19.8528   19.3131 C.ar    1  UNL1        0.0115
     11 C          -8.9419  -19.8947   19.0585 C.ar    1  UNL1        0.0574
     12 CL         -9.4767  -20.6283   17.8644 Cl      1  UNL1       -0.0823
     13 C          -9.8846  -19.2030   19.9980 C.ar    1  UNL1        0.0073
     14 C          -9.3498  -18.4694   21.1920 C.ar    1  UNL1       -0.0160
     15 C          -7.7452  -16.2685   24.7742 C.ar    1  UNL1        0.0733
     16 C          -8.4697  -16.3413   26.0856 C.ar    1  UNL1        0.0181
     17 C          -7.9349  -15.6076   27.2796 C.ar    1  UNL1        0.0220
     18 C          -6.6755  -14.8013   27.1622 C.ar    1  UNL1        0.0990
     19 N          -5.9510  -14.7286   25.8509 N.ar    1  UNL1       -0.2410
     20 C          -6.4858  -15.4622   24.6569 C.ar    1  UNL1        0.1137
@<TRIPOS>BOND
     1     1     2    1
     2     2     3    1
     3     2     4    1
     4     4     5    1
     5     5    15    1
     6    15    16   ar
     7    16    17   ar
     8    17    18   ar
     9    18    19   ar
    10    19    20   ar
    11     5     6   am
    12     6     7    2
    13     6     8    1
    14     8     9   ar
    15     9    10   ar
    16    10    11   ar
    17    11    12    1
    18    11    13   ar
    19    13    14   ar
    20    14     2    1
    21    20    15   ar
    22    14     8   ar
@<TRIPOS>MOLECULE
*****
 20 22 0 0 0
SMALL
GASTEIGER

@<TRIPOS>ATOM
      1 C         -11.8491    0.1733   17.3457 C.3     1  UNL1        0.0061
      2 C         -11.6259   -1.2828   17.6285 C.3     1  UNL1        0.0377
      3 C         -10.3981   -0.9832   16.8205 C.3     1  UNL1        0.0061
      4 C         -10.9764   -2.6348   17.6307 C.3     1  UNL1        0.1025
      5 N         -11.6321   -3.7808   18.3426 N.am    1  UNL1       -0.2534
      6 C         -12.9374   -3.5747   19.0524 C.2     1  UNL1        0.2525
      7 O         -13.5932   -4.7206   19.7643 O.2     1  UNL1       -0.2696
      8 C         -13.5870   -2.2226   19.0502 C.ar    1  UNL1        0.0500
      9 C         -14.8923   -2.0165   19.7599 C.ar    1  UNL1        0.0051
     10 C         -15.5418   -0.6644   19.7577 C.ar    1  UNL1        0.0115
     11 C         -14.8860    0.4815   19.0458 C.ar    1  UNL1        0.0574
     12 CL        -15.5356    1.8336   19.0436 Cl      1  UNL1       -0.0823
     13 C         -13.5808    0.2754   18.3361 C.ar    1  UNL1        0.0073
     14 C         -12.9313   -1.0766   18.3383 C.ar    1  UNL1       -0.0160
     15 C         -10.9826   -5.1329   18.3448 C.ar    1  UNL1        0.0733
     16 C          -9.8058   -5.3981   19.2362 C.ar    1  UNL1        0.0181
     17 C          -9.1562   -6.7502   19.2384 C.ar    1  UNL1        0.0220
     18 C          -9.6835   -7.8370   18.3491 C.ar    1  UNL1        0.0990
     19 N         -10.8603   -7.5717   17.4576 N.ar    1  UNL1       -0.2410
     20 C         -11.5098   -6.2197   17.4555 C.ar    1  UNL1        0.1137
@<TRIPOS>BOND
     1     1     2    1
     2     2     3    1
     3     2     4    1
     4     4     5    1
     5     5    15    1
     6    15    16   ar
     7    16    17   ar
     8    17    18   ar
     9    18    19   ar
    10    19    20   ar
    11     5     6   am
    12     6     7    2
    13     6     8    1
    14     8     9   ar
    15     9    10   ar
    16    10    11   ar
    17    11    12    1
    18    11    13   ar
    19    13    14   ar
    20    14     2    1
    21    20    15   ar
    22    14     8   ar
@<TRIPOS>MOLECULE
*****
 20 22 0 0 0
SMALL
GASTEIGER

@<TRIPOS>ATOM
      1 C         -13.5877   -6.8947   18.9670 C.3     1  UNL1        0.0061
      2 C         -13.8925   -5.4261   18.9808 C.3     1  UNL1        0.0377
      3 C         -15.2854   -5.9816   19.0179 C.3     1  UNL1        0.0061
      4 C         -14.6810   -4.1504   19.0074 C.3     1  UNL1        0.1025
      5 N         -13.9709   -2.8292   18.9922 N.am    1  UNL1       -0.2534
      6 C         -12.4722   -2.7837   18.9504 C.2     1  UNL1        0.2525
      7 O         -11.7620   -1.4626   18.9352 O.2     1  UNL1       -0.2696
      8 C         -11.6836   -4.0595   18.9237 C.ar    1  UNL1        0.0500
      9 C         -10.1849   -4.0140   18.8819 C.ar    1  UNL1        0.0051
     10 C          -9.3963   -5.2897   18.8552 C.ar    1  UNL1        0.0115
     11 C         -10.1065   -6.6109   18.8704 C.ar    1  UNL1        0.0574
     12 CL         -9.3179   -7.8866   18.8437 Cl      1  UNL1       -0.0823
     13 C         -11.6052   -6.6563   18.9123 C.ar    1  UNL1        0.0073
     14 C         -12.3937   -5.3806   18.9389 C.ar    1  UNL1       -0.0160
     15 C         -14.7595   -1.5535   19.0189 C.ar    1  UNL1        0.0733
     16 C         -15.6531   -1.2483   20.1843 C.ar    1  UNL1        0.0181
     17 C         -16.4417    0.0273   20.2109 C.ar    1  UNL1        0.0220
     18 C         -16.3366    0.9979   19.0721 C.ar    1  UNL1        0.0990
     19 N         -15.4430    0.6928   17.9067 N.ar    1  UNL1       -0.2410
     20 C         -14.6545   -0.5829   17.8800 C.ar    1  UNL1        0.1137
@<TRIPOS>BOND
     1     1     2    1
     2     2     3    1
     3     2     4    1
     4     4     5    1
     5     5    15    1
     6    15    16   ar
     7    16    17   ar
     8    17    18   ar
     9    18    19   ar
    10    19    20   ar
    11     5     6   am
    12     6     7    2
    13     6     8    1
    14     8     9   ar
    15     9    10   ar
    16    10    11   ar
    17    11    12    1
    18    11    13   ar
    19    13    14   ar
    20    14     2    1
    21    20    15   ar
    22    14     8   ar
@<TRIPOS>MOLECULE
*****
 20 22 0 0 0
SMALL
GASTEIGER

@<TRIPOS>ATOM
      1 C         -10.7803   -5.2454   18.6611 C.3     1  UNL1        0.0061
      2 C         -12.0299   -6.0714   18.7401 C.3     1  UNL1        0.0377
      3 C         -11.0047   -7.1603   18.6252 C.3     1  UNL1        0.0061
      4 C         -12.9234   -7.2756   18.7791 C.3     1  UNL1        0.1025
      5 N         -14.4082   -7.1040   18.9057 N.am    1  UNL1       -0.2534
      6 C         -14.9995   -5.7283   18.9932 C.2     1  UNL1        0.2525
      7 O         -16.4842   -5.5567   19.1198 O.2     1  UNL1       -0.2696
      8 C         -14.1059   -4.5240   18.9542 C.ar    1  UNL1        0.0500
      9 C         -14.6972   -3.1483   19.0417 C.ar    1  UNL1        0.0051
     10 C         -13.8037   -1.9441   19.0027 C.ar    1  UNL1        0.0115
     11 C         -12.3189   -2.1157   18.8761 C.ar    1  UNL1        0.0574
     12 CL        -11.4254   -0.9114   18.8371 Cl      1  UNL1       -0.0823
     13 C         -11.7276   -3.4914   18.7886 C.ar    1  UNL1        0.0073
     14 C         -12.6212   -4.6956   18.8276 C.ar    1  UNL1       -0.0160
     15 C         -15.3017   -8.3083   18.9447 C.ar    1  UNL1        0.0733
     16 C         -16.5757   -8.2716   19.7356 C.ar    1  UNL1        0.0181
     17 C         -17.4692   -9.4758   19.7746 C.ar    1  UNL1        0.0220
     18 C         -17.0886  -10.7167   19.0227 C.ar    1  UNL1        0.0990
     19 N         -15.8146  -10.7534   18.2318 N.ar    1  UNL1       -0.2410
     20 C         -14.9212   -9.5492   18.1928 C.ar    1  UNL1        0.1137
@<TRIPOS>BOND
     1     1     2    1
     2     2     3    1
     3     2     4    1
     4     4     5    1
     5     5    15    1
     6    15    16   ar
     7    16    17   ar
     8    17    18   ar
     9    18    19   ar
    10    19    20   ar
    11     5     6   am
    12     6     7    2
    13     6     8    1
    14     8     9   ar
    15     9    10   ar
    16    10    11   ar
    17    11    12    1
    18    11    13   ar
    19    13    14   ar
    20    14     2    1
    21    20    15   ar
    22    14     8   ar
@<TRIPOS>MOLECULE
*****
 20 22 0 0 0
SMALL
GASTEIGER

@<TRIPOS>ATOM
      1 C         -17.4774   -4.5065   19.6794 C.3     1  UNL1        0.0061
      2 C         -16.0603   -4.7345   19.2437 C.3     1  UNL1        0.0377
      3 C         -16.1031   -3.2353   19.2166 C.3     1  UNL1        0.0061
      4 C         -14.6581   -4.4419   18.7987 C.3     1  UNL1        0.1025
      5 N         -13.7052   -5.5693   18.5321 N.am    1  UNL1       -0.2534
      6 C         -14.1545   -6.9892   18.7106 C.2     1  UNL1        0.2525
      7 O         -13.2016   -8.1166   18.4440 O.2     1  UNL1       -0.2696
      8 C         -15.5568   -7.2818   19.1556 C.ar    1  UNL1        0.0500
      9 C         -16.0061   -8.7018   19.3341 C.ar    1  UNL1        0.0051
     10 C         -17.4083   -8.9943   19.7792 C.ar    1  UNL1        0.0115
     11 C         -18.3612   -7.8670   20.0458 C.ar    1  UNL1        0.0574
     12 CL        -19.7635   -8.1596   20.4908 Cl      1  UNL1       -0.0823
     13 C         -17.9119   -6.4471   19.8673 C.ar    1  UNL1        0.0073
     14 C         -16.5097   -6.1545   19.4222 C.ar    1  UNL1       -0.0160
     15 C         -12.3029   -5.2767   18.0870 C.ar    1  UNL1        0.0733
     16 C         -11.2408   -4.9765   19.1028 C.ar    1  UNL1        0.0181
     17 C          -9.8386   -4.6838   18.6577 C.ar    1  UNL1        0.0220
     18 C          -9.4985   -4.6914   17.1968 C.ar    1  UNL1        0.0990
     19 N         -10.5605   -4.9916   16.1810 N.ar    1  UNL1       -0.2410
     20 C         -11.9627   -5.2842   16.6261 C.ar    1  UNL1        0.1137
@<TRIPOS>BOND
     1     1     2    1
     2     2     3    1
     3     2     4    1
     4     4     5    1
     5     5    15    1
     6    15    16   ar
     7    16    17   ar
     8    17    18   ar
     9    18    19   ar
    10    19    20   ar
    11     5     6   am
    12     6     7    2
    13     6     8    1
    14     8     9   ar
    15     9    10   ar
    16    10    11   ar
    17    11    12    1
    18    11    13   ar
    19    13    14   ar
    20    14     2    1
    21    20    15   ar
    22    14     8   ar
@<TRIPOS>MOLECULE
*****
 20 22 0 0 0
SMALL
GASTEIGER

@<TRIPOS>ATOM
      1 C         -12.3893  -17.2637   20.9247 C.3     1  UNL1        0.0061
      2 C         -11.0009  -17.8263   21.0013 C.3     1  UNL1        0.0377
      3 C         -10.9619  -17.2224   19.6287 C.3     1  UNL1        0.0061
      4 C          -9.5989  -18.1791   20.6013 C.3     1  UNL1        0.1025
      5 N          -8.7182  -18.9404   21.5472 N.am    1  UNL1       -0.2534
      6 C          -9.2393  -19.3489   22.8931 C.2     1  UNL1        0.2525
      7 O          -8.3586  -20.1102   23.8389 O.2     1  UNL1       -0.2696
      8 C         -10.6413  -18.9961   23.2932 C.ar    1  UNL1        0.0500
      9 C         -11.1625  -19.4045   24.6390 C.ar    1  UNL1        0.0051
     10 C         -12.5644  -19.0517   25.0391 C.ar    1  UNL1        0.0115
     11 C         -13.4452  -18.2904   24.0932 C.ar    1  UNL1        0.0574
     12 CL        -14.8472  -17.9376   24.4933 Cl      1  UNL1       -0.0823
     13 C         -12.9240  -17.8820   22.7473 C.ar    1  UNL1        0.0073
     14 C         -11.5221  -18.2348   22.3473 C.ar    1  UNL1       -0.0160
     15 C          -7.3162  -19.2932   21.1471 C.ar    1  UNL1        0.0733
     16 C          -7.0654  -20.4702   20.2517 C.ar    1  UNL1        0.0181
     17 C          -5.6635  -20.8229   19.8516 C.ar    1  UNL1        0.0220
     18 C          -4.5123  -19.9987   20.3470 C.ar    1  UNL1        0.0990
     19 N          -4.7630  -18.8218   21.2424 N.ar    1  UNL1       -0.2410
     20 C          -6.1650  -18.4690   21.6425 C.ar    1  UNL1        0.1137
@<TRIPOS>BOND
     1     1     2    1
     2     2     3    1
     3     2     4    1
     4     4     5    1
     5     5    15    1
     6    15    16   ar
     7    16    17   ar
     8    17    18   ar
     9    18    19   ar
    10    19    20   ar
    11     5     6   am
    12     6     7    2
    13     6     8    1
    14     8     9   ar
    15     9    10   ar
    16    10    11   ar
    17    11    12    1
    18    11    13   ar
    19    13    14   ar
    20    14     2    1
    21    20    15   ar
    22    14     8   ar
