@<TRIPOS>MOLECULE
*****
 34 38 0 0 0
SMALL
GASTEIGER

@<TRIPOS>ATOM
      1 N          -8.9305  -18.1823   22.7538 N.ar    1  UNL1       -0.2754
      2 C         -10.2485  -18.7025   22.2617 C.ar    1  UNL1        0.1515
      3 N          -9.9993  -19.4802   21.0035 N.ar    1  UNL1       -0.2248
      4 C          -8.5272  -19.4408   20.7181 C.ar    1  UNL1        0.1173
      5 C          -7.7029  -20.0316   19.6129 C.ar    1  UNL1        0.0238
      6 C          -6.2181  -19.8203   19.5895 C.ar    1  UNL1        0.0208
      7 C          -5.5576  -19.0181   20.6713 C.ar    1  UNL1        0.0830
      8 N          -6.3818  -18.4273   21.7764 N.ar    1  UNL1       -0.2264
      9 C          -7.8667  -18.6386   21.7998 C.ar    1  UNL1        0.1665
     10 C         -11.5817  -18.4834   22.9132 C.ar    1  UNL1        0.0657
     11 C         -11.8118  -18.9410   24.3230 C.ar    1  UNL1        0.0074
     12 C         -13.1450  -18.7219   24.9746 C.ar    1  UNL1        0.0209
     13 C         -14.2481  -18.0451   24.2164 C.ar    1  UNL1        0.1003
     14 N         -14.0181  -17.5874   22.8066 N.ar    1  UNL1       -0.2295
     15 C         -12.6849  -17.8066   22.1550 C.ar    1  UNL1        0.1282
     16 N         -12.4549  -17.3489   20.7452 N.pl3   1  UNL1       -0.3425
     17 H         -13.1790  -16.9046   20.2475 H       1  UNL1        0.1437
     18 H         -11.5799  -17.4927   20.3175 H       1  UNL1        0.1437
     19 C          -8.2817  -15.6904   26.4443 C.ar    1  UNL1       -0.0065
     20 C          -8.8209  -17.0848   26.5661 C.ar    1  UNL1       -0.0014
     21 C          -9.0371  -17.9154   25.3359 C.ar    1  UNL1        0.0173
     22 C          -8.7142  -17.3517   23.9840 C.ar    1  UNL1        0.0667
     23 C          -8.1750  -15.9572   23.8621 C.ar    1  UNL1        0.0173
     24 C          -7.9588  -15.1266   25.0923 C.ar    1  UNL1       -0.0014
     25 N          -6.7189  -14.2567   27.9450 N.3     1  UNL1       -0.3175
     26 C          -8.0654  -14.8597   27.6744 C.3     1  UNL1        0.0922
     27 H          -6.7520  -13.7283   28.8169 H       1  UNL1        0.1192
     28 H          -6.4656  -13.6328   27.1788 H       1  UNL1        0.1192
     29 C          -4.0727  -18.8068   20.6478 C.ar    1  UNL1        0.0177
     30 C          -3.3745  -18.5329   19.3488 C.ar    1  UNL1        0.0015
     31 C          -1.8896  -18.3216   19.3254 C.ar    1  UNL1        0.0000
     32 C          -1.1029  -18.3842   20.6010 C.ar    1  UNL1        0.0000
     33 C          -1.8012  -18.6581   21.9001 C.ar    1  UNL1        0.0000
     34 C          -3.2860  -18.8694   21.9234 C.ar    1  UNL1        0.0015
@<TRIPOS>BOND
     1    25    26    1
     2    26    19    1
     3    19    20   ar
     4    20    21   ar
     5    21    22   ar
     6    22     1    1
     7     1     2   ar
     8     2    10    1
     9    10    11   ar
    10    11    12   ar
    11    12    13   ar
    12    13    14   ar
    13    14    15   ar
    14    15    16    1
    15     2     3   ar
    16     3     4   ar
    17     4     5   ar
    18     5     6   ar
    19     6     7   ar
    20     7    29    1
    21    29    30   ar
    22    30    31   ar
    23    31    32   ar
    24    32    33   ar
    25    33    34   ar
    26     7     8   ar
    27     8     9   ar
    28    22    23   ar
    29    23    24   ar
    30    24    19   ar
    31     9     1   ar
    32    15    10   ar
    33     9     4   ar
    34    34    29   ar
    35    25    27    1
    36    25    28    1
    37    16    17    1
    38    16    18    1
@<TRIPOS>MOLECULE
*****
 34 38 0 0 0
SMALL
GASTEIGER

@<TRIPOS>ATOM
      1 N          -8.1962  -17.7994   22.4501 N.ar    1  UNL1       -0.2754
      2 C          -9.0803  -17.2923   23.5506 C.ar    1  UNL1        0.1515
      3 N          -8.2141  -16.5935   24.5562 N.ar    1  UNL1       -0.2248
      4 C          -6.7946  -16.6688   24.0772 C.ar    1  UNL1        0.1173
      5 C          -5.5107  -16.1549   24.6581 C.ar    1  UNL1        0.0238
      6 C          -4.2157  -16.3865   23.9374 C.ar    1  UNL1        0.0208
      7 C          -4.2047  -17.1318   22.6358 C.ar    1  UNL1        0.0830
      8 N          -5.4886  -17.6456   22.0548 N.ar    1  UNL1       -0.2264
      9 C          -6.7835  -17.4141   22.7755 C.ar    1  UNL1        0.1665
     10 C         -10.5692  -17.4553   23.6313 C.ar    1  UNL1        0.0657
     11 C         -11.4660  -16.5657   22.8223 C.ar    1  UNL1        0.0074
     12 C         -12.9550  -16.7287   22.9030 C.ar    1  UNL1        0.0209
     13 C         -13.5471  -17.7812   23.7927 C.ar    1  UNL1        0.1003
     14 N         -12.6503  -18.6708   24.6016 N.ar    1  UNL1       -0.2295
     15 C         -11.1614  -18.5078   24.5209 C.ar    1  UNL1        0.1282
     16 N         -10.2646  -19.3974   25.3299 N.pl3   1  UNL1       -0.3425
     17 H         -10.6532  -20.0883   25.9138 H       1  UNL1        0.1437
     18 H          -9.2873  -19.2905   25.2769 H       1  UNL1        0.1437
     19 C          -9.5448  -20.0772   18.8109 C.ar    1  UNL1       -0.0065
     20 C         -10.5468  -19.3368   19.6463 C.ar    1  UNL1       -0.0014
     21 C         -10.0972  -18.5776   20.8593 C.ar    1  UNL1        0.0173
     22 C          -8.6458  -18.5587   21.2370 C.ar    1  UNL1        0.0667
     23 C          -7.6437  -19.2991   20.4016 C.ar    1  UNL1        0.0173
     24 C          -8.0933  -20.0583   19.1886 C.ar    1  UNL1       -0.0014
     25 N          -8.9952  -21.5928   16.7735 N.3     1  UNL1       -0.3175
     26 C          -9.9944  -20.8365   17.5979 C.3     1  UNL1        0.0922
     27 H          -9.4714  -22.0463   15.9938 H       1  UNL1        0.1192
     28 H          -8.5420  -22.2996   17.3526 H       1  UNL1        0.1192
     29 C          -2.9097  -17.3633   21.9150 C.ar    1  UNL1        0.0177
     30 C          -2.0278  -16.2014   21.5654 C.ar    1  UNL1        0.0015
     31 C          -0.7328  -16.4330   20.8447 C.ar    1  UNL1        0.0000
     32 C          -0.3197  -17.8264   20.4736 C.ar    1  UNL1        0.0000
     33 C          -1.2016  -18.9883   20.8233 C.ar    1  UNL1        0.0000
     34 C          -2.4966  -18.7568   21.5440 C.ar    1  UNL1        0.0015
@<TRIPOS>BOND
     1    25    26    1
     2    26    19    1
     3    19    20   ar
     4    20    21   ar
     5    21    22   ar
     6    22     1    1
     7     1     2   ar
     8     2    10    1
     9    10    11   ar
    10    11    12   ar
    11    12    13   ar
    12    13    14   ar
    13    14    15   ar
    14    15    16    1
    15     2     3   ar
    16     3     4   ar
    17     4     5   ar
    18     5     6   ar
    19     6     7   ar
    20     7    29    1
    21    29    30   ar
    22    30    31   ar
    23    31    32   ar
    24    32    33   ar
    25    33    34   ar
    26     7     8   ar
    27     8     9   ar
    28    22    23   ar
    29    23    24   ar
    30    24    19   ar
    31     9     1   ar
    32    15    10   ar
    33     9     4   ar
    34    34    29   ar
    35    25    27    1
    36    25    28    1
    37    16    17    1
    38    16    18    1
@<TRIPOS>MOLECULE
*****
 34 38 0 0 0
SMALL
GASTEIGER

@<TRIPOS>ATOM
      1 N         -16.3631   -4.2642   19.3908 N.ar    1  UNL1       -0.2754
      2 C         -17.3891   -5.3564   19.3243 C.ar    1  UNL1        0.1515
      3 N         -18.7291   -4.7524   19.6235 N.ar    1  UNL1       -0.2248
      4 C         -18.5313   -3.2869   19.8750 C.ar    1  UNL1        0.1173
      5 C         -19.4938   -2.1883   20.2163 C.ar    1  UNL1        0.0238
      6 C         -18.9939   -0.7879   20.4138 C.ar    1  UNL1        0.0208
      7 C         -17.5317   -0.4862   20.2699 C.ar    1  UNL1        0.0830
      8 N         -16.5692   -1.5848   19.9286 N.ar    1  UNL1       -0.2264
      9 C         -17.0690   -2.9852   19.7311 C.ar    1  UNL1        0.1665
     10 C         -17.1220   -6.7993   19.0132 C.ar    1  UNL1        0.0657
     11 C         -17.1786   -7.8251   20.1061 C.ar    1  UNL1        0.0074
     12 C         -16.9115   -9.2680   19.7950 C.ar    1  UNL1        0.0209
     13 C         -16.5878   -9.6851   18.3910 C.ar    1  UNL1        0.1003
     14 N         -16.5311   -8.6592   17.2981 N.ar    1  UNL1       -0.2295
     15 C         -16.7983   -7.2164   17.6092 C.ar    1  UNL1        0.1282
     16 N         -16.7416   -6.1905   16.5162 N.pl3   1  UNL1       -0.3425
     17 H         -16.5291   -6.4643   15.5947 H       1  UNL1        0.1437
     18 H         -16.9169   -5.2435   16.7204 H       1  UNL1        0.1437
     19 C         -11.9433   -4.7408   18.6918 C.ar    1  UNL1       -0.0065
     20 C         -12.6323   -5.5736   19.7319 C.ar    1  UNL1       -0.0014
     21 C         -14.1055   -5.4147   19.9648 C.ar    1  UNL1        0.0173
     22 C         -14.8899   -4.4231   19.1578 C.ar    1  UNL1        0.0667
     23 C         -14.2009   -3.5902   18.1177 C.ar    1  UNL1        0.0173
     24 C         -12.7276   -3.7491   17.8847 C.ar    1  UNL1       -0.0014
     25 N          -9.4895   -4.2058   19.3573 N.3     1  UNL1       -0.3175
     26 C         -10.4700   -4.8997   18.4589 C.3     1  UNL1        0.0922
     27 H          -8.5396   -4.4230   19.0559 H       1  UNL1        0.1192
     28 H          -9.6231   -4.5247   20.3169 H       1  UNL1        0.1192
     29 C         -17.0319    0.9143   20.4674 C.ar    1  UNL1        0.0177
     30 C         -16.0921    1.5230   19.4693 C.ar    1  UNL1        0.0015
     31 C         -15.5923    2.9235   19.6668 C.ar    1  UNL1        0.0000
     32 C         -16.0323    3.7152   20.8624 C.ar    1  UNL1        0.0000
     33 C         -16.9722    3.1065   21.8606 C.ar    1  UNL1        0.0000
     34 C         -17.4719    1.7061   21.6630 C.ar    1  UNL1        0.0015
@<TRIPOS>BOND
     1    25    26    1
     2    26    19    1
     3    19    20   ar
     4    20    21   ar
     5    21    22   ar
     6    22     1    1
     7     1     2   ar
     8     2    10    1
     9    10    11   ar
    10    11    12   ar
    11    12    13   ar
    12    13    14   ar
    13    14    15   ar
    14    15    16    1
    15     2     3   ar
    16     3     4   ar
    17     4     5   ar
    18     5     6   ar
    19     6     7   ar
    20     7    29    1
    21    29    30   ar
    22    30    31   ar
    23    31    32   ar
    24    32    33   ar
    25    33    34   ar
    26     7     8   ar
    27     8     9   ar
    28    22    23   ar
    29    23    24   ar
    30    24    19   ar
    31     9     1   ar
    32    15    10   ar
    33     9     4   ar
    34    34    29   ar
    35    25    27    1
    36    25    28    1
    37    16    17    1
    38    16    18    1
@<TRIPOS>MOLECULE
*****
 34 38 0 0 0
SMALL
GASTEIGER

@<TRIPOS>ATOM
      1 N         -16.6311   -5.4675   19.0921 N.ar    1  UNL1       -0.2754
      2 C         -17.7508   -6.4545   19.2406 C.ar    1  UNL1        0.1515
      3 N         -18.9851   -5.6991   19.6354 N.ar    1  UNL1       -0.2248
      4 C         -18.6283   -4.2453   19.7309 C.ar    1  UNL1        0.1173
      5 C         -19.4401   -3.0334   20.0803 C.ar    1  UNL1        0.0238
      6 C         -18.7970   -1.6783   20.0939 C.ar    1  UNL1        0.0208
      7 C         -17.3421   -1.5352   19.7581 C.ar    1  UNL1        0.0830
      8 N         -16.5303   -2.7471   19.4088 N.ar    1  UNL1       -0.2264
      9 C         -17.1733   -4.1021   19.3952 C.ar    1  UNL1        0.1665
     10 C         -17.6534   -7.9365   19.0310 C.ar    1  UNL1        0.0657
     11 C         -16.7952   -8.7675   19.9383 C.ar    1  UNL1        0.0074
     12 C         -16.6978  -10.2495   19.7287 C.ar    1  UNL1        0.0209
     13 C         -17.4585  -10.9007   18.6119 C.ar    1  UNL1        0.1003
     14 N         -18.3166  -10.0698   17.7047 N.ar    1  UNL1       -0.2295
     15 C         -18.4141   -8.5877   17.9142 C.ar    1  UNL1        0.1282
     16 N         -19.2723   -7.7568   17.0069 N.pl3   1  UNL1       -0.3425
     17 H         -19.7716   -8.1842   16.2739 H       1  UNL1        0.1437
     18 H         -19.3363   -6.7841   17.1445 H       1  UNL1        0.1437
     19 C         -12.3895   -6.4330   17.9400 C.ar    1  UNL1       -0.0065
     20 C         -13.4766   -6.4806   16.9075 C.ar    1  UNL1       -0.0014
     21 C         -14.8904   -6.1588   17.2916 C.ar    1  UNL1        0.0173
     22 C         -15.2172   -5.7893   18.7081 C.ar    1  UNL1        0.0667
     23 C         -14.1302   -5.7417   19.7406 C.ar    1  UNL1        0.0173
     24 C         -12.7163   -6.0635   19.3566 C.ar    1  UNL1       -0.0014
     25 N         -10.3506   -8.0418   18.0063 N.3     1  UNL1       -0.3175
     26 C         -10.9757   -6.7548   17.5559 C.3     1  UNL1        0.0922
     27 H          -9.3936   -8.0954   17.6573 H       1  UNL1        0.1192
     28 H         -10.8898   -8.8274   17.6421 H       1  UNL1        0.1192
     29 C         -16.6991   -0.1800   19.7717 C.ar    1  UNL1        0.0177
     30 C         -17.2977    0.9260   20.5892 C.ar    1  UNL1        0.0015
     31 C         -16.6547    2.2812   20.6028 C.ar    1  UNL1        0.0000
     32 C         -15.4130    2.5302   19.7989 C.ar    1  UNL1        0.0000
     33 C         -14.8143    1.4241   18.9815 C.ar    1  UNL1        0.0000
     34 C         -15.4574    0.0690   18.9679 C.ar    1  UNL1        0.0015
@<TRIPOS>BOND
     1    25    26    1
     2    26    19    1
     3    19    20   ar
     4    20    21   ar
     5    21    22   ar
     6    22     1    1
     7     1     2   ar
     8     2    10    1
     9    10    11   ar
    10    11    12   ar
    11    12    13   ar
    12    13    14   ar
    13    14    15   ar
    14    15    16    1
    15     2     3   ar
    16     3     4   ar
    17     4     5   ar
    18     5     6   ar
    19     6     7   ar
    20     7    29    1
    21    29    30   ar
    22    30    31   ar
    23    31    32   ar
    24    32    33   ar
    25    33    34   ar
    26     7     8   ar
    27     8     9   ar
    28    22    23   ar
    29    23    24   ar
    30    24    19   ar
    31     9     1   ar
    32    15    10   ar
    33     9     4   ar
    34    34    29   ar
    35    25    27    1
    36    25    28    1
    37    16    17    1
    38    16    18    1
@<TRIPOS>MOLECULE
*****
 34 38 0 0 0
SMALL
GASTEIGER

@<TRIPOS>ATOM
      1 N          -0.6445    3.1484   25.4792 N.ar    1  UNL1       -0.2754
      2 C          -1.6452    4.2388   25.2348 C.ar    1  UNL1        0.1515
      3 N          -1.8583    4.3489   23.7541 N.ar    1  UNL1       -0.2248
      4 C          -0.9895    3.3265   23.0834 C.ar    1  UNL1        0.1173
      5 C          -0.7845    2.9753   21.6396 C.ar    1  UNL1        0.0238
      6 C           0.1706    1.8821   21.2620 C.ar    1  UNL1        0.0208
      7 C           0.9208    1.1402   22.3281 C.ar    1  UNL1        0.0830
      8 N           0.7159    1.4914   23.7719 N.ar    1  UNL1       -0.2264
      9 C          -0.2393    2.5845   24.1496 C.ar    1  UNL1        0.1665
     10 C          -2.3150    5.0727   26.2864 C.ar    1  UNL1        0.0657
     11 C          -1.5256    6.0965   27.0471 C.ar    1  UNL1        0.0074
     12 C          -2.1954    6.9304   28.0988 C.ar    1  UNL1        0.0209
     13 C          -3.6546    6.7406   28.3896 C.ar    1  UNL1        0.1003
     14 N          -4.4440    5.7168   27.6289 N.ar    1  UNL1       -0.2295
     15 C          -3.7742    4.8829   26.5773 C.ar    1  UNL1        0.1282
     16 N          -4.5636    3.8591   25.8165 N.pl3   1  UNL1       -0.3425
     17 H          -5.5214    3.7345   26.0074 H       1  UNL1        0.1437
     18 H          -4.1240    3.3118   25.1263 H       1  UNL1        0.1437
     19 C           0.8749    1.8045   29.4961 C.ar    1  UNL1       -0.0065
     20 C           1.4813    3.0023   28.8272 C.ar    1  UNL1       -0.0014
     21 C           0.9748    3.4503   27.4883 C.ar    1  UNL1        0.0173
     22 C          -0.1380    2.7004   26.8181 C.ar    1  UNL1        0.0667
     23 C          -0.7445    1.5025   27.4870 C.ar    1  UNL1        0.0173
     24 C          -0.2380    1.0546   28.8260 C.ar    1  UNL1       -0.0014
     25 N           0.6398    1.7354   32.0826 N.3     1  UNL1       -0.3175
     26 C           1.3814    1.3565   30.8350 C.3     1  UNL1        0.0922
     27 H           1.1212    1.3495   32.8948 H       1  UNL1        0.1192
     28 H          -0.3088    1.3628   32.0407 H       1  UNL1        0.1192
     29 C           1.8760    0.0470   21.9505 C.ar    1  UNL1        0.0177
     30 C           2.8187   -0.5122   22.9744 C.ar    1  UNL1        0.0015
     31 C           3.7739   -1.6054   22.5968 C.ar    1  UNL1        0.0000
     32 C           3.7864   -2.1394   21.1951 C.ar    1  UNL1        0.0000
     33 C           2.8436   -1.5801   20.1711 C.ar    1  UNL1        0.0000
     34 C           1.8885   -0.4870   20.5488 C.ar    1  UNL1        0.0015
@<TRIPOS>BOND
     1    25    26    1
     2    26    19    1
     3    19    20   ar
     4    20    21   ar
     5    21    22   ar
     6    22     1    1
     7     1     2   ar
     8     2    10    1
     9    10    11   ar
    10    11    12   ar
    11    12    13   ar
    12    13    14   ar
    13    14    15   ar
    14    15    16    1
    15     2     3   ar
    16     3     4   ar
    17     4     5   ar
    18     5     6   ar
    19     6     7   ar
    20     7    29    1
    21    29    30   ar
    22    30    31   ar
    23    31    32   ar
    24    32    33   ar
    25    33    34   ar
    26     7     8   ar
    27     8     9   ar
    28    22    23   ar
    29    23    24   ar
    30    24    19   ar
    31     9     1   ar
    32    15    10   ar
    33     9     4   ar
    34    34    29   ar
    35    25    27    1
    36    25    28    1
    37    16    17    1
    38    16    18    1
@<TRIPOS>MOLECULE
*****
 34 38 0 0 0
SMALL
GASTEIGER

@<TRIPOS>ATOM
      1 N           1.2293    1.7521   21.8735 N.ar    1  UNL1       -0.2754
      2 C           1.8417    1.8710   23.2376 C.ar    1  UNL1        0.1515
      3 N           0.8682    2.5929   24.1214 N.ar    1  UNL1       -0.2248
      4 C          -0.3459    2.9201   23.3036 C.ar    1  UNL1        0.1173
      5 C          -1.6258    3.6241   23.6444 C.ar    1  UNL1        0.0238
      6 C          -2.6825    3.8085   22.5960 C.ar    1  UNL1        0.0208
      7 C          -2.4594    3.2889   21.2067 C.ar    1  UNL1        0.0830
      8 N          -1.1795    2.5849   20.8658 N.ar    1  UNL1       -0.2264
      9 C          -0.1228    2.4005   21.9143 C.ar    1  UNL1        0.1665
     10 C           3.1908    1.3581   23.6462 C.ar    1  UNL1        0.0657
     11 C           4.4104    1.7515   22.8665 C.ar    1  UNL1        0.0074
     12 C           5.7594    1.2386   23.2751 C.ar    1  UNL1        0.0209
     13 C           5.8890    0.3323   24.4632 C.ar    1  UNL1        0.1003
     14 N           4.6694   -0.0611   25.2429 N.ar    1  UNL1       -0.2295
     15 C           3.3203    0.4518   24.8343 C.ar    1  UNL1        0.1282
     16 N           2.1007    0.0583   25.6140 N.pl3   1  UNL1       -0.3425
     17 H           2.1857   -0.5365   26.3938 H       1  UNL1        0.1437
     18 H           1.2152    0.3950   25.3459 H       1  UNL1        0.1437
     19 C           3.1166   -0.2060   18.2883 C.ar    1  UNL1       -0.0065
     20 C           2.9532    1.2845   18.3296 C.ar    1  UNL1       -0.0014
     21 C           2.3241    1.9372   19.5247 C.ar    1  UNL1        0.0173
     22 C           1.8584    1.0995   20.6784 C.ar    1  UNL1        0.0667
     23 C           2.0218   -0.3911   20.6371 C.ar    1  UNL1        0.0173
     24 C           2.6509   -1.0438   19.4420 C.ar    1  UNL1       -0.0014
     25 N           4.5801   -2.0933   17.2653 N.3     1  UNL1       -0.3175
     26 C           3.7457   -0.8587   17.0932 C.3     1  UNL1        0.0922
     27 H           4.9261   -2.3993   16.3559 H       1  UNL1        0.1192
     28 H           4.0122   -2.8325   17.6793 H       1  UNL1        0.1192
     29 C          -3.5162    3.4733   20.1582 C.ar    1  UNL1        0.0177
     30 C          -4.9600    3.2575   20.5026 C.ar    1  UNL1        0.0015
     31 C          -6.0168    3.4420   19.4541 C.ar    1  UNL1        0.0000
     32 C          -5.6297    3.8421   18.0612 C.ar    1  UNL1        0.0000
     33 C          -4.1857    4.0578   17.7169 C.ar    1  UNL1        0.0000
     34 C          -3.1290    3.8734   18.7653 C.ar    1  UNL1        0.0015
@<TRIPOS>BOND
     1    25    26    1
     2    26    19    1
     3    19    20   ar
     4    20    21   ar
     5    21    22   ar
     6    22     1    1
     7     1     2   ar
     8     2    10    1
     9    10    11   ar
    10    11    12   ar
    11    12    13   ar
    12    13    14   ar
    13    14    15   ar
    14    15    16    1
    15     2     3   ar
    16     3     4   ar
    17     4     5   ar
    18     5     6   ar
    19     6     7   ar
    20     7    29    1
    21    29    30   ar
    22    30    31   ar
    23    31    32   ar
    24    32    33   ar
    25    33    34   ar
    26     7     8   ar
    27     8     9   ar
    28    22    23   ar
    29    23    24   ar
    30    24    19   ar
    31     9     1   ar
    32    15    10   ar
    33     9     4   ar
    34    34    29   ar
    35    25    27    1
    36    25    28    1
    37    16    17    1
    38    16    18    1
@<TRIPOS>MOLECULE
*****
 34 38 0 0 0
SMALL
GASTEIGER

@<TRIPOS>ATOM
      1 N           1.0762    1.7783   20.3584 N.ar    1  UNL1       -0.2754
      2 C           1.5627    1.9431   18.9491 C.ar    1  UNL1        0.1515
      3 N           0.5524    2.7633   18.2030 N.ar    1  UNL1       -0.2248
      4 C          -0.5584    3.1054   19.1512 C.ar    1  UNL1        0.1173
      5 C          -1.8228    3.8926   18.9737 C.ar    1  UNL1        0.0238
      6 C          -2.7635    4.0710   20.1283 C.ar    1  UNL1        0.0208
      7 C          -2.4398    3.4623   21.4604 C.ar    1  UNL1        0.0830
      8 N          -1.1754    2.6751   21.6379 N.ar    1  UNL1       -0.2264
      9 C          -0.2347    2.4966   20.4833 C.ar    1  UNL1        0.1665
     10 C           2.8358    1.3856   18.3849 C.ar    1  UNL1        0.0657
     11 C           2.8493    0.0150   17.7756 C.ar    1  UNL1        0.0074
     12 C           4.1224   -0.5425   17.2114 C.ar    1  UNL1        0.0209
     13 C           5.3821    0.2705   17.2566 C.ar    1  UNL1        0.1003
     14 N           5.3686    1.6411   17.8659 N.ar    1  UNL1       -0.2295
     15 C           4.0955    2.1986   18.4301 C.ar    1  UNL1        0.1282
     16 N           4.0821    3.5693   19.0394 N.pl3   1  UNL1       -0.3425
     17 H           4.9089    4.1029   19.0690 H       1  UNL1        0.1437
     18 H           3.2465    3.9352   19.4097 H       1  UNL1        0.1437
     19 C           3.1800   -0.4754   23.6364 C.ar    1  UNL1       -0.0065
     20 C           2.9644   -1.1223   22.3004 C.ar    1  UNL1       -0.0014
     21 C           2.2631   -0.3711   21.2077 C.ar    1  UNL1        0.0173
     22 C           1.7775    1.0270   21.4510 C.ar    1  UNL1        0.0667
     23 C           1.9931    1.6740   22.7871 C.ar    1  UNL1        0.0173
     24 C           2.6944    0.9228   23.8797 C.ar    1  UNL1       -0.0014
     25 N           3.4222   -1.0859   26.1500 N.3     1  UNL1       -0.3175
     26 C           3.8813   -1.2267   24.7290 C.3     1  UNL1        0.0922
     27 H           4.0072   -1.6623   26.7550 H       1  UNL1        0.1192
     28 H           2.4516   -1.3903   26.2255 H       1  UNL1        0.1192
     29 C          -3.3805    3.6407   22.6151 C.ar    1  UNL1        0.0177
     30 C          -2.8520    3.6489   24.0188 C.ar    1  UNL1        0.0015
     31 C          -3.7927    3.8274   25.1735 C.ar    1  UNL1        0.0000
     32 C          -5.2621    3.9977   24.9243 C.ar    1  UNL1        0.0000
     33 C          -5.7906    3.9895   23.5205 C.ar    1  UNL1        0.0000
     34 C          -4.8499    3.8110   22.3660 C.ar    1  UNL1        0.0015
@<TRIPOS>BOND
     1    25    26    1
     2    26    19    1
     3    19    20   ar
     4    20    21   ar
     5    21    22   ar
     6    22     1    1
     7     1     2   ar
     8     2    10    1
     9    10    11   ar
    10    11    12   ar
    11    12    13   ar
    12    13    14   ar
    13    14    15   ar
    14    15    16    1
    15     2     3   ar
    16     3     4   ar
    17     4     5   ar
    18     5     6   ar
    19     6     7   ar
    20     7    29    1
    21    29    30   ar
    22    30    31   ar
    23    31    32   ar
    24    32    33   ar
    25    33    34   ar
    26     7     8   ar
    27     8     9   ar
    28    22    23   ar
    29    23    24   ar
    30    24    19   ar
    31     9     1   ar
    32    15    10   ar
    33     9     4   ar
    34    34    29   ar
    35    25    27    1
    36    25    28    1
    37    16    17    1
    38    16    18    1
@<TRIPOS>MOLECULE
*****
 34 38 0 0 0
SMALL
GASTEIGER

@<TRIPOS>ATOM
      1 N           5.1782   -1.9946   25.6469 N.ar    1  UNL1       -0.2754
      2 C           6.1345   -3.0443   26.1302 C.ar    1  UNL1        0.1515
      3 N           6.5186   -3.8967   24.9572 N.ar    1  UNL1       -0.2248
      4 C           5.7996   -3.3739   23.7490 C.ar    1  UNL1        0.1173
      5 C           5.7923   -3.8164   22.3158 C.ar    1  UNL1        0.0238
      6 C           4.9565   -3.0833   21.3088 C.ar    1  UNL1        0.0208
      7 C           4.1281   -1.9078   21.7351 C.ar    1  UNL1        0.0830
      8 N           4.1354   -1.4653   23.1683 N.ar    1  UNL1       -0.2264
      9 C           4.9712   -2.1983   24.1752 C.ar    1  UNL1        0.1665
     10 C           6.6213   -3.2121   27.5390 C.ar    1  UNL1        0.0657
     11 C           7.3277   -2.0824   28.2280 C.ar    1  UNL1        0.0074
     12 C           7.8145   -2.2501   29.6369 C.ar    1  UNL1        0.0209
     13 C           7.5949   -3.5476   30.3567 C.ar    1  UNL1        0.1003
     14 N           6.8885   -4.6773   29.6678 N.ar    1  UNL1       -0.2295
     15 C           6.4017   -4.5096   28.2589 C.ar    1  UNL1        0.1282
     16 N           5.6953   -5.6394   27.5699 N.pl3   1  UNL1       -0.3425
     17 H           5.5512   -6.4910   28.0424 H       1  UNL1        0.1437
     18 H           5.3758   -5.5293   26.6452 H       1  UNL1        0.1437
     19 C           3.2656    1.2040   28.1691 C.ar    1  UNL1       -0.0065
     20 C           4.3761    1.5574   27.2247 C.ar    1  UNL1       -0.0014
     21 C           5.0136    0.4912   26.3840 C.ar    1  UNL1        0.0173
     22 C           4.5407   -0.9284   26.4876 C.ar    1  UNL1        0.0667
     23 C           3.4301   -1.2819   27.4320 C.ar    1  UNL1        0.0173
     24 C           2.7926   -0.2157   28.2727 C.ar    1  UNL1       -0.0014
     25 N           1.1341    2.3943   29.0576 N.3     1  UNL1       -0.3175
     26 C           2.6281    2.2702   29.0098 C.3     1  UNL1        0.0922
     27 H           0.8765    3.1658   29.6731 H       1  UNL1        0.1192
     28 H           0.7320    1.5269   29.4132 H       1  UNL1        0.1192
     29 C           3.2922   -1.1747   20.7280 C.ar    1  UNL1        0.0177
     30 C           3.8434   -0.8867   19.3631 C.ar    1  UNL1        0.0015
     31 C           3.0076   -0.1536   18.3560 C.ar    1  UNL1        0.0000
     32 C           1.6206    0.2915   18.7140 C.ar    1  UNL1        0.0000
     33 C           1.0694    0.0035   20.0791 C.ar    1  UNL1        0.0000
     34 C           1.9053   -0.7296   21.0861 C.ar    1  UNL1        0.0015
@<TRIPOS>BOND
     1    25    26    1
     2    26    19    1
     3    19    20   ar
     4    20    21   ar
     5    21    22   ar
     6    22     1    1
     7     1     2   ar
     8     2    10    1
     9    10    11   ar
    10    11    12   ar
    11    12    13   ar
    12    13    14   ar
    13    14    15   ar
    14    15    16    1
    15     2     3   ar
    16     3     4   ar
    17     4     5   ar
    18     5     6   ar
    19     6     7   ar
    20     7    29    1
    21    29    30   ar
    22    30    31   ar
    23    31    32   ar
    24    32    33   ar
    25    33    34   ar
    26     7     8   ar
    27     8     9   ar
    28    22    23   ar
    29    23    24   ar
    30    24    19   ar
    31     9     1   ar
    32    15    10   ar
    33     9     4   ar
    34    34    29   ar
    35    25    27    1
    36    25    28    1
    37    16    17    1
    38    16    18    1
@<TRIPOS>MOLECULE
*****
 34 38 0 0 0
SMALL
GASTEIGER

@<TRIPOS>ATOM
      1 N           4.5809    0.4205   32.9820 N.ar    1  UNL1       -0.2754
      2 C           5.0423    1.0473   34.2643 C.ar    1  UNL1        0.1515
      3 N           4.1860    2.2507   34.5262 N.ar    1  UNL1       -0.2248
      4 C           3.1955    2.3677   33.4059 C.ar    1  UNL1        0.1173
      5 C           2.1028    3.3580   33.1315 C.ar    1  UNL1        0.0238
      6 C           1.2542    3.2171   31.9028 C.ar    1  UNL1        0.0208
      7 C           1.4982    2.0860   30.9484 C.ar    1  UNL1        0.0830
      8 N           2.5909    1.0956   31.2227 N.ar    1  UNL1       -0.2264
      9 C           3.4395    1.2365   32.4515 C.ar    1  UNL1        0.1665
     10 C           6.1631    0.5568   35.1322 C.ar    1  UNL1        0.0657
     11 C           7.5806    0.6504   34.6507 C.ar    1  UNL1        0.0074
     12 C           8.7014    0.1599   35.5186 C.ar    1  UNL1        0.0209
     13 C           8.4047   -0.4241   36.8679 C.ar    1  UNL1        0.1003
     14 N           6.9872   -0.5177   37.3494 N.ar    1  UNL1       -0.2295
     15 C           5.8664   -0.0272   36.4815 C.ar    1  UNL1        0.1282
     16 N           4.4488   -0.1208   36.9631 N.pl3   1  UNL1       -0.3425
     17 H           4.2541   -0.5042   37.8487 H       1  UNL1        0.1437
     18 H           3.7132    0.2011   36.3934 H       1  UNL1        0.1437
     19 C           6.3161   -3.2617   31.0634 C.ar    1  UNL1       -0.0065
     20 C           5.7815   -3.3265   32.4634 C.ar    1  UNL1       -0.0014
     21 C           5.2031   -2.0991   33.1029 C.ar    1  UNL1        0.0173
     22 C           5.1593   -0.8069   32.3425 C.ar    1  UNL1        0.0667
     23 C           5.6939   -0.7421   30.9424 C.ar    1  UNL1        0.0173
     24 C           6.2723   -1.9695   30.3029 C.ar    1  UNL1       -0.0014
     25 N           6.6964   -5.8318   31.0625 N.3     1  UNL1       -0.3175
     26 C           6.8945   -4.4891   30.4238 C.3     1  UNL1        0.0922
     27 H           7.1530   -6.5477   30.4974 H       1  UNL1        0.1192
     28 H           5.6987   -6.0340   31.1263 H       1  UNL1        0.1192
     29 C           0.6495    1.9451   29.7195 C.ar    1  UNL1        0.0177
     30 C           0.5478    3.0802   28.7442 C.ar    1  UNL1        0.0015
     31 C          -0.3009    2.9394   27.5154 C.ar    1  UNL1        0.0000
     32 C          -1.0478    1.6635   27.2619 C.ar    1  UNL1        0.0000
     33 C          -0.9460    0.5284   28.2373 C.ar    1  UNL1        0.0000
     34 C          -0.0974    0.6693   29.4661 C.ar    1  UNL1        0.0015
@<TRIPOS>BOND
     1    25    26    1
     2    26    19    1
     3    19    20   ar
     4    20    21   ar
     5    21    22   ar
     6    22     1    1
     7     1     2   ar
     8     2    10    1
     9    10    11   ar
    10    11    12   ar
    11    12    13   ar
    12    13    14   ar
    13    14    15   ar
    14    15    16    1
    15     2     3   ar
    16     3     4   ar
    17     4     5   ar
    18     5     6   ar
    19     6     7   ar
    20     7    29    1
    21    29    30   ar
    22    30    31   ar
    23    31    32   ar
    24    32    33   ar
    25    33    34   ar
    26     7     8   ar
    27     8     9   ar
    28    22    23   ar
    29    23    24   ar
    30    24    19   ar
    31     9     1   ar
    32    15    10   ar
    33     9     4   ar
    34    34    29   ar
    35    25    27    1
    36    25    28    1
    37    16    17    1
    38    16    18    1
