@<TRIPOS>MOLECULE
*****
 35 38 0 0 0
SMALL
GASTEIGER

@<TRIPOS>ATOM
      1 C          -8.3873  -19.7567   21.1143 C.ar    1  UNL1        0.1722
      2 C          -9.0130  -18.8768   22.1556 C.ar    1  UNL1        0.0443
      3 C         -10.1943  -18.0219   21.8037 C.ar    1  UNL1        0.0526
      4 C         -10.8200  -17.1420   22.8451 C.ar    1  UNL1        0.1355
      5 N         -12.0012  -16.2871   22.4933 N.ar    1  UNL1       -0.2089
      6 C         -12.5566  -16.3120   21.1002 C.ar    1  UNL1        0.2000
      7 N         -11.9309  -17.1918   20.0589 N.ar    1  UNL1       -0.2238
      8 C         -10.7497  -18.0468   20.4106 C.ar    1  UNL1        0.0890
      9 C         -10.1240  -18.9266   19.3693 C.ar    1  UNL1        0.0593
     10 C          -8.9428  -19.7816   19.7211 C.ar    1  UNL1        0.1739
     11 N         -10.2644  -17.1172   24.2382 N.pl3   1  UNL1       -0.2961
     12 H         -10.7559  -17.5522   24.9720 H       1  UNL1        0.1537
     13 C          -8.9600  -16.4295   24.5133 C.ar    1  UNL1        0.0780
     14 C          -8.2205  -15.7505   23.3989 C.ar    1  UNL1        0.0170
     15 C          -6.9161  -15.0629   23.6740 C.ar    1  UNL1        0.0023
     16 C          -6.3512  -15.0542   25.0635 C.ar    1  UNL1        0.0138
     17 C          -7.0908  -15.7332   26.1780 C.ar    1  UNL1        0.0863
     18 CL         -6.5259  -15.7245   27.5676 Cl      1  UNL1       -0.0799
     19 C          -8.3952  -16.4209   25.9029 C.ar    1  UNL1        0.1639
     20 F          -9.1347  -17.0998   27.0174 F       1  UNL1       -0.2020
     21 O          -8.3171  -20.6614   18.6798 O.3     1  UNL1       -0.4683
     22 C          -9.1565  -21.2267   17.5727 C.3     1  UNL1        0.2526
     23 O          -7.2061  -20.6116   21.4660 O.3     1  UNL1       -0.4760
     24 N          -3.0420  -18.9346   21.1536 N.3     1  UNL1       -0.2648
     25 C          -3.5015  -19.9860   20.1875 C.3     1  UNL1        0.0762
     26 C          -4.8895  -20.5450   20.2917 C.3     1  UNL1        0.0609
     27 C          -5.8180  -20.0526   21.3619 C.3     1  UNL1        0.1688
     28 C          -5.3585  -19.0012   22.3280 C.3     1  UNL1        0.0609
     29 C          -3.9705  -18.4422   22.2238 C.3     1  UNL1        0.0762
     30 C          -1.6539  -18.3755   21.0495 C.3     1  UNL1        0.1584
     31 C          -1.0025  -17.7056   17.1924 C.3     1  UNL1        0.1107
     32 N          -1.6894  -17.7642   18.5247 N.am    1  UNL1       -0.3015
     33 C          -0.9670  -18.3169   19.7173 C.2     1  UNL1        0.2389
     34 O           0.4424  -18.8111   19.5778 O.2     1  UNL1       -0.2736
     35 H          -2.6145  -17.4399   18.6162 H       1  UNL1        0.1495
@<TRIPOS>BOND
     1    31    32    1
     2    32    33   am
     3    33    34    2
     4    33    30    1
     5    30    24    1
     6    24    25    1
     7    25    26    1
     8    26    27    1
     9    27    23    1
    10    23     1    1
    11     1     2   ar
    12     2     3   ar
    13     3     4   ar
    14     4    11    1
    15    11    13    1
    16    13    14   ar
    17    14    15   ar
    18    15    16   ar
    19    16    17   ar
    20    17    18    1
    21    17    19   ar
    22    19    20    1
    23     4     5   ar
    24     5     6   ar
    25     6     7   ar
    26     7     8   ar
    27     8     9   ar
    28     9    10   ar
    29    10    21    1
    30    21    22    1
    31    27    28    1
    32    28    29    1
    33    29    24    1
    34    10     1   ar
    35     8     3   ar
    36    19    13   ar
    37    32    35    1
    38    11    12    1
@<TRIPOS>MOLECULE
*****
 35 38 0 0 0
SMALL
GASTEIGER

@<TRIPOS>ATOM
      1 C          -5.6741  -20.0320   21.9799 C.ar    1  UNL1        0.1722
      2 C          -4.9966  -18.8846   22.6686 C.ar    1  UNL1        0.0443
      3 C          -3.8485  -18.1836   22.0047 C.ar    1  UNL1        0.0526
      4 C          -3.1709  -17.0362   22.6934 C.ar    1  UNL1        0.1355
      5 N          -2.0229  -16.3352   22.0296 N.ar    1  UNL1       -0.2089
      6 C          -1.5525  -16.7817   20.6771 C.ar    1  UNL1        0.2000
      7 N          -2.2300  -17.9292   19.9884 N.ar    1  UNL1       -0.2238
      8 C          -3.3781  -18.6301   20.6522 C.ar    1  UNL1        0.0890
      9 C          -4.0556  -19.7775   19.9635 C.ar    1  UNL1        0.0593
     10 C          -5.2037  -20.4785   20.6273 C.ar    1  UNL1        0.1739
     11 N          -3.6414  -16.5897   24.0460 N.pl3   1  UNL1       -0.2961
     12 H          -3.0375  -16.6482   24.8213 H       1  UNL1        0.1537
     13 C          -5.0320  -16.0542   24.2172 C.ar    1  UNL1        0.0780
     14 C          -5.7987  -15.5632   23.0252 C.ar    1  UNL1        0.0170
     15 C          -7.1894  -15.0277   23.1964 C.ar    1  UNL1        0.0023
     16 C          -7.8133  -14.9831   24.5597 C.ar    1  UNL1        0.0138
     17 C          -7.0466  -15.4741   25.7519 C.ar    1  UNL1        0.0863
     18 CL         -7.6705  -15.4295   27.1152 Cl      1  UNL1       -0.0799
     19 C          -5.6560  -16.0096   25.5806 C.ar    1  UNL1        0.1639
     20 F          -4.8893  -16.5006   26.7727 F       1  UNL1       -0.2020
     21 O          -5.8812  -21.6259   19.9387 O.3     1  UNL1       -0.4683
     22 C          -7.1368  -21.3927   19.1519 C.3     1  UNL1        0.2526
     23 O          -6.8222  -20.7329   22.6437 O.3     1  UNL1       -0.4760
     24 N         -10.8864  -18.8033   22.7366 N.3     1  UNL1       -0.2648
     25 C         -10.5203  -19.8308   23.7662 C.3     1  UNL1        0.0762
     26 C          -9.1656  -20.4741   23.7353 C.3     1  UNL1        0.0609
     27 C          -8.1770  -20.0897   22.6747 C.3     1  UNL1        0.1688
     28 C          -8.5430  -19.0622   21.6451 C.3     1  UNL1        0.0609
     29 C          -9.8977  -18.4190   21.6760 C.3     1  UNL1        0.0762
     30 C         -12.2412  -18.1601   22.7676 C.3     1  UNL1        0.1584
     31 C         -12.8324  -15.6704   19.7342 C.3     1  UNL1        0.1107
     32 N         -12.5846  -16.9345   20.5027 N.am    1  UNL1       -0.3015
     33 C         -12.4890  -16.8960   21.9992 C.2     1  UNL1        0.2389
     34 O         -12.6412  -15.5933   22.7271 O.2     1  UNL1       -0.2736
     35 H         -12.4847  -17.7895   20.0250 H       1  UNL1        0.1495
@<TRIPOS>BOND
     1    31    32    1
     2    32    33   am
     3    33    34    2
     4    33    30    1
     5    30    24    1
     6    24    25    1
     7    25    26    1
     8    26    27    1
     9    27    23    1
    10    23     1    1
    11     1     2   ar
    12     2     3   ar
    13     3     4   ar
    14     4    11    1
    15    11    13    1
    16    13    14   ar
    17    14    15   ar
    18    15    16   ar
    19    16    17   ar
    20    17    18    1
    21    17    19   ar
    22    19    20    1
    23     4     5   ar
    24     5     6   ar
    25     6     7   ar
    26     7     8   ar
    27     8     9   ar
    28     9    10   ar
    29    10    21    1
    30    21    22    1
    31    27    28    1
    32    28    29    1
    33    29    24    1
    34    10     1   ar
    35     8     3   ar
    36    19    13   ar
    37    32    35    1
    38    11    12    1
@<TRIPOS>MOLECULE
*****
 35 38 0 0 0
SMALL
GASTEIGER

@<TRIPOS>ATOM
      1 C          -7.3228  -16.3093   24.1230 C.ar    1  UNL1        0.1722
      2 C          -7.9770  -16.8839   22.9015 C.ar    1  UNL1        0.0443
      3 C          -9.3491  -17.4826   22.9970 C.ar    1  UNL1        0.0526
      4 C         -10.0032  -18.0572   21.7755 C.ar    1  UNL1        0.1355
      5 N         -11.3752  -18.6558   21.8709 N.ar    1  UNL1       -0.2089
      6 C         -12.0931  -18.6799   23.1877 C.ar    1  UNL1        0.2000
      7 N         -11.4389  -18.1053   24.4091 N.ar    1  UNL1       -0.2238
      8 C         -10.0669  -17.5066   24.3138 C.ar    1  UNL1        0.0890
      9 C          -9.4128  -16.9320   25.5352 C.ar    1  UNL1        0.0593
     10 C          -8.0407  -16.3334   25.4398 C.ar    1  UNL1        0.1739
     11 N          -9.2853  -18.0331   20.4586 N.pl3   1  UNL1       -0.2961
     12 H          -9.3423  -17.2376   19.8814 H       1  UNL1        0.1537
     13 C          -8.4806  -19.2210   20.0214 C.ar    1  UNL1        0.0780
     14 C          -7.1262  -19.4696   20.6162 C.ar    1  UNL1        0.0170
     15 C          -6.3215  -20.6575   20.1789 C.ar    1  UNL1        0.0023
     16 C          -6.8711  -21.5969   19.1468 C.ar    1  UNL1        0.0138
     17 C          -8.2255  -21.3484   18.5519 C.ar    1  UNL1        0.0863
     18 CL         -8.7751  -22.2878   17.5197 Cl      1  UNL1       -0.0799
     19 C          -9.0302  -20.1605   18.9892 C.ar    1  UNL1        0.1639
     20 F         -10.3846  -19.9120   18.3943 F       1  UNL1       -0.2020
     21 O          -7.3866  -15.7588   26.6613 O.3     1  UNL1       -0.4683
     22 C          -8.2144  -15.0515   27.6930 C.3     1  UNL1        0.2526
     23 O          -5.9508  -15.7107   24.0276 O.3     1  UNL1       -0.4760
     24 N          -2.6199  -18.0185   22.0707 N.3     1  UNL1       -0.2648
     25 C          -3.8231  -18.7412   22.5997 C.3     1  UNL1        0.0762
     26 C          -4.9334  -17.9720   23.2520 C.3     1  UNL1        0.0609
     27 C          -4.8405  -16.4800   23.3753 C.3     1  UNL1        0.1688
     28 C          -3.6373  -15.7572   22.8462 C.3     1  UNL1        0.0609
     29 C          -2.5270  -16.5265   22.1939 C.3     1  UNL1        0.0762
     30 C          -1.5096  -18.7878   21.4184 C.3     1  UNL1        0.1584
     31 C          -1.7151  -17.7253   17.6001 C.3     1  UNL1        0.1107
     32 N          -2.1279  -18.0501   19.0052 N.am    1  UNL1       -0.3015
     33 C          -1.0968  -18.4630   20.0134 C.2     1  UNL1        0.2389
     34 O           0.3470  -18.5513   19.6165 O.2     1  UNL1       -0.2736
     35 H          -3.0755  -17.9922   19.2657 H       1  UNL1        0.1495
@<TRIPOS>BOND
     1    31    32    1
     2    32    33   am
     3    33    34    2
     4    33    30    1
     5    30    24    1
     6    24    25    1
     7    25    26    1
     8    26    27    1
     9    27    23    1
    10    23     1    1
    11     1     2   ar
    12     2     3   ar
    13     3     4   ar
    14     4    11    1
    15    11    13    1
    16    13    14   ar
    17    14    15   ar
    18    15    16   ar
    19    16    17   ar
    20    17    18    1
    21    17    19   ar
    22    19    20    1
    23     4     5   ar
    24     5     6   ar
    25     6     7   ar
    26     7     8   ar
    27     8     9   ar
    28     9    10   ar
    29    10    21    1
    30    21    22    1
    31    27    28    1
    32    28    29    1
    33    29    24    1
    34    10     1   ar
    35     8     3   ar
    36    19    13   ar
    37    32    35    1
    38    11    12    1
@<TRIPOS>MOLECULE
*****
 35 38 0 0 0
SMALL
GASTEIGER

@<TRIPOS>ATOM
      1 C           4.0206   -0.4802   22.2685 C.ar    1  UNL1        0.1722
      2 C           5.1212   -1.4874   22.1129 C.ar    1  UNL1        0.0443
      3 C           5.0172   -2.5564   21.0657 C.ar    1  UNL1        0.0526
      4 C           6.1178   -3.5635   20.9102 C.ar    1  UNL1        0.1355
      5 N           6.0139   -4.6324   19.8631 N.ar    1  UNL1       -0.2089
      6 C           4.8093   -4.6942   18.9714 C.ar    1  UNL1        0.2000
      7 N           3.7086   -3.6870   19.1270 N.ar    1  UNL1       -0.2238
      8 C           3.8126   -2.6181   20.1741 C.ar    1  UNL1        0.0890
      9 C           2.7119   -1.6109   20.3296 C.ar    1  UNL1        0.0593
     10 C           2.8159   -0.5420   21.3768 C.ar    1  UNL1        0.1739
     11 N           7.3225   -3.5017   21.8019 N.pl3   1  UNL1       -0.2961
     12 H           7.8704   -2.6844   21.8331 H       1  UNL1        0.1537
     13 C           7.6923   -4.6853   22.6460 C.ar    1  UNL1        0.0780
     14 C           8.6159   -5.7348   22.1026 C.ar    1  UNL1        0.0170
     15 C           8.9857   -6.9183   22.9466 C.ar    1  UNL1        0.0023
     16 C           8.4319   -7.0524   24.3342 C.ar    1  UNL1        0.0138
     17 C           7.5082   -6.0028   24.8777 C.ar    1  UNL1        0.0863
     18 CL          6.9543   -6.1368   26.2652 Cl      1  UNL1       -0.0799
     19 C           7.1384   -4.8193   24.0336 C.ar    1  UNL1        0.1639
     20 F           6.2148   -3.7697   24.5770 F       1  UNL1       -0.2020
     21 O           1.7152    0.4651   21.5323 O.3     1  UNL1       -0.4683
     22 C           0.4530    0.3260   20.7340 C.3     1  UNL1        0.2526
     23 O           4.1245    0.5887   23.3156 O.3     1  UNL1       -0.4760
     24 N           2.7219   -0.2290   27.5125 N.3     1  UNL1       -0.2648
     25 C           2.2153    0.9739   26.7734 C.3     1  UNL1        0.0762
     26 C           2.6828    1.2465   25.3745 C.3     1  UNL1        0.0609
     27 C           3.6569    0.3161   24.7146 C.3     1  UNL1        0.1688
     28 C           4.1636   -0.8868   25.4537 C.3     1  UNL1        0.0609
     29 C           3.6961   -1.1594   26.8527 C.3     1  UNL1        0.0762
     30 C           2.2543   -0.5016   28.9115 C.3     1  UNL1        0.1584
     31 C          -1.6896   -0.1165   29.1274 C.3     1  UNL1        0.1107
     32 N          -0.3327   -0.5797   28.6865 N.am    1  UNL1       -0.3015
     33 C           0.8975   -0.0384   29.3524 C.2     1  UNL1        0.2389
     34 O           0.7709    0.9660   30.4593 O.2     1  UNL1       -0.2736
     35 H          -0.2496   -1.2389   27.9601 H       1  UNL1        0.1495
@<TRIPOS>BOND
     1    31    32    1
     2    32    33   am
     3    33    34    2
     4    33    30    1
     5    30    24    1
     6    24    25    1
     7    25    26    1
     8    26    27    1
     9    27    23    1
    10    23     1    1
    11     1     2   ar
    12     2     3   ar
    13     3     4   ar
    14     4    11    1
    15    11    13    1
    16    13    14   ar
    17    14    15   ar
    18    15    16   ar
    19    16    17   ar
    20    17    18    1
    21    17    19   ar
    22    19    20    1
    23     4     5   ar
    24     5     6   ar
    25     6     7   ar
    26     7     8   ar
    27     8     9   ar
    28     9    10   ar
    29    10    21    1
    30    21    22    1
    31    27    28    1
    32    28    29    1
    33    29    24    1
    34    10     1   ar
    35     8     3   ar
    36    19    13   ar
    37    32    35    1
    38    11    12    1
@<TRIPOS>MOLECULE
*****
 35 38 0 0 0
SMALL
GASTEIGER

@<TRIPOS>ATOM
      1 C          -0.1353    3.7147   20.9535 C.ar    1  UNL1        0.1722
      2 C          -1.5721    3.3274   21.1426 C.ar    1  UNL1        0.0443
      3 C          -2.5744    3.6147   20.0642 C.ar    1  UNL1        0.0526
      4 C          -4.0112    3.2273   20.2533 C.ar    1  UNL1        0.1355
      5 N          -5.0135    3.5146   19.1751 N.ar    1  UNL1       -0.2089
      6 C          -4.5792    4.1891   17.9077 C.ar    1  UNL1        0.2000
      7 N          -3.1424    4.5765   17.7186 N.ar    1  UNL1       -0.2238
      8 C          -2.1401    4.2892   18.7969 C.ar    1  UNL1        0.0890
      9 C          -0.7033    4.6766   18.6078 C.ar    1  UNL1        0.0593
     10 C           0.2990    4.3893   19.6861 C.ar    1  UNL1        0.1739
     11 N          -4.4455    2.5527   21.5208 N.pl3   1  UNL1       -0.2961
     12 H          -4.2464    1.5993   21.6641 H       1  UNL1        0.1537
     13 C          -5.1833    3.3308   22.5697 C.ar    1  UNL1        0.0780
     14 C          -6.5047    3.9618   22.2447 C.ar    1  UNL1        0.0170
     15 C          -7.2425    4.7399   23.2937 C.ar    1  UNL1        0.0023
     16 C          -6.6588    4.8870   24.6676 C.ar    1  UNL1        0.0138
     17 C          -5.3374    4.2560   24.9926 C.ar    1  UNL1        0.0863
     18 CL         -4.7537    4.4031   26.3665 Cl      1  UNL1       -0.0799
     19 C          -4.5996    3.4779   23.9437 C.ar    1  UNL1        0.1639
     20 F          -3.2782    2.8469   24.2686 F       1  UNL1       -0.2020
     21 O           1.7358    4.7767   19.4970 O.3     1  UNL1       -0.4683
     22 C           2.5566    4.1154   18.4298 C.3     1  UNL1        0.2526
     23 O           0.8671    3.4275   22.0318 O.3     1  UNL1       -0.4760
     24 N          -0.5277    2.2364   26.1410 N.3     1  UNL1       -0.2648
     25 C          -0.0333    1.1919   25.1848 C.3     1  UNL1        0.0762
     26 C           0.4317    1.5889   23.8150 C.3     1  UNL1        0.0609
     27 C           0.4021    3.0304   23.4016 C.3     1  UNL1        0.1688
     28 C          -0.0923    4.0750   24.3578 C.3     1  UNL1        0.0609
     29 C          -0.5572    3.6780   25.7276 C.3     1  UNL1        0.0762
     30 C          -0.9926    1.8394   27.5108 C.3     1  UNL1        0.1584
     31 C           1.7556   -0.3570   29.3475 C.3     1  UNL1        0.1107
     32 N           1.1006    0.7899   28.6363 N.am    1  UNL1       -0.3015
     33 C          -0.3377    0.6925   28.2220 C.2     1  UNL1        0.2389
     34 O          -1.1212   -0.5517   28.5188 O.2     1  UNL1       -0.2736
     35 H           1.6148    1.6065   28.4414 H       1  UNL1        0.1495
@<TRIPOS>BOND
     1    31    32    1
     2    32    33   am
     3    33    34    2
     4    33    30    1
     5    30    24    1
     6    24    25    1
     7    25    26    1
     8    26    27    1
     9    27    23    1
    10    23     1    1
    11     1     2   ar
    12     2     3   ar
    13     3     4   ar
    14     4    11    1
    15    11    13    1
    16    13    14   ar
    17    14    15   ar
    18    15    16   ar
    19    16    17   ar
    20    17    18    1
    21    17    19   ar
    22    19    20    1
    23     4     5   ar
    24     5     6   ar
    25     6     7   ar
    26     7     8   ar
    27     8     9   ar
    28     9    10   ar
    29    10    21    1
    30    21    22    1
    31    27    28    1
    32    28    29    1
    33    29    24    1
    34    10     1   ar
    35     8     3   ar
    36    19    13   ar
    37    32    35    1
    38    11    12    1
@<TRIPOS>MOLECULE
*****
 35 38 0 0 0
SMALL
GASTEIGER

@<TRIPOS>ATOM
      1 C          -0.5846    3.4188   20.0394 C.ar    1  UNL1        0.1722
      2 C          -1.9666    3.1235   20.5424 C.ar    1  UNL1        0.0443
      3 C          -3.1627    3.5743   19.7574 C.ar    1  UNL1        0.0526
      4 C          -4.5447    3.2790   20.2604 C.ar    1  UNL1        0.1355
      5 N          -5.7407    3.7297   19.4754 N.ar    1  UNL1       -0.2089
      6 C          -5.5548    4.4756   18.1874 C.ar    1  UNL1        0.2000
      7 N          -4.1729    4.7709   17.6844 N.ar    1  UNL1       -0.2238
      8 C          -2.9768    4.3202   18.4694 C.ar    1  UNL1        0.0890
      9 C          -1.5948    4.6155   17.9664 C.ar    1  UNL1        0.0593
     10 C          -0.3988    4.1648   18.7514 C.ar    1  UNL1        0.1739
     11 N          -4.7305    2.5330   21.5484 N.pl3   1  UNL1       -0.2961
     12 H          -4.7365    1.5486   21.5507 H       1  UNL1        0.1537
     13 C          -4.9072    3.2871   22.8331 C.ar    1  UNL1        0.0780
     14 C          -3.8116    3.2904   23.8575 C.ar    1  UNL1        0.0170
     15 C          -3.9882    4.0444   25.1421 C.ar    1  UNL1        0.0023
     16 C          -5.2605    4.7952   25.4023 C.ar    1  UNL1        0.0138
     17 C          -6.3562    4.7919   24.3778 C.ar    1  UNL1        0.0863
     18 CL         -7.6284    5.5426   24.6379 Cl      1  UNL1       -0.0799
     19 C          -6.1795    4.0379   23.0931 C.ar    1  UNL1        0.1639
     20 F          -7.2751    4.0346   22.0687 F       1  UNL1       -0.2020
     21 O           0.9832    4.4600   18.2484 O.3     1  UNL1       -0.4683
     22 C           1.3802    5.8712   17.9310 C.3     1  UNL1        0.2526
     23 O           0.6114    2.9681   20.8244 O.3     1  UNL1       -0.4760
     24 N           2.7610   -0.8150   19.6767 N.3     1  UNL1       -0.2648
     25 C           1.3314   -0.8719   20.1272 C.3     1  UNL1        0.0762
     26 C           0.6149    0.3891   20.5098 C.3     1  UNL1        0.0609
     27 C           1.3280    1.7070   20.4418 C.3     1  UNL1        0.1688
     28 C           2.7576    1.7639   19.9913 C.3     1  UNL1        0.0609
     29 C           3.4741    0.5029   19.6087 C.3     1  UNL1        0.0762
     30 C           3.4775   -2.0761   19.2941 C.3     1  UNL1        0.1584
     31 C           7.3836   -2.1982   18.6032 C.3     1  UNL1        0.1107
     32 N           6.0680   -2.2710   19.3202 N.am    1  UNL1       -0.3015
     33 C           4.7930   -2.0033   18.5770 C.2     1  UNL1        0.2389
     34 O           4.8334   -1.6627   17.1168 O.2     1  UNL1       -0.2736
     35 H           6.0415   -2.4946   20.2787 H       1  UNL1        0.1495
@<TRIPOS>BOND
     1    31    32    1
     2    32    33   am
     3    33    34    2
     4    33    30    1
     5    30    24    1
     6    24    25    1
     7    25    26    1
     8    26    27    1
     9    27    23    1
    10    23     1    1
    11     1     2   ar
    12     2     3   ar
    13     3     4   ar
    14     4    11    1
    15    11    13    1
    16    13    14   ar
    17    14    15   ar
    18    15    16   ar
    19    16    17   ar
    20    17    18    1
    21    17    19   ar
    22    19    20    1
    23     4     5   ar
    24     5     6   ar
    25     6     7   ar
    26     7     8   ar
    27     8     9   ar
    28     9    10   ar
    29    10    21    1
    30    21    22    1
    31    27    28    1
    32    28    29    1
    33    29    24    1
    34    10     1   ar
    35     8     3   ar
    36    19    13   ar
    37    32    35    1
    38    11    12    1
@<TRIPOS>MOLECULE
*****
 35 38 0 0 0
SMALL
GASTEIGER

@<TRIPOS>ATOM
      1 C           7.0012   -3.4310   27.8917 C.ar    1  UNL1        0.1722
      2 C           7.2433   -3.5396   26.4154 C.ar    1  UNL1        0.0443
      3 C           7.4971   -4.8809   25.7937 C.ar    1  UNL1        0.0526
      4 C           7.7392   -4.9895   24.3173 C.ar    1  UNL1        0.1355
      5 N           7.9931   -6.3308   23.6956 N.ar    1  UNL1       -0.2089
      6 C           8.0048   -7.5634   24.5502 C.ar    1  UNL1        0.2000
      7 N           7.7627   -7.4548   26.0266 N.ar    1  UNL1       -0.2238
      8 C           7.5089   -6.1136   26.6483 C.ar    1  UNL1        0.0890
      9 C           7.2667   -6.0050   28.1246 C.ar    1  UNL1        0.0593
     10 C           7.0129   -4.6637   28.7464 C.ar    1  UNL1        0.1739
     11 N           7.7275   -3.7568   23.4627 N.pl3   1  UNL1       -0.2961
     12 H           8.5177   -3.1703   23.4338 H       1  UNL1        0.1537
     13 C           6.5118   -3.4177   22.6521 C.ar    1  UNL1        0.0780
     14 C           5.3409   -2.7427   23.3027 C.ar    1  UNL1        0.0170
     15 C           4.1252   -2.4036   22.4921 C.ar    1  UNL1        0.0023
     16 C           4.0803   -2.7396   21.0309 C.ar    1  UNL1        0.0138
     17 C           5.2513   -3.4147   20.3803 C.ar    1  UNL1        0.0863
     18 CL          5.2064   -3.7508   18.9191 Cl      1  UNL1       -0.0799
     19 C           6.4670   -3.7538   21.1909 C.ar    1  UNL1        0.1639
     20 F           7.6379   -4.4289   20.5403 F       1  UNL1       -0.2020
     21 O           6.7708   -4.5551   30.2227 O.3     1  UNL1       -0.4683
     22 C           7.0654   -5.7213   31.1188 C.3     1  UNL1        0.2526
     23 O           6.7473   -2.0897   28.5135 O.3     1  UNL1       -0.4760
     24 N           2.5345   -0.5641   28.9308 N.3     1  UNL1       -0.2648
     25 C           3.0275   -1.0509   27.6004 C.3     1  UNL1        0.0762
     26 C           4.4318   -1.5595   27.4613 C.3     1  UNL1        0.0609
     27 C           5.3430   -1.5812   28.6525 C.3     1  UNL1        0.1688
     28 C           4.8499   -1.0944   29.9829 C.3     1  UNL1        0.0609
     29 C           3.4457   -0.5858   30.1220 C.3     1  UNL1        0.0762
     30 C           1.1301   -0.0556   29.0698 C.3     1  UNL1        0.1584
     31 C          -0.6460    1.8272   26.0614 C.3     1  UNL1        0.1107
     32 N          -0.1564    0.7234   26.9514 N.am    1  UNL1       -0.3015
     33 C           0.6406    1.0482   28.1799 C.2     1  UNL1        0.2389
     34 O           0.9480    2.4768   28.5185 O.2     1  UNL1       -0.2736
     35 H          -0.3582   -0.2143   26.7292 H       1  UNL1        0.1495
@<TRIPOS>BOND
     1    31    32    1
     2    32    33   am
     3    33    34    2
     4    33    30    1
     5    30    24    1
     6    24    25    1
     7    25    26    1
     8    26    27    1
     9    27    23    1
    10    23     1    1
    11     1     2   ar
    12     2     3   ar
    13     3     4   ar
    14     4    11    1
    15    11    13    1
    16    13    14   ar
    17    14    15   ar
    18    15    16   ar
    19    16    17   ar
    20    17    18    1
    21    17    19   ar
    22    19    20    1
    23     4     5   ar
    24     5     6   ar
    25     6     7   ar
    26     7     8   ar
    27     8     9   ar
    28     9    10   ar
    29    10    21    1
    30    21    22    1
    31    27    28    1
    32    28    29    1
    33    29    24    1
    34    10     1   ar
    35     8     3   ar
    36    19    13   ar
    37    32    35    1
    38    11    12    1
@<TRIPOS>MOLECULE
*****
 35 38 0 0 0
SMALL
GASTEIGER

@<TRIPOS>ATOM
      1 C          -7.2832  -19.6163   20.1107 C.ar    1  UNL1        0.1722
      2 C          -6.8182  -18.4935   20.9899 C.ar    1  UNL1        0.0443
      3 C          -5.4516  -18.5404   21.6067 C.ar    1  UNL1        0.0526
      4 C          -4.9867  -17.4175   22.4859 C.ar    1  UNL1        0.1355
      5 N          -3.6202  -17.4644   23.1026 N.ar    1  UNL1       -0.2089
      6 C          -2.7186  -18.6341   22.8401 C.ar    1  UNL1        0.2000
      7 N          -3.1835  -19.7569   21.9609 N.ar    1  UNL1       -0.2238
      8 C          -4.5500  -19.7101   21.3441 C.ar    1  UNL1        0.0890
      9 C          -5.0150  -20.8329   20.4649 C.ar    1  UNL1        0.0593
     10 C          -6.3815  -20.7861   19.8482 C.ar    1  UNL1        0.1739
     11 N          -5.8883  -16.2478   22.7484 N.pl3   1  UNL1       -0.2961
     12 H          -5.8836  -15.4758   22.1375 H       1  UNL1        0.1537
     13 C          -6.7972  -16.2544   23.9417 C.ar    1  UNL1        0.0780
     14 C          -8.1684  -16.8534   23.8368 C.ar    1  UNL1        0.0170
     15 C          -9.0772  -16.8600   25.0301 C.ar    1  UNL1        0.0023
     16 C          -8.6149  -16.2676   26.3283 C.ar    1  UNL1        0.0138
     17 C          -7.2437  -15.6686   26.4332 C.ar    1  UNL1        0.0863
     18 CL         -6.7814  -15.0762   27.7314 Cl      1  UNL1       -0.0799
     19 C          -6.3348  -15.6620   25.2399 C.ar    1  UNL1        0.1639
     20 F          -4.9637  -15.0630   25.3448 F       1  UNL1       -0.2020
     21 O          -6.8464  -21.9089   18.9689 O.3     1  UNL1       -0.4683
     22 C          -8.1197  -21.7720   18.1880 C.3     1  UNL1        0.2526
     23 O          -8.6497  -19.5695   19.4940 O.3     1  UNL1       -0.4760
     24 N         -12.1871  -18.2786   21.9577 N.3     1  UNL1       -0.2648
     25 C         -11.3211  -19.4109   22.4245 C.3     1  UNL1        0.0762
     26 C         -10.1420  -19.8412   21.6033 C.3     1  UNL1        0.0609
     27 C          -9.8289  -19.1392   20.3153 C.3     1  UNL1        0.1688
     28 C         -10.6949  -18.0069   19.8484 C.3     1  UNL1        0.0609
     29 C         -11.8740  -17.5766   20.6696 C.3     1  UNL1        0.0762
     30 C         -13.3663  -17.8483   22.7790 C.3     1  UNL1        0.1584
     31 C         -14.8216  -18.5510   26.4036 C.3     1  UNL1        0.1107
     32 N         -14.7544  -18.2006   24.9466 N.am    1  UNL1       -0.3015
     33 C         -13.4335  -18.1987   24.2359 C.2     1  UNL1        0.2389
     34 O         -12.1798  -18.5470   24.9821 O.2     1  UNL1       -0.2736
     35 H         -15.5773  -17.9720   24.4569 H       1  UNL1        0.1495
@<TRIPOS>BOND
     1    31    32    1
     2    32    33   am
     3    33    34    2
     4    33    30    1
     5    30    24    1
     6    24    25    1
     7    25    26    1
     8    26    27    1
     9    27    23    1
    10    23     1    1
    11     1     2   ar
    12     2     3   ar
    13     3     4   ar
    14     4    11    1
    15    11    13    1
    16    13    14   ar
    17    14    15   ar
    18    15    16   ar
    19    16    17   ar
    20    17    18    1
    21    17    19   ar
    22    19    20    1
    23     4     5   ar
    24     5     6   ar
    25     6     7   ar
    26     7     8   ar
    27     8     9   ar
    28     9    10   ar
    29    10    21    1
    30    21    22    1
    31    27    28    1
    32    28    29    1
    33    29    24    1
    34    10     1   ar
    35     8     3   ar
    36    19    13   ar
    37    32    35    1
    38    11    12    1
@<TRIPOS>MOLECULE
*****
 35 38 0 0 0
SMALL
GASTEIGER

@<TRIPOS>ATOM
      1 C           5.0725   -1.1696   18.8078 C.ar    1  UNL1        0.1722
      2 C           4.9139   -1.9010   20.1078 C.ar    1  UNL1        0.0443
      3 C           6.0322   -2.7535   20.6300 C.ar    1  UNL1        0.0526
      4 C           5.8736   -3.4850   21.9299 C.ar    1  UNL1        0.1355
      5 N           6.9918   -4.3374   22.4521 N.ar    1  UNL1       -0.2089
      6 C           8.2687   -4.4584   21.6744 C.ar    1  UNL1        0.2000
      7 N           8.4273   -3.7270   20.3745 N.ar    1  UNL1       -0.2238
      8 C           7.3091   -2.8745   19.8523 C.ar    1  UNL1        0.0890
      9 C           7.4677   -2.1431   18.5523 C.ar    1  UNL1        0.0593
     10 C           6.3495   -1.2906   18.0301 C.ar    1  UNL1        0.1739
     11 N           4.5966   -3.3639   22.7076 N.pl3   1  UNL1       -0.2961
     12 H           3.8434   -3.9677   22.5144 H       1  UNL1        0.1537
     13 C           4.4672   -2.3228   23.7797 C.ar    1  UNL1        0.0780
     14 C           5.3359   -2.3916   25.0006 C.ar    1  UNL1        0.0170
     15 C           5.2065   -1.3505   26.0728 C.ar    1  UNL1        0.0023
     16 C           4.2085   -0.2406   25.9239 C.ar    1  UNL1        0.0138
     17 C           3.3398   -0.1718   24.7030 C.ar    1  UNL1        0.0863
     18 CL          2.3418    0.9380   24.5541 Cl      1  UNL1       -0.0799
     19 C           3.4692   -1.2129   23.6308 C.ar    1  UNL1        0.1639
     20 F           2.6006   -1.1441   22.4099 F       1  UNL1       -0.2020
     21 O           6.5081   -0.5592   16.7302 O.3     1  UNL1       -0.4683
     22 C           7.0272    0.8481   16.7199 C.3     1  UNL1        0.2526
     23 O           3.9543   -0.3171   18.2856 O.3     1  UNL1       -0.4760
     24 N           1.0283    1.5560   21.1458 N.3     1  UNL1       -0.2648
     25 C           2.4380    2.0637   21.0754 C.3     1  UNL1        0.0762
     26 C           3.4133    1.4394   20.1220 C.3     1  UNL1        0.0609
     27 C           2.9789    0.3073   19.2390 C.3     1  UNL1        0.1688
     28 C           1.5692   -0.2004   19.3094 C.3     1  UNL1        0.0609
     29 C           0.5939    0.4240   20.2628 C.3     1  UNL1        0.0762
     30 C           0.0530    2.1804   22.0992 C.3     1  UNL1        0.1584
     31 C          -3.1584    3.6213   20.2660 C.3     1  UNL1        0.1107
     32 N          -2.1296    2.6540   20.7719 N.am    1  UNL1       -0.3015
     33 C          -0.9757    3.1477   21.5933 C.2     1  UNL1        0.2389
     34 O          -0.8506    4.6088   21.9088 O.2     1  UNL1       -0.2736
     35 H          -2.2117    1.6950   20.5648 H       1  UNL1        0.1495
@<TRIPOS>BOND
     1    31    32    1
     2    32    33   am
     3    33    34    2
     4    33    30    1
     5    30    24    1
     6    24    25    1
     7    25    26    1
     8    26    27    1
     9    27    23    1
    10    23     1    1
    11     1     2   ar
    12     2     3   ar
    13     3     4   ar
    14     4    11    1
    15    11    13    1
    16    13    14   ar
    17    14    15   ar
    18    15    16   ar
    19    16    17   ar
    20    17    18    1
    21    17    19   ar
    22    19    20    1
    23     4     5   ar
    24     5     6   ar
    25     6     7   ar
    26     7     8   ar
    27     8     9   ar
    28     9    10   ar
    29    10    21    1
    30    21    22    1
    31    27    28    1
    32    28    29    1
    33    29    24    1
    34    10     1   ar
    35     8     3   ar
    36    19    13   ar
    37    32    35    1
    38    11    12    1
