@<TRIPOS>MOLECULE
*****
 29 32 0 0 0
SMALL
GASTEIGER

@<TRIPOS>ATOM
      1 C          -6.6619  -16.5174   23.9503 C.3     1  UNL1        0.0858
      2 C          -7.7747  -15.9474   24.7790 C.3     1  UNL1        0.0228
      3 C          -9.2022  -16.2089   24.3996 C.3     1  UNL1        0.0287
      4 C          -9.5168  -17.0403   23.1913 C.ar    1  UNL1       -0.0123
      5 C         -10.8172  -17.4643   22.5756 C.ar    1  UNL1       -0.0034
      6 C         -10.5082  -18.2963   21.3664 C.ar    1  UNL1        0.0598
      7 C         -11.3921  -18.9833   20.3681 C.ar    1  UNL1        0.0172
      8 C         -10.7846  -19.7606   19.2383 C.ar    1  UNL1        0.0030
      9 C          -9.2931  -19.8509   19.1066 C.ar    1  UNL1        0.0190
     10 C          -8.4092  -19.1638   20.1048 C.ar    1  UNL1        0.0798
     11 N          -9.0167  -18.3865   21.2347 N.ar    1  UNL1       -0.3092
     12 C          -8.4040  -17.6103   22.3626 C.ar    1  UNL1        0.0385
     13 C          -6.9766  -17.3488   22.7421 C.3     1  UNL1        0.0615
     14 C          -4.9160  -15.5764   25.6285 C.3     1  UNL1        0.1149
     15 N          -5.2344  -16.2560   24.3298 N.3     1  UNL1       -0.1550
     16 S          -4.1254  -16.6741   23.4104 S.O2    1  UNL1        0.0633
     17 O          -4.1357  -15.3136   22.7790 O.2     1  UNL1       -0.1528
     18 O          -4.1151  -18.0347   24.0418 O.2     1  UNL1       -0.1528
     19 C          -3.0164  -17.0924   22.4910 C.ar    1  UNL1        0.1223
     20 C          -2.7582  -18.5489   22.2414 C.ar    1  UNL1        0.0222
     21 C          -1.6492  -18.9672   21.3220 C.ar    1  UNL1        0.0310
     22 C          -0.7985  -17.9290   20.6523 C.ar    1  UNL1        0.1402
     23 F           0.3105  -18.3473   19.7330 F       1  UNL1       -0.2042
     24 C          -1.0567  -16.4726   20.9019 C.ar    1  UNL1        0.0310
     25 C          -2.1656  -16.0544   21.8212 C.ar    1  UNL1        0.0222
     26 C         -12.1864  -17.1172   23.0805 C.3     1  UNL1        0.0691
     27 C         -12.9052  -18.0553   24.0044 C.2     1  UNL1        0.0548
     28 O         -14.4047  -18.0907   24.0196 O.co2   1  UNL1       -0.5488
     29 O         -12.1244  -18.9578   24.9131 O.co2   1  UNL1       -0.5488
@<TRIPOS>UNITY_ATOM_ATTR
28 1
charge -1
@<TRIPOS>BOND
     1    14    15    1
     2     1    15    1
     3     1     2    1
     4     2     3    1
     5     3     4    1
     6     4     5   ar
     7     5    26    1
     8    26    27    1
     9    27    28   ar
    10    27    29   ar
    11     5     6   ar
    12     6     7   ar
    13     7     8   ar
    14     8     9   ar
    15     9    10   ar
    16    10    11   ar
    17    11    12   ar
    18    12    13    1
    19    15    16    1
    20    16    17    2
    21    16    18    2
    22    16    19    1
    23    19    20   ar
    24    20    21   ar
    25    21    22   ar
    26    22    23    1
    27    22    24   ar
    28    24    25   ar
    29    13     1    1
    30    25    19   ar
    31    12     4   ar
    32    11     6   ar
@<TRIPOS>MOLECULE
*****
 29 32 0 0 0
SMALL
GASTEIGER

@<TRIPOS>ATOM
      1 C          -6.3958  -16.5730   23.7959 C.3     1  UNL1        0.0858
      2 C          -5.0367  -15.9588   23.9559 C.3     1  UNL1        0.0228
      3 C          -3.8580  -16.5490   23.2402 C.3     1  UNL1        0.0287
      4 C          -4.0383  -17.7534   22.3645 C.ar    1  UNL1       -0.0123
      5 C          -3.0701  -18.5490   21.5401 C.ar    1  UNL1       -0.0034
      6 C          -3.8308  -19.6549   20.8705 C.ar    1  UNL1        0.0598
      7 C          -3.3996  -20.7495   19.9401 C.ar    1  UNL1        0.0172
      8 C          -4.4067  -21.7321   19.4202 C.ar    1  UNL1        0.0030
      9 C          -5.8451  -21.6200   19.8308 C.ar    1  UNL1        0.0190
     10 C          -6.2763  -20.5254   20.7613 C.ar    1  UNL1        0.0798
     11 N          -5.2692  -19.5428   21.2812 N.ar    1  UNL1       -0.3092
     12 C          -5.3974  -18.3676   22.2044 C.ar    1  UNL1        0.0385
     13 C          -6.5761  -17.7775   22.9201 C.3     1  UNL1        0.0615
     14 C          -7.3691  -14.8998   25.5289 C.3     1  UNL1        0.1149
     15 N          -7.5746  -15.9829   24.5116 N.3     1  UNL1       -0.1550
     16 S          -8.9588  -16.4758   24.2099 S.O2    1  UNL1        0.0633
     17 O          -9.0091  -17.1533   25.5472 O.2     1  UNL1       -0.1528
     18 O          -8.9085  -15.7983   22.8726 O.2     1  UNL1       -0.1528
     19 C         -10.3430  -16.9687   23.9082 C.ar    1  UNL1        0.1223
     20 C         -11.2103  -16.2219   22.9385 C.ar    1  UNL1        0.0222
     21 C         -12.5945  -16.7148   22.6367 C.ar    1  UNL1        0.0310
     22 C         -13.1113  -17.9545   23.3047 C.ar    1  UNL1        0.1402
     23 F         -14.4955  -18.4474   23.0029 F       1  UNL1       -0.2042
     24 C         -12.2441  -18.7012   24.2743 C.ar    1  UNL1        0.0310
     25 C         -10.8599  -18.2084   24.5760 C.ar    1  UNL1        0.0222
     26 C          -1.5994  -18.2850   21.4083 C.3     1  UNL1        0.0691
     27 C          -0.9672  -18.2236   20.0493 C.2     1  UNL1        0.0548
     28 O           0.3438  -18.9086   19.8004 O.co2   1  UNL1       -0.5488
     29 O          -1.6462  -17.4773   18.9394 O.co2   1  UNL1       -0.5488
@<TRIPOS>UNITY_ATOM_ATTR
28 1
charge -1
@<TRIPOS>BOND
     1    14    15    1
     2     1    15    1
     3     1     2    1
     4     2     3    1
     5     3     4    1
     6     4     5   ar
     7     5    26    1
     8    26    27    1
     9    27    28   ar
    10    27    29   ar
    11     5     6   ar
    12     6     7   ar
    13     7     8   ar
    14     8     9   ar
    15     9    10   ar
    16    10    11   ar
    17    11    12   ar
    18    12    13    1
    19    15    16    1
    20    16    17    2
    21    16    18    2
    22    16    19    1
    23    19    20   ar
    24    20    21   ar
    25    21    22   ar
    26    22    23    1
    27    22    24   ar
    28    24    25   ar
    29    13     1    1
    30    25    19   ar
    31    12     4   ar
    32    11     6   ar
@<TRIPOS>MOLECULE
*****
 29 32 0 0 0
SMALL
GASTEIGER

@<TRIPOS>ATOM
      1 C          -6.7949  -19.1804   21.0415 C.3     1  UNL1        0.0858
      2 C          -8.1421  -19.1645   20.3822 C.3     1  UNL1        0.0228
      3 C          -9.2629  -18.3709   20.9854 C.3     1  UNL1        0.0287
      4 C          -9.0366  -17.5932   22.2479 C.ar    1  UNL1       -0.0123
      5 C          -9.9440  -16.7255   23.0686 C.ar    1  UNL1       -0.0034
      6 C          -9.1576  -16.2051   24.2352 C.ar    1  UNL1        0.0598
      7 C          -9.5304  -15.3046   25.3754 C.ar    1  UNL1        0.0172
      8 C          -8.5097  -14.9502   26.4158 C.ar    1  UNL1        0.0030
      9 C          -7.1162  -15.4964   26.3160 C.ar    1  UNL1        0.0190
     10 C          -6.7434  -16.3969   25.1759 C.ar    1  UNL1        0.0798
     11 N          -7.7641  -16.7513   24.1355 N.ar    1  UNL1       -0.3092
     12 C          -7.6893  -17.6091   22.9072 C.ar    1  UNL1        0.0385
     13 C          -6.5685  -18.4028   22.3040 C.3     1  UNL1        0.0615
     14 C          -5.9226  -21.3694   19.9471 C.3     1  UNL1        0.1149
     15 N          -5.6740  -19.9741   20.4383 N.3     1  UNL1       -0.1550
     16 S          -4.3046  -19.3723   20.3264 S.O2    1  UNL1        0.0633
     17 O          -3.8031  -20.3176   21.3774 O.2     1  UNL1       -0.1528
     18 O          -4.8060  -18.4269   19.2753 O.2     1  UNL1       -0.1528
     19 C          -2.9352  -18.7704   20.2144 C.ar    1  UNL1        0.1223
     20 C          -2.4097  -18.3460   18.8750 C.ar    1  UNL1        0.0222
     21 C          -1.0403  -17.7441   18.7630 C.ar    1  UNL1        0.0310
     22 C          -0.1964  -17.5667   19.9904 C.ar    1  UNL1        0.1402
     23 F           1.1730  -16.9648   19.8784 F       1  UNL1       -0.2042
     24 C          -0.7219  -17.9912   21.3297 C.ar    1  UNL1        0.0310
     25 C          -2.0912  -18.5930   21.4417 C.ar    1  UNL1        0.0222
     26 C         -11.3849  -16.4299   22.7745 C.3     1  UNL1        0.0691
     27 C         -12.3609  -17.5556   22.5997 C.2     1  UNL1        0.0548
     28 O         -12.6724  -18.4639   23.7521 O.co2   1  UNL1       -0.5488
     29 O         -13.0253  -17.7729   21.2725 O.co2   1  UNL1       -0.5488
@<TRIPOS>UNITY_ATOM_ATTR
28 1
charge -1
@<TRIPOS>BOND
     1    14    15    1
     2     1    15    1
     3     1     2    1
     4     2     3    1
     5     3     4    1
     6     4     5   ar
     7     5    26    1
     8    26    27    1
     9    27    28   ar
    10    27    29   ar
    11     5     6   ar
    12     6     7   ar
    13     7     8   ar
    14     8     9   ar
    15     9    10   ar
    16    10    11   ar
    17    11    12   ar
    18    12    13    1
    19    15    16    1
    20    16    17    2
    21    16    18    2
    22    16    19    1
    23    19    20   ar
    24    20    21   ar
    25    21    22   ar
    26    22    23    1
    27    22    24   ar
    28    24    25   ar
    29    13     1    1
    30    25    19   ar
    31    12     4   ar
    32    11     6   ar
@<TRIPOS>MOLECULE
*****
 29 32 0 0 0
SMALL
GASTEIGER

@<TRIPOS>ATOM
      1 C           0.5677    2.2930   19.9965 C.3     1  UNL1        0.0858
      2 C           0.7821    1.7295   18.6229 C.3     1  UNL1        0.0228
      3 C           1.6360    0.5104   18.4374 C.3     1  UNL1        0.0287
      4 C           2.2755   -0.1453   19.6253 C.ar    1  UNL1       -0.0123
      5 C           3.1617   -1.3490   19.7512 C.ar    1  UNL1       -0.0034
      6 C           3.4950   -1.5294   21.2026 C.ar    1  UNL1        0.0598
      7 C           4.3301   -2.5470   21.9216 C.ar    1  UNL1        0.0172
      8 C           4.4849   -2.4725   23.4117 C.ar    1  UNL1        0.0030
      9 C           3.8047   -1.3804   24.1827 C.ar    1  UNL1        0.0190
     10 C           2.9696   -0.3627   23.4637 C.ar    1  UNL1        0.0798
     11 N           2.8148   -0.4372   21.9736 N.ar    1  UNL1       -0.3092
     12 C           2.0611    0.4181   20.9988 C.ar    1  UNL1        0.0385
     13 C           1.2072    1.6373   21.1844 C.3     1  UNL1        0.0615
     14 C          -0.0658    4.7205   19.3210 C.3     1  UNL1        0.1149
     15 N          -0.2862    3.5123   20.1821 N.3     1  UNL1       -0.1550
     16 S          -1.3605    3.5231   21.2289 S.O2    1  UNL1        0.0633
     17 O          -2.1308    2.4991   20.4491 O.2     1  UNL1       -0.1528
     18 O          -0.5903    4.5471   22.0087 O.2     1  UNL1       -0.1528
     19 C          -2.4348    3.5339   22.2757 C.ar    1  UNL1        0.1223
     20 C          -2.0686    3.6606   23.7249 C.ar    1  UNL1        0.0222
     21 C          -3.1429    3.6715   24.7717 C.ar    1  UNL1        0.0310
     22 C          -4.5833    3.5557   24.3693 C.ar    1  UNL1        0.1402
     23 F          -5.6576    3.5666   25.4162 F       1  UNL1       -0.2042
     24 C          -4.9494    3.4290   22.9202 C.ar    1  UNL1        0.0310
     25 C          -3.8752    3.4181   21.8735 C.ar    1  UNL1        0.0222
     26 C           3.6321   -2.2194   18.6238 C.3     1  UNL1        0.0691
     27 C           4.5122   -1.6479   17.5519 C.2     1  UNL1        0.0548
     28 O           3.9005   -1.0296   16.3297 O.co2   1  UNL1       -0.5488
     29 O           6.0039   -1.6947   17.7022 O.co2   1  UNL1       -0.5488
@<TRIPOS>UNITY_ATOM_ATTR
28 1
charge -1
@<TRIPOS>BOND
     1    14    15    1
     2     1    15    1
     3     1     2    1
     4     2     3    1
     5     3     4    1
     6     4     5   ar
     7     5    26    1
     8    26    27    1
     9    27    28   ar
    10    27    29   ar
    11     5     6   ar
    12     6     7   ar
    13     7     8   ar
    14     8     9   ar
    15     9    10   ar
    16    10    11   ar
    17    11    12   ar
    18    12    13    1
    19    15    16    1
    20    16    17    2
    21    16    18    2
    22    16    19    1
    23    19    20   ar
    24    20    21   ar
    25    21    22   ar
    26    22    23    1
    27    22    24   ar
    28    24    25   ar
    29    13     1    1
    30    25    19   ar
    31    12     4   ar
    32    11     6   ar
@<TRIPOS>MOLECULE
*****
 29 32 0 0 0
SMALL
GASTEIGER

@<TRIPOS>ATOM
      1 C           0.7143    2.3352   20.0529 C.3     1  UNL1        0.0858
      2 C           0.8934    1.7763   18.6725 C.3     1  UNL1        0.0228
      3 C           1.7088    0.5343   18.4663 C.3     1  UNL1        0.0287
      4 C           2.3451   -0.1487   19.6404 C.ar    1  UNL1       -0.0123
      5 C           3.1976   -1.3784   19.7453 C.ar    1  UNL1       -0.0034
      6 C           3.5454   -1.5795   21.1905 C.ar    1  UNL1        0.0598
      7 C           4.3602   -2.6264   21.8904 C.ar    1  UNL1        0.0172
      8 C           4.5375   -2.5679   23.3787 C.ar    1  UNL1        0.0030
      9 C           3.9000   -1.4624   24.1671 C.ar    1  UNL1        0.0190
     10 C           3.0851   -0.4155   23.4671 C.ar    1  UNL1        0.0798
     11 N           2.9078   -0.4741   21.9788 N.ar    1  UNL1       -0.3092
     12 C           2.1660    0.4102   21.0208 C.ar    1  UNL1        0.0385
     13 C           1.3506    1.6522   21.2271 C.3     1  UNL1        0.0615
     14 C           0.5446    4.8164   20.8047 C.3     1  UNL1        0.1149
     15 N          -0.1012    3.5773   20.2593 N.3     1  UNL1       -0.1550
     16 S          -1.5623    3.5800   19.9202 S.O2    1  UNL1        0.0633
     17 O          -1.8188    2.5895   21.0170 O.2     1  UNL1       -0.1528
     18 O          -1.3059    4.5705   18.8233 O.2     1  UNL1       -0.1528
     19 C          -3.0235    3.5827   19.5810 C.ar    1  UNL1        0.1223
     20 C          -3.4664    3.8555   18.1740 C.ar    1  UNL1        0.0222
     21 C          -4.9275    3.8583   17.8349 C.ar    1  UNL1        0.0310
     22 C          -5.9458    3.5882   18.9027 C.ar    1  UNL1        0.1402
     23 F          -7.4069    3.5910   18.5636 F       1  UNL1       -0.2042
     24 C          -5.5029    3.3154   20.3096 C.ar    1  UNL1        0.0310
     25 C          -4.0418    3.3126   20.6488 C.ar    1  UNL1        0.0222
     26 C           3.6269   -2.2535   18.6051 C.3     1  UNL1        0.0691
     27 C           4.5323   -1.7080   17.5406 C.2     1  UNL1        0.0548
     28 O           3.9500   -1.0301   16.3359 O.co2   1  UNL1       -0.5488
     29 O           6.0198   -1.8405   17.6809 O.co2   1  UNL1       -0.5488
@<TRIPOS>UNITY_ATOM_ATTR
28 1
charge -1
@<TRIPOS>BOND
     1    14    15    1
     2     1    15    1
     3     1     2    1
     4     2     3    1
     5     3     4    1
     6     4     5   ar
     7     5    26    1
     8    26    27    1
     9    27    28   ar
    10    27    29   ar
    11     5     6   ar
    12     6     7   ar
    13     7     8   ar
    14     8     9   ar
    15     9    10   ar
    16    10    11   ar
    17    11    12   ar
    18    12    13    1
    19    15    16    1
    20    16    17    2
    21    16    18    2
    22    16    19    1
    23    19    20   ar
    24    20    21   ar
    25    21    22   ar
    26    22    23    1
    27    22    24   ar
    28    24    25   ar
    29    13     1    1
    30    25    19   ar
    31    12     4   ar
    32    11     6   ar
@<TRIPOS>MOLECULE
*****
 29 32 0 0 0
SMALL
GASTEIGER

@<TRIPOS>ATOM
      1 C          -7.2770  -16.1244   24.2009 C.3     1  UNL1        0.0858
      2 C          -8.1478  -16.7595   25.2442 C.3     1  UNL1        0.0228
      3 C          -9.5878  -17.0514   24.9428 C.3     1  UNL1        0.0287
      4 C         -10.1572  -16.7084   23.5981 C.ar    1  UNL1       -0.0123
      5 C         -11.5296  -16.8765   23.0167 C.ar    1  UNL1       -0.0034
      6 C         -11.5071  -16.3454   21.6140 C.ar    1  UNL1        0.0598
      7 C         -12.5698  -16.2497   20.5598 C.ar    1  UNL1        0.0172
      8 C         -12.2462  -15.6575   19.2202 C.ar    1  UNL1        0.0030
      9 C         -10.8598  -15.1611   18.9348 C.ar    1  UNL1        0.0190
     10 C          -9.7970  -15.2568   19.9890 C.ar    1  UNL1        0.0798
     11 N         -10.1207  -15.8490   21.3286 N.ar    1  UNL1       -0.3092
     12 C          -9.2864  -16.0733   22.5548 C.ar    1  UNL1        0.0385
     13 C          -7.8463  -15.7813   22.8562 C.3     1  UNL1        0.0615
     14 C          -5.4746  -14.9935   25.6918 C.3     1  UNL1        0.1149
     15 N          -5.8368  -15.8324   24.5023 N.3     1  UNL1       -0.1550
     16 S          -4.7589  -16.3795   23.6141 S.O2    1  UNL1        0.0633
     17 O          -4.9943  -17.7513   24.1731 O.2     1  UNL1       -0.1528
     18 O          -4.5236  -15.0076   23.0549 O.2     1  UNL1       -0.1528
     19 C          -3.6811  -16.9264   22.7258 C.ar    1  UNL1        0.1223
     20 C          -3.5672  -18.4063   22.5086 C.ar    1  UNL1        0.0222
     21 C          -2.4893  -18.9533   21.6203 C.ar    1  UNL1        0.0310
     22 C          -1.5254  -18.0203   20.9492 C.ar    1  UNL1        0.1402
     23 F          -0.4475  -18.5672   20.0610 F       1  UNL1       -0.2042
     24 C          -1.6392  -16.5405   21.1664 C.ar    1  UNL1        0.0310
     25 C          -2.7170  -15.9936   22.0546 C.ar    1  UNL1        0.0222
     26 C         -12.7163  -17.4714   23.7152 C.3     1  UNL1        0.0691
     27 C         -12.5521  -18.7027   24.5561 C.2     1  UNL1        0.0548
     28 O         -13.5033  -18.9729   25.6841 O.co2   1  UNL1       -0.5488
     29 O         -11.4369  -19.6638   24.2689 O.co2   1  UNL1       -0.5488
@<TRIPOS>UNITY_ATOM_ATTR
28 1
charge -1
@<TRIPOS>BOND
     1    14    15    1
     2     1    15    1
     3     1     2    1
     4     2     3    1
     5     3     4    1
     6     4     5   ar
     7     5    26    1
     8    26    27    1
     9    27    28   ar
    10    27    29   ar
    11     5     6   ar
    12     6     7   ar
    13     7     8   ar
    14     8     9   ar
    15     9    10   ar
    16    10    11   ar
    17    11    12   ar
    18    12    13    1
    19    15    16    1
    20    16    17    2
    21    16    18    2
    22    16    19    1
    23    19    20   ar
    24    20    21   ar
    25    21    22   ar
    26    22    23    1
    27    22    24   ar
    28    24    25   ar
    29    13     1    1
    30    25    19   ar
    31    12     4   ar
    32    11     6   ar
@<TRIPOS>MOLECULE
*****
 29 32 0 0 0
SMALL
GASTEIGER

@<TRIPOS>ATOM
      1 C           1.5521    1.7222   20.2400 C.3     1  UNL1        0.0858
      2 C           0.7061    0.4850   20.3013 C.3     1  UNL1        0.0228
      3 C           1.3175   -0.8562   20.0233 C.3     1  UNL1        0.0287
      4 C           2.7750   -0.9602   19.6841 C.ar    1  UNL1       -0.0123
      5 C           3.6496   -2.1361   19.3642 C.ar    1  UNL1       -0.0034
      6 C           5.0361   -1.6257   19.1052 C.ar    1  UNL1        0.0598
      7 C           6.3124   -2.3262   18.7444 C.ar    1  UNL1        0.0172
      8 C           7.5711   -1.5354   18.5435 C.ar    1  UNL1        0.0030
      9 C           7.5534   -0.0440   18.7034 C.ar    1  UNL1        0.0190
     10 C           6.2771    0.6565   19.0642 C.ar    1  UNL1        0.0798
     11 N           5.0184   -0.1343   19.2651 N.ar    1  UNL1       -0.3092
     12 C           3.6210    0.2769   19.6229 C.ar    1  UNL1        0.0385
     13 C           3.0095    1.6181   19.9008 C.3     1  UNL1        0.0615
     14 C           1.7530    4.3109   20.3334 C.3     1  UNL1        0.1149
     15 N           0.9406    3.0635   20.5180 N.3     1  UNL1       -0.1550
     16 S          -0.4832    3.1572   20.9805 S.O2    1  UNL1        0.0633
     17 O          -0.0340    2.9777   22.4002 O.2     1  UNL1       -0.1528
     18 O          -0.9325    3.3368   19.5606 O.2     1  UNL1       -0.1528
     19 C          -1.9071    3.2509   21.4429 C.ar    1  UNL1        0.1223
     20 C          -3.0271    3.1190   20.4537 C.ar    1  UNL1        0.0222
     21 C          -4.4510    3.2128   20.9161 C.ar    1  UNL1        0.0310
     22 C          -4.7548    3.4384   22.3676 C.ar    1  UNL1        0.1402
     23 F          -6.1787    3.5321   22.8300 F       1  UNL1       -0.2042
     24 C          -3.6348    3.5703   23.3567 C.ar    1  UNL1        0.0310
     25 C          -2.2110    3.4766   22.8943 C.ar    1  UNL1        0.0222
     26 C           3.2142   -3.5705   19.3123 C.3     1  UNL1        0.0691
     27 C           4.0731   -4.6376   19.9238 C.2     1  UNL1        0.0548
     28 O           4.6611   -5.7136   19.0598 O.co2   1  UNL1       -0.5488
     29 O           4.3438   -4.6287   21.3991 O.co2   1  UNL1       -0.5488
@<TRIPOS>UNITY_ATOM_ATTR
28 1
charge -1
@<TRIPOS>BOND
     1    14    15    1
     2     1    15    1
     3     1     2    1
     4     2     3    1
     5     3     4    1
     6     4     5   ar
     7     5    26    1
     8    26    27    1
     9    27    28   ar
    10    27    29   ar
    11     5     6   ar
    12     6     7   ar
    13     7     8   ar
    14     8     9   ar
    15     9    10   ar
    16    10    11   ar
    17    11    12   ar
    18    12    13    1
    19    15    16    1
    20    16    17    2
    21    16    18    2
    22    16    19    1
    23    19    20   ar
    24    20    21   ar
    25    21    22   ar
    26    22    23    1
    27    22    24   ar
    28    24    25   ar
    29    13     1    1
    30    25    19   ar
    31    12     4   ar
    32    11     6   ar
@<TRIPOS>MOLECULE
*****
 29 32 0 0 0
SMALL
GASTEIGER

@<TRIPOS>ATOM
      1 C           0.5221    1.9175   19.9112 C.3     1  UNL1        0.0858
      2 C           0.1455    0.5509   20.4016 C.3     1  UNL1        0.0228
      3 C           1.0881   -0.6002   20.2115 C.3     1  UNL1        0.0287
      4 C           2.4074   -0.3848   19.5310 C.ar    1  UNL1       -0.0123
      5 C           3.5331   -1.3208   19.2044 C.ar    1  UNL1       -0.0034
      6 C           4.6054   -0.5328   18.5122 C.ar    1  UNL1        0.0598
      7 C           5.9435   -0.9272   17.9610 C.ar    1  UNL1        0.0172
      8 C           6.8186    0.1015   17.3085 C.ar    1  UNL1        0.0030
      9 C           6.3557    1.5247   17.2073 C.ar    1  UNL1        0.0190
     10 C           5.0176    1.9191   17.7584 C.ar    1  UNL1        0.0798
     11 N           4.1424    0.8904   18.4109 N.ar    1  UNL1       -0.3092
     12 C           2.7840    0.9818   19.0405 C.ar    1  UNL1        0.0385
     13 C           1.8413    2.1330   19.2307 C.3     1  UNL1        0.0615
     14 C          -0.6011    4.0790   19.0073 C.3     1  UNL1        0.1149
     15 N          -0.4206    3.0688   20.1013 N.3     1  UNL1       -0.1550
     16 S          -1.1828    3.2097   21.3855 S.O2    1  UNL1        0.0633
     17 O           0.0677    3.6641   22.0780 O.2     1  UNL1       -0.1528
     18 O          -2.4334    2.7553   20.6930 O.2     1  UNL1       -0.1528
     19 C          -1.9451    3.3506   22.6697 C.ar    1  UNL1        0.1223
     20 C          -1.2202    3.2972   23.9819 C.ar    1  UNL1        0.0222
     21 C          -1.9825    3.4381   25.2661 C.ar    1  UNL1        0.0310
     22 C          -3.4696    3.6323   25.2380 C.ar    1  UNL1        0.1402
     23 F          -4.2319    3.7732   26.5222 F       1  UNL1       -0.2042
     24 C          -4.1944    3.6857   23.9259 C.ar    1  UNL1        0.0310
     25 C          -3.4322    3.5448   22.6418 C.ar    1  UNL1        0.0222
     26 C           3.5785   -2.7875   19.5155 C.3     1  UNL1        0.0691
     27 C           4.3493   -3.2784   20.7051 C.2     1  UNL1        0.0548
     28 O           5.1943   -2.3249   21.4968 O.co2   1  UNL1       -0.5488
     29 O           4.2751   -4.7228   21.1029 O.co2   1  UNL1       -0.5488
@<TRIPOS>UNITY_ATOM_ATTR
28 1
charge -1
@<TRIPOS>BOND
     1    14    15    1
     2     1    15    1
     3     1     2    1
     4     2     3    1
     5     3     4    1
     6     4     5   ar
     7     5    26    1
     8    26    27    1
     9    27    28   ar
    10    27    29   ar
    11     5     6   ar
    12     6     7   ar
    13     7     8   ar
    14     8     9   ar
    15     9    10   ar
    16    10    11   ar
    17    11    12   ar
    18    12    13    1
    19    15    16    1
    20    16    17    2
    21    16    18    2
    22    16    19    1
    23    19    20   ar
    24    20    21   ar
    25    21    22   ar
    26    22    23    1
    27    22    24   ar
    28    24    25   ar
    29    13     1    1
    30    25    19   ar
    31    12     4   ar
    32    11     6   ar
@<TRIPOS>MOLECULE
*****
 29 32 0 0 0
SMALL
GASTEIGER

@<TRIPOS>ATOM
      1 C           0.1065    2.5321   21.6076 C.3     1  UNL1        0.0858
      2 C           1.0845    2.1590   22.6820 C.3     1  UNL1        0.0228
      3 C           0.7039    2.3032   24.1257 C.3     1  UNL1        0.0287
      4 C          -0.6548    2.8205   24.4950 C.ar    1  UNL1       -0.0123
      5 C          -1.3076    3.0685   25.8226 C.ar    1  UNL1       -0.0034
      6 C          -2.6891    3.5948   25.5687 C.ar    1  UNL1        0.0598
      7 C          -3.7899    4.0136   26.4975 C.ar    1  UNL1        0.0172
      8 C          -5.0918    4.5098   25.9418 C.ar    1  UNL1        0.0030
      9 C          -5.2928    4.5872   24.4573 C.ar    1  UNL1        0.0190
     10 C          -4.1920    4.1683   23.5286 C.ar    1  UNL1        0.0798
     11 N          -2.8901    3.6722   24.0843 N.ar    1  UNL1       -0.3092
     12 C          -1.6328    3.1936   23.4207 C.ar    1  UNL1        0.0385
     13 C          -1.2522    3.0495   21.9770 C.3     1  UNL1        0.0615
     14 C          -0.0236    3.3703   19.1519 C.3     1  UNL1        0.1149
     15 N           0.4871    2.3880   20.1638 N.3     1  UNL1       -0.1550
     16 S           1.3784    1.2614   19.7322 S.O2    1  UNL1        0.0633
     17 O           2.4820    2.2394   19.4580 O.2     1  UNL1       -0.1528
     18 O           0.2747    0.2832   20.0064 O.2     1  UNL1       -0.1528
     19 C           2.2697    0.1347   19.3006 C.ar    1  UNL1        0.1223
     20 C           2.4080   -1.0849   20.1630 C.ar    1  UNL1        0.0222
     21 C           3.2992   -2.2115   19.7314 C.ar    1  UNL1        0.0310
     22 C           4.0521   -2.1186   18.4373 C.ar    1  UNL1        0.1402
     23 F           4.9434   -3.2453   18.0057 F       1  UNL1       -0.2042
     24 C           3.9138   -0.8992   17.5749 C.ar    1  UNL1        0.0310
     25 C           3.0226    0.2274   18.0065 C.ar    1  UNL1        0.0222
     26 C          -0.6877    2.8316   27.1678 C.3     1  UNL1        0.0691
     27 C          -0.4299    1.4309   27.6387 C.2     1  UNL1        0.0548
     28 O           0.8954    0.7815   27.3706 O.co2   1  UNL1       -0.5488
     29 O          -1.4974    0.6797   28.3778 O.co2   1  UNL1       -0.5488
@<TRIPOS>UNITY_ATOM_ATTR
28 1
charge -1
@<TRIPOS>BOND
     1    14    15    1
     2     1    15    1
     3     1     2    1
     4     2     3    1
     5     3     4    1
     6     4     5   ar
     7     5    26    1
     8    26    27    1
     9    27    28   ar
    10    27    29   ar
    11     5     6   ar
    12     6     7   ar
    13     7     8   ar
    14     8     9   ar
    15     9    10   ar
    16    10    11   ar
    17    11    12   ar
    18    12    13    1
    19    15    16    1
    20    16    17    2
    21    16    18    2
    22    16    19    1
    23    19    20   ar
    24    20    21   ar
    25    21    22   ar
    26    22    23    1
    27    22    24   ar
    28    24    25   ar
    29    13     1    1
    30    25    19   ar
    31    12     4   ar
    32    11     6   ar
