@<TRIPOS>MOLECULE
*****
 32 35 0 0 0
SMALL
GASTEIGER

@<TRIPOS>ATOM
      1 O          -8.4335  -20.8619   23.5346 O.2     1  UNL1       -0.2696
      2 C          -8.0911  -19.8607   22.4714 C.2     1  UNL1        0.2522
      3 N          -9.0344  -18.7339   22.1705 N.am    1  UNL1       -0.2939
      4 H          -8.8096  -18.0768   21.4726 H       1  UNL1        0.1502
      5 C          -6.8053  -19.9864   21.7090 C.ar    1  UNL1        0.0828
      6 C          -6.4595  -21.0750   20.7368 C.ar    1  UNL1        0.0115
      7 C          -5.0802  -20.8069   20.2119 C.ar    1  UNL1        0.0071
      8 C          -4.5734  -19.5525   20.8598 C.ar    1  UNL1        0.0296
      9 S          -5.6396  -19.0453   21.7851 S.2     1  UNL1       -0.0824
     10 C          -3.2355  -18.9168   20.6239 C.ar    1  UNL1        0.0061
     11 C          -2.3527  -18.5733   21.7870 C.ar    1  UNL1        0.0014
     12 C          -1.0148  -17.9376   21.5511 C.ar    1  UNL1        0.0114
     13 C          -0.5595  -17.6454   20.1520 C.ar    1  UNL1        0.0577
     14 CL          0.7786  -17.0097   19.9161 Cl      1  UNL1       -0.0822
     15 C          -1.4422  -17.9890   18.9889 C.ar    1  UNL1        0.0114
     16 C          -2.7802  -18.6246   19.2248 C.ar    1  UNL1        0.0014
     17 C         -10.3201  -18.6082   22.9328 C.3     1  UNL1        0.1569
     18 C         -10.2988  -18.5210   24.4301 C.2     1  UNL1        0.1927
     19 O         -11.1075  -19.4829   25.2490 O.2     1  UNL1       -0.2895
     20 C          -9.4687  -17.4718   25.1085 C.ar    1  UNL1        0.0386
     21 C          -9.1795  -17.5775   26.5765 C.ar    1  UNL1        0.0030
     22 C          -8.3494  -16.5283   27.2549 C.ar    1  UNL1        0.0024
     23 C          -7.8086  -15.3734   26.4652 C.ar    1  UNL1        0.0296
     24 C          -8.0978  -15.2676   24.9972 C.ar    1  UNL1        0.1402
     25 F          -7.5570  -14.1127   24.2075 F       1  UNL1       -0.2042
     26 C          -8.9278  -16.3168   24.3188 C.ar    1  UNL1        0.0325
     27 C         -11.6271  -18.5698   22.1978 C.3     1  UNL1        0.1350
     28 N         -11.8605  -17.5362   21.1362 N.ar    1  UNL1       -0.3057
     29 C         -11.0686  -17.3759   19.8724 C.ar    1  UNL1        0.0981
     30 C         -11.6454  -16.2219   19.1071 C.ar    1  UNL1        0.1193
     31 N         -12.7938  -15.6690   19.8979 N.ar    1  UNL1       -0.2223
     32 C         -12.9268  -16.4812   21.1520 C.ar    1  UNL1        0.1787
@<TRIPOS>BOND
     1     1     2    2
     2     2     3   am
     3     3    17    1
     4    17    27    1
     5    27    28    1
     6    28    29   ar
     7    29    30   ar
     8    30    31   ar
     9    31    32   ar
    10    17    18    1
    11    18    19    2
    12    18    20    1
    13    20    21   ar
    14    21    22   ar
    15    22    23   ar
    16    23    24   ar
    17    24    25    1
    18    24    26   ar
    19     2     5    1
    20     5     6   ar
    21     6     7   ar
    22     7     8   ar
    23     8    10    1
    24    10    11   ar
    25    11    12   ar
    26    12    13   ar
    27    13    14    1
    28    13    15   ar
    29    15    16   ar
    30     8     9   ar
    31    32    28   ar
    32    26    20   ar
    33     9     5   ar
    34    16    10   ar
    35     3     4    1
@<TRIPOS>MOLECULE
*****
 32 35 0 0 0
SMALL
GASTEIGER

@<TRIPOS>ATOM
      1 O          -8.8787  -20.7064   23.4717 O.2     1  UNL1       -0.2696
      2 C          -8.1115  -19.5140   22.9823 C.2     1  UNL1        0.2522
      3 N          -8.5403  -18.1321   23.3782 N.am    1  UNL1       -0.2939
      4 H          -8.0367  -17.3495   23.0570 H       1  UNL1        0.1502
      5 C          -6.9155  -19.7034   22.0970 C.ar    1  UNL1        0.0828
      6 C          -6.7646  -20.7471   21.0304 C.ar    1  UNL1        0.0115
      7 C          -5.4162  -20.5711   20.3971 C.ar    1  UNL1        0.0071
      8 C          -4.7338  -19.4186   21.0724 C.ar    1  UNL1        0.0296
      9 S          -5.6604  -18.8823   22.1231 S.2     1  UNL1       -0.0824
     10 C          -3.3652  -18.8944   20.7531 C.ar    1  UNL1        0.0061
     11 C          -2.9969  -18.5734   19.3349 C.ar    1  UNL1        0.0014
     12 C          -1.6283  -18.0492   19.0157 C.ar    1  UNL1        0.0114
     13 C          -0.6278  -17.8460   20.1147 C.ar    1  UNL1        0.0577
     14 CL          0.7410  -17.3218   19.7955 Cl      1  UNL1       -0.0822
     15 C          -0.9960  -18.1671   21.5329 C.ar    1  UNL1        0.0114
     16 C          -2.3647  -18.6913   21.8521 C.ar    1  UNL1        0.0014
     17 C          -9.7362  -17.9427   24.2635 C.3     1  UNL1        0.1569
     18 C         -11.1182  -18.0465   23.6895 C.2     1  UNL1        0.1927
     19 O         -12.2600  -18.4846   24.5580 O.2     1  UNL1       -0.2895
     20 C         -11.3583  -17.7121   22.2471 C.ar    1  UNL1        0.0386
     21 C         -11.9646  -16.3918   21.8741 C.ar    1  UNL1        0.0030
     22 C         -12.2046  -16.0576   20.4317 C.ar    1  UNL1        0.0024
     23 C         -11.8385  -17.0436   19.3623 C.ar    1  UNL1        0.0296
     24 C         -11.2322  -18.3639   19.7352 C.ar    1  UNL1        0.1402
     25 F         -10.8660  -19.3499   18.6658 F       1  UNL1       -0.2042
     26 C         -10.9921  -18.6982   21.1776 C.ar    1  UNL1        0.0325
     27 C          -9.5503  -17.6494   25.7228 C.3     1  UNL1        0.1350
     28 N          -8.4948  -16.6793   26.1642 N.ar    1  UNL1       -0.3057
     29 C          -7.6715  -15.8035   25.2670 C.ar    1  UNL1        0.0981
     30 C          -6.7452  -14.9975   26.1287 C.ar    1  UNL1        0.1193
     31 N          -6.9960  -15.3753   27.5585 N.ar    1  UNL1       -0.2223
     32 C          -8.0773  -16.4147   27.5806 C.ar    1  UNL1        0.1787
@<TRIPOS>BOND
     1     1     2    2
     2     2     3   am
     3     3    17    1
     4    17    27    1
     5    27    28    1
     6    28    29   ar
     7    29    30   ar
     8    30    31   ar
     9    31    32   ar
    10    17    18    1
    11    18    19    2
    12    18    20    1
    13    20    21   ar
    14    21    22   ar
    15    22    23   ar
    16    23    24   ar
    17    24    25    1
    18    24    26   ar
    19     2     5    1
    20     5     6   ar
    21     6     7   ar
    22     7     8   ar
    23     8    10    1
    24    10    11   ar
    25    11    12   ar
    26    12    13   ar
    27    13    14    1
    28    13    15   ar
    29    15    16   ar
    30     8     9   ar
    31    32    28   ar
    32    26    20   ar
    33     9     5   ar
    34    16    10   ar
    35     3     4    1
@<TRIPOS>MOLECULE
*****
 32 35 0 0 0
SMALL
GASTEIGER

@<TRIPOS>ATOM
      1 O          -8.4880  -20.3594   23.0967 O.2     1  UNL1       -0.2696
      2 C          -7.8422  -19.3001   22.2535 C.2     1  UNL1        0.2522
      3 N          -8.5015  -17.9621   22.0951 N.am    1  UNL1       -0.2939
      4 H          -8.0776  -17.2669   21.5417 H       1  UNL1        0.1502
      5 C          -6.5370  -19.5789   21.5687 C.ar    1  UNL1        0.0828
      6 C          -6.2111  -20.7951   20.7536 C.ar    1  UNL1        0.0115
      7 C          -4.8013  -20.6582   20.2600 C.ar    1  UNL1        0.0071
      8 C          -4.2559  -19.3573   20.7699 C.ar    1  UNL1        0.0296
      9 S          -5.3286  -18.6901   21.5788 S.2     1  UNL1       -0.0824
     10 C          -2.8794  -18.8181   20.5157 C.ar    1  UNL1        0.0061
     11 C          -1.9018  -18.6942   21.6466 C.ar    1  UNL1        0.0014
     12 C          -0.5253  -18.1550   21.3924 C.ar    1  UNL1        0.0114
     13 C          -0.1266  -17.7397   20.0073 C.ar    1  UNL1        0.0577
     14 CL          1.2500  -17.2004   19.7530 Cl      1  UNL1       -0.0822
     15 C          -1.1042  -17.8636   18.8764 C.ar    1  UNL1        0.0114
     16 C          -2.4807  -18.4028   19.1306 C.ar    1  UNL1        0.0014
     17 C          -9.8066  -17.6834   22.7799 C.3     1  UNL1        0.1569
     18 C          -9.9326  -16.5092   23.7048 C.2     1  UNL1        0.1927
     19 O         -11.0797  -15.5547   23.5531 O.2     1  UNL1       -0.2895
     20 C          -8.9114  -16.2896   24.7814 C.ar    1  UNL1        0.0386
     21 C          -9.1914  -16.7414   26.1841 C.ar    1  UNL1        0.0030
     22 C          -8.1702  -16.5217   27.2606 C.ar    1  UNL1        0.0024
     23 C          -6.8691  -15.8503   26.9345 C.ar    1  UNL1        0.0296
     24 C          -6.5892  -15.3985   25.5318 C.ar    1  UNL1        0.1402
     25 F          -5.2881  -14.7270   25.2057 F       1  UNL1       -0.2042
     26 C          -7.6104  -15.6181   24.4553 C.ar    1  UNL1        0.0325
     27 C         -10.9859  -18.5789   22.5398 C.3     1  UNL1        0.1350
     28 N         -12.1846  -18.4974   23.4377 N.ar    1  UNL1       -0.3057
     29 C         -13.5371  -17.9719   23.0575 C.ar    1  UNL1        0.0981
     30 C         -14.4297  -18.0769   24.2584 C.ar    1  UNL1        0.1193
     31 N         -13.6289  -18.6674   25.3809 N.ar    1  UNL1       -0.2223
     32 C         -12.2413  -18.9273   24.8738 C.ar    1  UNL1        0.1787
@<TRIPOS>BOND
     1     1     2    2
     2     2     3   am
     3     3    17    1
     4    17    27    1
     5    27    28    1
     6    28    29   ar
     7    29    30   ar
     8    30    31   ar
     9    31    32   ar
    10    17    18    1
    11    18    19    2
    12    18    20    1
    13    20    21   ar
    14    21    22   ar
    15    22    23   ar
    16    23    24   ar
    17    24    25    1
    18    24    26   ar
    19     2     5    1
    20     5     6   ar
    21     6     7   ar
    22     7     8   ar
    23     8    10    1
    24    10    11   ar
    25    11    12   ar
    26    12    13   ar
    27    13    14    1
    28    13    15   ar
    29    15    16   ar
    30     8     9   ar
    31    32    28   ar
    32    26    20   ar
    33     9     5   ar
    34    16    10   ar
    35     3     4    1
@<TRIPOS>MOLECULE
*****
 32 35 0 0 0
SMALL
GASTEIGER

@<TRIPOS>ATOM
      1 O          -5.6548  -18.5031   19.7161 O.2     1  UNL1       -0.2696
      2 C          -6.3407  -18.8398   21.0068 C.2     1  UNL1        0.2522
      3 N          -5.5345  -19.0276   22.2578 N.am    1  UNL1       -0.2939
      4 H          -5.9847  -19.2486   23.1050 H       1  UNL1        0.1502
      5 C          -7.8327  -18.9887   21.0467 C.ar    1  UNL1        0.0828
      6 C          -8.6972  -19.5066   19.9356 C.ar    1  UNL1        0.0115
      7 C         -10.1210  -19.4838   20.4069 C.ar    1  UNL1        0.0071
      8 C         -10.1366  -18.9517   21.8093 C.ar    1  UNL1        0.0296
      9 S          -8.7224  -18.6457   22.2048 S.2     1  UNL1       -0.0824
     10 C         -11.3529  -18.7594   22.6659 C.ar    1  UNL1        0.0061
     11 C         -11.3175  -19.1428   24.1156 C.ar    1  UNL1        0.0014
     12 C         -12.5337  -18.9505   24.9722 C.ar    1  UNL1        0.0114
     13 C         -13.7854  -18.3748   24.3791 C.ar    1  UNL1        0.0577
     14 CL        -15.0017  -18.1824   25.2356 Cl      1  UNL1       -0.0822
     15 C         -13.8208  -17.9914   22.9293 C.ar    1  UNL1        0.0114
     16 C         -12.6045  -18.1837   22.0727 C.ar    1  UNL1        0.0014
     17 C          -4.0425  -18.8788   22.2179 C.3     1  UNL1        0.1569
     18 C          -3.3563  -17.9438   23.1692 C.2     1  UNL1        0.1927
     19 O          -1.8611  -17.8253   23.1569 O.2     1  UNL1       -0.2895
     20 C          -4.1654  -17.1272   24.1329 C.ar    1  UNL1        0.0386
     21 C          -3.9276  -17.2551   25.6084 C.ar    1  UNL1        0.0030
     22 C          -4.7367  -16.4386   26.5720 C.ar    1  UNL1        0.0024
     23 C          -5.7837  -15.4942   26.0601 C.ar    1  UNL1        0.0296
     24 C          -6.0215  -15.3663   24.5847 C.ar    1  UNL1        0.1402
     25 F          -7.0684  -14.4219   24.0728 F       1  UNL1       -0.2042
     26 C          -5.2124  -16.1828   23.6211 C.ar    1  UNL1        0.0325
     27 C          -3.2365  -19.6650   21.2267 C.3     1  UNL1        0.1350
     28 N          -2.3646  -18.9525   20.2357 N.ar    1  UNL1       -0.3057
     29 C          -2.8378  -18.1791   19.0408 C.ar    1  UNL1        0.0981
     30 C          -1.6320  -17.6370   18.3321 C.ar    1  UNL1        0.1193
     31 N          -0.4135  -18.0755   19.0890 N.ar    1  UNL1       -0.2223
     32 C          -0.8662  -18.8885   20.2655 C.ar    1  UNL1        0.1787
@<TRIPOS>BOND
     1     1     2    2
     2     2     3   am
     3     3    17    1
     4    17    27    1
     5    27    28    1
     6    28    29   ar
     7    29    30   ar
     8    30    31   ar
     9    31    32   ar
    10    17    18    1
    11    18    19    2
    12    18    20    1
    13    20    21   ar
    14    21    22   ar
    15    22    23   ar
    16    23    24   ar
    17    24    25    1
    18    24    26   ar
    19     2     5    1
    20     5     6   ar
    21     6     7   ar
    22     7     8   ar
    23     8    10    1
    24    10    11   ar
    25    11    12   ar
    26    12    13   ar
    27    13    14    1
    28    13    15   ar
    29    15    16   ar
    30     8     9   ar
    31    32    28   ar
    32    26    20   ar
    33     9     5   ar
    34    16    10   ar
    35     3     4    1
@<TRIPOS>MOLECULE
*****
 32 35 0 0 0
SMALL
GASTEIGER

@<TRIPOS>ATOM
      1 O         -13.7541   -5.5335   20.3580 O.2     1  UNL1       -0.2696
      2 C         -14.7722   -5.1706   19.3181 C.2     1  UNL1        0.2522
      3 N         -14.9652   -6.0499   18.1182 N.am    1  UNL1       -0.2939
      4 H         -15.6334   -5.8117   17.4356 H       1  UNL1        0.1502
      5 C         -15.5976   -3.9283   19.4779 C.ar    1  UNL1        0.0828
      6 C         -17.0935   -3.8695   19.5714 C.ar    1  UNL1        0.0115
      7 C         -17.4924   -2.4316   19.7236 C.ar    1  UNL1        0.0071
      8 C         -16.2429   -1.6016   19.7241 C.ar    1  UNL1        0.0296
      9 S         -15.0718   -2.5265   19.5723 S.2     1  UNL1       -0.0824
     10 C         -16.1762   -0.1087   19.8538 C.ar    1  UNL1        0.0061
     11 C         -17.0487    0.5975   20.8488 C.ar    1  UNL1        0.0014
     12 C         -16.9819    2.0904   20.9785 C.ar    1  UNL1        0.0114
     13 C         -16.0428    2.8771   20.1130 C.ar    1  UNL1        0.0577
     14 CL        -15.9760    4.3701   20.2426 Cl      1  UNL1       -0.0822
     15 C         -15.1703    2.1709   19.1179 C.ar    1  UNL1        0.0114
     16 C         -15.2370    0.6780   18.9883 C.ar    1  UNL1        0.0014
     17 C         -14.1398   -7.2922   17.9584 C.3     1  UNL1        0.1569
     18 C         -12.8306   -7.2341   17.2286 C.2     1  UNL1        0.1927
     19 O         -12.6257   -8.0539   15.9893 O.2     1  UNL1       -0.2895
     20 C         -11.7262   -6.3562   17.7383 C.ar    1  UNL1        0.0386
     21 C         -11.6478   -4.9222   17.3055 C.ar    1  UNL1        0.0030
     22 C         -10.5435   -4.0443   17.8151 C.ar    1  UNL1        0.0024
     23 C          -9.5175   -4.6005   18.7575 C.ar    1  UNL1        0.0296
     24 C          -9.5959   -6.0345   19.1902 C.ar    1  UNL1        0.1402
     25 F          -8.5700   -6.5907   20.1326 F       1  UNL1       -0.2042
     26 C         -10.7003   -6.9124   18.6806 C.ar    1  UNL1        0.0325
     27 C         -14.6238   -8.5927   18.5283 C.3     1  UNL1        0.1350
     28 N         -16.0930   -8.8280   18.7177 N.ar    1  UNL1       -0.3057
     29 C         -17.1269   -8.8671   17.6316 C.ar    1  UNL1        0.0981
     30 C         -18.4593   -9.1288   18.2691 C.ar    1  UNL1        0.1193
     31 N         -18.2489   -9.2514   19.7492 N.ar    1  UNL1       -0.2223
     32 C         -16.7864   -9.0655   20.0265 C.ar    1  UNL1        0.1787
@<TRIPOS>BOND
     1     1     2    2
     2     2     3   am
     3     3    17    1
     4    17    27    1
     5    27    28    1
     6    28    29   ar
     7    29    30   ar
     8    30    31   ar
     9    31    32   ar
    10    17    18    1
    11    18    19    2
    12    18    20    1
    13    20    21   ar
    14    21    22   ar
    15    22    23   ar
    16    23    24   ar
    17    24    25    1
    18    24    26   ar
    19     2     5    1
    20     5     6   ar
    21     6     7   ar
    22     7     8   ar
    23     8    10    1
    24    10    11   ar
    25    11    12   ar
    26    12    13   ar
    27    13    14    1
    28    13    15   ar
    29    15    16   ar
    30     8     9   ar
    31    32    28   ar
    32    26    20   ar
    33     9     5   ar
    34    16    10   ar
    35     3     4    1
@<TRIPOS>MOLECULE
*****
 32 35 0 0 0
SMALL
GASTEIGER

@<TRIPOS>ATOM
      1 O         -13.2581   -3.2607   20.6879 O.2     1  UNL1       -0.2696
      2 C         -13.9563   -3.5422   19.3905 C.2     1  UNL1        0.2522
      3 N         -13.2989   -3.1816   18.0914 N.am    1  UNL1       -0.2939
      4 H         -13.7571   -3.3664   17.2398 H       1  UNL1        0.1502
      5 C         -15.3119   -4.1844   19.3922 C.ar    1  UNL1        0.0828
      6 C         -16.5943   -3.5356   19.8217 C.ar    1  UNL1        0.0115
      7 C         -17.6981   -4.5383   19.6596 C.ar    1  UNL1        0.0071
      8 C         -17.0978   -5.8068   19.1300 C.ar    1  UNL1        0.0296
      9 S         -15.6231   -5.5882   18.9647 S.2     1  UNL1       -0.0824
     10 C         -17.8417   -7.0720   18.8201 C.ar    1  UNL1        0.0061
     11 C         -17.9208   -7.5685   17.4068 C.ar    1  UNL1        0.0014
     12 C         -18.6647   -8.8336   17.0968 C.ar    1  UNL1        0.0114
     13 C         -19.3294   -9.6023   18.2001 C.ar    1  UNL1        0.0577
     14 CL        -20.0733  -10.8675   17.8902 Cl      1  UNL1       -0.0822
     15 C         -19.2502   -9.1058   19.6134 C.ar    1  UNL1        0.0114
     16 C         -18.5064   -7.8407   19.9234 C.ar    1  UNL1        0.0014
     17 C         -11.9433   -2.5394   18.0897 C.3     1  UNL1        0.1569
     18 C         -10.7795   -3.2459   17.4601 C.2     1  UNL1        0.1927
     19 O          -9.8824   -2.5121   16.5079 O.2     1  UNL1       -0.2895
     20 C         -10.5127   -4.6864   17.7828 C.ar    1  UNL1        0.0386
     21 C          -9.7112   -5.0466   18.9984 C.ar    1  UNL1        0.0030
     22 C          -9.4445   -6.4870   19.3211 C.ar    1  UNL1        0.0024
     23 C          -9.9792   -7.5671   18.4281 C.ar    1  UNL1        0.0296
     24 C         -10.7807   -7.2068   17.2125 C.ar    1  UNL1        0.1402
     25 F         -11.3154   -8.2870   16.3195 F       1  UNL1       -0.2042
     26 C         -11.0474   -5.7665   16.8898 C.ar    1  UNL1        0.0325
     27 C         -11.7515   -1.1907   18.7176 C.3     1  UNL1        0.1350
     28 N         -12.3754    0.0225   18.0939 N.ar    1  UNL1       -0.3057
     29 C         -11.7476    0.8996   17.0516 C.ar    1  UNL1        0.0981
     30 C         -12.7208    1.9908   16.7165 C.ar    1  UNL1        0.1193
     31 N         -13.9501    1.7880   17.5518 N.ar    1  UNL1       -0.2223
     32 C         -13.7367    0.5715   18.4031 C.ar    1  UNL1        0.1787
@<TRIPOS>BOND
     1     1     2    2
     2     2     3   am
     3     3    17    1
     4    17    27    1
     5    27    28    1
     6    28    29   ar
     7    29    30   ar
     8    30    31   ar
     9    31    32   ar
    10    17    18    1
    11    18    19    2
    12    18    20    1
    13    20    21   ar
    14    21    22   ar
    15    22    23   ar
    16    23    24   ar
    17    24    25    1
    18    24    26   ar
    19     2     5    1
    20     5     6   ar
    21     6     7   ar
    22     7     8   ar
    23     8    10    1
    24    10    11   ar
    25    11    12   ar
    26    12    13   ar
    27    13    14    1
    28    13    15   ar
    29    15    16   ar
    30     8     9   ar
    31    32    28   ar
    32    26    20   ar
    33     9     5   ar
    34    16    10   ar
    35     3     4    1
@<TRIPOS>MOLECULE
*****
 32 35 0 0 0
SMALL
GASTEIGER

@<TRIPOS>ATOM
      1 O           6.8793   -2.2925   17.2328 O.2     1  UNL1       -0.2696
      2 C           6.9178   -1.8983   18.6795 C.2     1  UNL1        0.2522
      3 N           6.1774   -0.6795   19.1448 N.am    1  UNL1       -0.2939
      4 H           6.2026   -0.4207   20.0943 H       1  UNL1        0.1502
      5 C           7.6967   -2.7228   19.6611 C.ar    1  UNL1        0.0828
      6 C           9.1891   -2.8685   19.7018 C.ar    1  UNL1        0.0115
      7 C           9.5347   -3.7822   20.8402 C.ar    1  UNL1        0.0071
      8 C           8.2560   -4.2011   21.5030 C.ar    1  UNL1        0.0296
      9 S           7.1200   -3.5464   20.7743 S.2     1  UNL1       -0.0824
     10 C           8.1345   -5.1143   22.6867 C.ar    1  UNL1        0.0061
     11 C           8.7814   -6.4674   22.6596 C.ar    1  UNL1        0.0014
     12 C           8.6599   -7.3807   23.8433 C.ar    1  UNL1        0.0114
     13 C           7.8915   -6.9409   25.0541 C.ar    1  UNL1        0.0577
     14 CL          7.7700   -7.8541   26.2379 Cl      1  UNL1       -0.0822
     15 C           7.2446   -5.5878   25.0813 C.ar    1  UNL1        0.0114
     16 C           7.3661   -4.6745   23.8975 C.ar    1  UNL1        0.0014
     17 C           5.3984    0.1450   18.1632 C.3     1  UNL1        0.1569
     18 C           4.0518   -0.3206   17.6946 C.2     1  UNL1        0.1927
     19 O           3.9176   -1.0196   16.3742 O.2     1  UNL1       -0.2895
     20 C           2.8393   -0.0873   18.5463 C.ar    1  UNL1        0.0386
     21 C           2.5181   -1.0297   19.6681 C.ar    1  UNL1        0.0030
     22 C           1.3056   -0.7964   20.5198 C.ar    1  UNL1        0.0024
     23 C           0.4143    0.3795   20.2497 C.ar    1  UNL1        0.0296
     24 C           0.7355    1.3220   19.1278 C.ar    1  UNL1        0.1402
     25 F          -0.1558    2.4978   18.8577 F       1  UNL1       -0.2042
     26 C           1.9480    1.0886   18.2762 C.ar    1  UNL1        0.0325
     27 C           5.9662    1.4352   17.6503 C.3     1  UNL1        0.1350
     28 N           5.3820    2.7422   18.0979 N.ar    1  UNL1       -0.3057
     29 C           5.1481    3.9456   17.2336 C.ar    1  UNL1        0.0981
     30 C           4.5507    5.0225   18.0900 C.ar    1  UNL1        0.1193
     31 N           4.4154    4.4847   19.4837 N.ar    1  UNL1       -0.2223
     32 C           4.9292    3.0754   19.4887 C.ar    1  UNL1        0.1787
@<TRIPOS>BOND
     1     1     2    2
     2     2     3   am
     3     3    17    1
     4    17    27    1
     5    27    28    1
     6    28    29   ar
     7    29    30   ar
     8    30    31   ar
     9    31    32   ar
    10    17    18    1
    11    18    19    2
    12    18    20    1
    13    20    21   ar
    14    21    22   ar
    15    22    23   ar
    16    23    24   ar
    17    24    25    1
    18    24    26   ar
    19     2     5    1
    20     5     6   ar
    21     6     7   ar
    22     7     8   ar
    23     8    10    1
    24    10    11   ar
    25    11    12   ar
    26    12    13   ar
    27    13    14    1
    28    13    15   ar
    29    15    16   ar
    30     8     9   ar
    31    32    28   ar
    32    26    20   ar
    33     9     5   ar
    34    16    10   ar
    35     3     4    1
@<TRIPOS>MOLECULE
*****
 32 35 0 0 0
SMALL
GASTEIGER

@<TRIPOS>ATOM
      1 O           2.4382    2.4544   26.8220 O.2     1  UNL1       -0.2696
      2 C           1.9139    1.4389   25.8505 C.2     1  UNL1        0.2522
      3 N           0.4346    1.2504   25.6879 N.am    1  UNL1       -0.2939
      4 H           0.0905    0.5839   25.0502 H       1  UNL1        0.1502
      5 C           2.8687    0.6118   25.0417 C.ar    1  UNL1        0.0828
      6 C           4.3499    0.5126   25.2566 C.ar    1  UNL1        0.0115
      7 C           4.9067   -0.4218   24.2237 C.ar    1  UNL1        0.0071
      8 C           3.7696   -0.9000   23.3703 C.ar    1  UNL1        0.0296
      9 S           2.5100   -0.2612   23.8758 S.2     1  UNL1       -0.0824
     10 C           3.8736   -1.8502   22.2144 C.ar    1  UNL1        0.0061
     11 C           4.5441   -3.1799   22.3945 C.ar    1  UNL1        0.0014
     12 C           4.6482   -4.1301   21.2385 C.ar    1  UNL1        0.0114
     13 C           4.0818   -3.7507   19.9025 C.ar    1  UNL1        0.0577
     14 CL          4.1858   -4.7009   18.7464 Cl      1  UNL1       -0.0822
     15 C           3.4113   -2.4210   19.7223 C.ar    1  UNL1        0.0114
     16 C           3.3072   -1.4708   20.8783 C.ar    1  UNL1        0.0014
     17 C          -0.5202    2.0775   26.4967 C.3     1  UNL1        0.1569
     18 C          -1.0063    3.3942   25.9675 C.2     1  UNL1        0.1927
     19 O          -0.0312    4.5040   25.7074 O.2     1  UNL1       -0.2895
     20 C          -2.4674    3.6011   25.6984 C.ar    1  UNL1        0.0386
     21 C          -3.3385    4.2402   26.7389 C.ar    1  UNL1        0.0030
     22 C          -4.7996    4.4470   26.4697 C.ar    1  UNL1        0.0024
     23 C          -5.3895    4.0148   25.1601 C.ar    1  UNL1        0.0296
     24 C          -4.5184    3.3757   24.1196 C.ar    1  UNL1        0.1402
     25 F          -5.1083    2.9435   22.8099 F       1  UNL1       -0.2042
     26 C          -3.0573    3.1689   24.3887 C.ar    1  UNL1        0.0325
     27 C          -0.9890    1.5878   27.8348 C.3     1  UNL1        0.1350
     28 N           0.0105    1.1895   28.8800 N.ar    1  UNL1       -0.3057
     29 C           0.5915    2.0871   29.9319 C.ar    1  UNL1        0.0981
     30 C           1.5446    1.2759   30.7587 C.ar    1  UNL1        0.1193
     31 N           1.5526   -0.1231   30.2178 N.ar    1  UNL1       -0.2223
     32 C           0.6045   -0.1766   29.0566 C.ar    1  UNL1        0.1787
@<TRIPOS>BOND
     1     1     2    2
     2     2     3   am
     3     3    17    1
     4    17    27    1
     5    27    28    1
     6    28    29   ar
     7    29    30   ar
     8    30    31   ar
     9    31    32   ar
    10    17    18    1
    11    18    19    2
    12    18    20    1
    13    20    21   ar
    14    21    22   ar
    15    22    23   ar
    16    23    24   ar
    17    24    25    1
    18    24    26   ar
    19     2     5    1
    20     5     6   ar
    21     6     7   ar
    22     7     8   ar
    23     8    10    1
    24    10    11   ar
    25    11    12   ar
    26    12    13   ar
    27    13    14    1
    28    13    15   ar
    29    15    16   ar
    30     8     9   ar
    31    32    28   ar
    32    26    20   ar
    33     9     5   ar
    34    16    10   ar
    35     3     4    1
@<TRIPOS>MOLECULE
*****
 32 35 0 0 0
SMALL
GASTEIGER

@<TRIPOS>ATOM
      1 O          -1.9218    4.5448   18.7974 O.2     1  UNL1       -0.2696
      2 C          -1.3010    3.4863   19.6601 C.2     1  UNL1        0.2522
      3 N          -2.0082    3.0165   20.8967 N.am    1  UNL1       -0.2939
      4 H          -1.6008    2.3218   21.4630 H       1  UNL1        0.1502
      5 C           0.0271    2.8977   19.2863 C.ar    1  UNL1        0.0828
      6 C           1.2100    3.6545   18.7590 C.ar    1  UNL1        0.0115
      7 C           2.3194    2.6734   18.5209 C.ar    1  UNL1        0.0071
      8 C           1.8222    1.3102   18.9010 C.ar    1  UNL1        0.0296
      9 S           0.4054    1.4487   19.3740 S.2     1  UNL1       -0.0824
     10 C           2.6043    0.0327   18.8220 C.ar    1  UNL1        0.0061
     11 C           3.5570   -0.1944   17.6859 C.ar    1  UNL1        0.0014
     12 C           4.3392   -1.4719   17.6069 C.ar    1  UNL1        0.0114
     13 C           4.1685   -2.5223   18.6639 C.ar    1  UNL1        0.0577
     14 CL          4.9506   -3.7999   18.5850 Cl      1  UNL1       -0.0822
     15 C           3.2157   -2.2953   19.8000 C.ar    1  UNL1        0.0114
     16 C           2.4336   -1.0177   19.8791 C.ar    1  UNL1        0.0014
     17 C          -3.3363    3.6052   21.2706 C.3     1  UNL1        0.1569
     18 C          -3.3964    4.8625   22.0862 C.2     1  UNL1        0.1927
     19 O          -2.8132    6.1350   21.5470 O.2     1  UNL1       -0.2895
     20 C          -4.0398    4.8475   23.4412 C.ar    1  UNL1        0.0386
     21 C          -5.2978    5.6280   23.6829 C.ar    1  UNL1        0.0030
     22 C          -5.9411    5.6129   25.0378 C.ar    1  UNL1        0.0024
     23 C          -5.3265    4.8174   26.1511 C.ar    1  UNL1        0.0296
     24 C          -4.0686    4.0369   25.9094 C.ar    1  UNL1        0.1402
     25 F          -3.4540    3.2414   27.0227 F       1  UNL1       -0.2042
     26 C          -3.4252    4.0520   24.5545 C.ar    1  UNL1        0.0325
     27 C          -4.6042    2.9364   20.8287 C.3     1  UNL1        0.1350
     28 N          -5.5608    3.6619   19.9296 N.ar    1  UNL1       -0.3057
     29 C          -6.7018    4.5291   20.3724 C.ar    1  UNL1        0.0981
     30 C          -7.3906    5.0508   19.1462 C.ar    1  UNL1        0.1193
     31 N          -6.6753    4.5060   17.9456 N.ar    1  UNL1       -0.2223
     32 C          -5.5444    3.6476   18.4296 C.ar    1  UNL1        0.1787
@<TRIPOS>BOND
     1     1     2    2
     2     2     3   am
     3     3    17    1
     4    17    27    1
     5    27    28    1
     6    28    29   ar
     7    29    30   ar
     8    30    31   ar
     9    31    32   ar
    10    17    18    1
    11    18    19    2
    12    18    20    1
    13    20    21   ar
    14    21    22   ar
    15    22    23   ar
    16    23    24   ar
    17    24    25    1
    18    24    26   ar
    19     2     5    1
    20     5     6   ar
    21     6     7   ar
    22     7     8   ar
    23     8    10    1
    24    10    11   ar
    25    11    12   ar
    26    12    13   ar
    27    13    14    1
    28    13    15   ar
    29    15    16   ar
    30     8     9   ar
    31    32    28   ar
    32    26    20   ar
    33     9     5   ar
    34    16    10   ar
    35     3     4    1
