@<TRIPOS>MOLECULE
*****
 25 28 0 0 0
SMALL
GASTEIGER

@<TRIPOS>ATOM
      1 N          -7.8437  -17.7888   22.1815 N.pl3   1  UNL1       -0.2860
      2 C          -9.1758  -18.1724   21.6082 C.ar    1  UNL1        0.0576
      3 C          -9.2456  -19.0709   20.4091 C.ar    1  UNL1        0.0153
      4 C         -10.5775  -19.4545   19.8359 C.ar    1  UNL1        0.0013
      5 C         -11.8398  -18.9395   20.4617 C.ar    1  UNL1        0.0006
      6 C         -11.7700  -18.0410   21.6608 C.ar    1  UNL1        0.0077
      7 C         -10.4380  -17.6574   22.2340 C.ar    1  UNL1        0.0431
      8 S         -10.3681  -16.7589   23.4331 S.3     1  UNL1       -0.0844
      9 C          -9.0361  -16.3753   24.0063 C.ar    1  UNL1        0.0431
     10 C          -8.9663  -15.4768   25.2054 C.ar    1  UNL1        0.0086
     11 C          -7.6343  -15.0932   25.7787 C.ar    1  UNL1        0.0120
     12 C          -6.3721  -15.6082   25.1529 C.ar    1  UNL1        0.0589
     13 CL         -5.0401  -15.2247   25.7261 Cl      1  UNL1       -0.0822
     14 C          -6.4419  -16.5067   23.9538 C.ar    1  UNL1        0.0267
     15 C          -7.7739  -16.8903   23.3805 C.ar    1  UNL1        0.0585
     16 C          -6.5815  -18.3038   21.5557 C.3     1  UNL1        0.0970
     17 C          -6.1973  -19.7446   21.7185 C.3     1  UNL1        0.0391
     18 C          -5.1378  -20.3421   20.8407 C.3     1  UNL1        0.0739
     19 C           0.0765  -17.4786   20.0588 C.3     1  UNL1        0.0897
     20 N          -1.2271  -18.1945   20.2542 N.3     1  UNL1       -0.2691
     21 C          -1.6180  -18.6817   21.6180 C.3     1  UNL1        0.0897
     22 C          -2.9216  -19.3976   21.8135 C.3     1  UNL1        0.0897
     23 N          -3.8342  -19.6262   20.6453 N.3     1  UNL1       -0.2703
     24 C          -3.4433  -19.1389   19.2815 C.3     1  UNL1        0.0897
     25 C          -2.1397  -18.4231   19.0860 C.3     1  UNL1        0.0897
@<TRIPOS>BOND
     1    19    20    1
     2    20    21    1
     3    21    22    1
     4    22    23    1
     5    23    18    1
     6    18    17    1
     7    17    16    1
     8    16     1    1
     9     1     2    1
    10     2     3   ar
    11     3     4   ar
    12     4     5   ar
    13     5     6   ar
    14     6     7   ar
    15     7     8    1
    16     8     9    1
    17     9    10   ar
    18    10    11   ar
    19    11    12   ar
    20    12    13    1
    21    12    14   ar
    22    14    15   ar
    23    23    24    1
    24    24    25    1
    25    25    20    1
    26    15     1    1
    27     7     2   ar
    28    15     9   ar
@<TRIPOS>MOLECULE
*****
 25 28 0 0 0
SMALL
GASTEIGER

@<TRIPOS>ATOM
      1 N          -6.1415  -18.5300   22.1758 N.pl3   1  UNL1       -0.2860
      2 C          -4.6516  -18.6693   22.0720 C.ar    1  UNL1        0.0576
      3 C          -4.0571  -19.7852   21.2649 C.ar    1  UNL1        0.0153
      4 C          -2.5672  -19.9244   21.1611 C.ar    1  UNL1        0.0013
      5 C          -1.6718  -18.9479   21.8644 C.ar    1  UNL1        0.0006
      6 C          -2.2663  -17.8321   22.6715 C.ar    1  UNL1        0.0077
      7 C          -3.7562  -17.6928   22.7753 C.ar    1  UNL1        0.0431
      8 S          -4.3508  -16.5769   23.5824 S.3     1  UNL1       -0.0844
      9 C          -5.8407  -16.4376   23.6862 C.ar    1  UNL1        0.0431
     10 C          -6.4352  -15.3218   24.4933 C.ar    1  UNL1        0.0086
     11 C          -7.9251  -15.1825   24.5971 C.ar    1  UNL1        0.0120
     12 C          -8.8205  -16.1590   23.8938 C.ar    1  UNL1        0.0589
     13 CL        -10.3104  -16.0197   23.9975 Cl      1  UNL1       -0.0822
     14 C          -8.2260  -17.2748   23.0867 C.ar    1  UNL1        0.0267
     15 C          -6.7360  -17.4142   22.9829 C.ar    1  UNL1        0.0585
     16 C          -7.0369  -19.5065   21.4724 C.3     1  UNL1        0.0970
     17 C          -7.5450  -19.2004   20.0948 C.3     1  UNL1        0.0391
     18 C          -8.9675  -19.5106   19.7339 C.3     1  UNL1        0.0739
     19 C         -13.4242  -17.8192   23.3778 C.3     1  UNL1        0.0897
     20 N         -12.3100  -18.2421   22.4668 N.3     1  UNL1       -0.2691
     21 C         -11.4187  -19.3853   22.8525 C.3     1  UNL1        0.0897
     22 C         -10.3046  -19.8081   21.9416 C.3     1  UNL1        0.0897
     23 N         -10.0817  -19.0878   20.6449 N.3     1  UNL1       -0.2703
     24 C         -10.9730  -17.9446   20.2592 C.3     1  UNL1        0.0897
     25 C         -12.0871  -17.5217   21.1701 C.3     1  UNL1        0.0897
@<TRIPOS>BOND
     1    19    20    1
     2    20    21    1
     3    21    22    1
     4    22    23    1
     5    23    18    1
     6    18    17    1
     7    17    16    1
     8    16     1    1
     9     1     2    1
    10     2     3   ar
    11     3     4   ar
    12     4     5   ar
    13     5     6   ar
    14     6     7   ar
    15     7     8    1
    16     8     9    1
    17     9    10   ar
    18    10    11   ar
    19    11    12   ar
    20    12    13    1
    21    12    14   ar
    22    14    15   ar
    23    23    24    1
    24    24    25    1
    25    25    20    1
    26    15     1    1
    27     7     2   ar
    28    15     9   ar
@<TRIPOS>MOLECULE
*****
 25 28 0 0 0
SMALL
GASTEIGER

@<TRIPOS>ATOM
      1 N          -7.5203  -17.4799   22.4704 N.pl3   1  UNL1       -0.2860
      2 C          -6.9619  -16.7005   23.6240 C.ar    1  UNL1        0.0576
      3 C          -5.4774  -16.6074   23.8177 C.ar    1  UNL1        0.0153
      4 C          -4.9191  -15.8280   24.9713 C.ar    1  UNL1        0.0013
      5 C          -5.8452  -15.1417   25.9311 C.ar    1  UNL1        0.0006
      6 C          -7.3297  -15.2347   25.7373 C.ar    1  UNL1        0.0077
      7 C          -7.8880  -16.0141   24.5838 C.ar    1  UNL1        0.0431
      8 S          -9.3726  -16.1072   24.3900 S.3     1  UNL1       -0.0844
      9 C          -9.9310  -16.8866   23.2364 C.ar    1  UNL1        0.0431
     10 C         -11.4155  -16.9797   23.0426 C.ar    1  UNL1        0.0086
     11 C         -11.9739  -17.7591   21.8890 C.ar    1  UNL1        0.0120
     12 C         -11.0477  -18.4454   20.9292 C.ar    1  UNL1        0.0589
     13 CL        -11.6061  -19.2248   19.7756 Cl      1  UNL1       -0.0822
     14 C          -9.5633  -18.3523   21.1230 C.ar    1  UNL1        0.0267
     15 C          -9.0048  -17.5729   22.2766 C.ar    1  UNL1        0.0585
     16 C          -6.5942  -18.1662   21.5105 C.3     1  UNL1        0.0970
     17 C          -6.3018  -19.6291   21.6667 C.3     1  UNL1        0.0391
     18 C          -5.2363  -20.2743   20.8309 C.3     1  UNL1        0.0739
     19 C           0.0529  -17.5428   20.0806 C.3     1  UNL1        0.0897
     20 N          -1.2695  -18.2257   20.2682 N.3     1  UNL1       -0.2691
     21 C          -1.6780  -18.7085   21.6283 C.3     1  UNL1        0.0897
     22 C          -3.0002  -19.3913   21.8159 C.3     1  UNL1        0.0897
     23 N          -3.9140  -19.5914   20.6433 N.3     1  UNL1       -0.2703
     24 C          -3.5055  -19.1086   19.2832 C.3     1  UNL1        0.0897
     25 C          -2.1832  -18.4257   19.0956 C.3     1  UNL1        0.0897
@<TRIPOS>BOND
     1    19    20    1
     2    20    21    1
     3    21    22    1
     4    22    23    1
     5    23    18    1
     6    18    17    1
     7    17    16    1
     8    16     1    1
     9     1     2    1
    10     2     3   ar
    11     3     4   ar
    12     4     5   ar
    13     5     6   ar
    14     6     7   ar
    15     7     8    1
    16     8     9    1
    17     9    10   ar
    18    10    11   ar
    19    11    12   ar
    20    12    13    1
    21    12    14   ar
    22    14    15   ar
    23    23    24    1
    24    24    25    1
    25    25    20    1
    26    15     1    1
    27     7     2   ar
    28    15     9   ar
@<TRIPOS>MOLECULE
*****
 25 28 0 0 0
SMALL
GASTEIGER

@<TRIPOS>ATOM
      1 N          -8.6113  -18.0006   22.2152 N.pl3   1  UNL1       -0.2860
      2 C          -9.9801  -17.3891   22.1634 C.ar    1  UNL1        0.0576
      3 C         -10.4153  -16.4328   23.2338 C.ar    1  UNL1        0.0153
      4 C         -11.7840  -15.8213   23.1820 C.ar    1  UNL1        0.0013
      5 C         -12.7175  -16.1662   22.0596 C.ar    1  UNL1        0.0006
      6 C         -12.2823  -17.1226   20.9892 C.ar    1  UNL1        0.0077
      7 C         -10.9136  -17.7340   21.0410 C.ar    1  UNL1        0.0431
      8 S         -10.4783  -18.6904   19.9705 S.3     1  UNL1       -0.0844
      9 C          -9.1096  -19.3018   20.0224 C.ar    1  UNL1        0.0431
     10 C          -8.6743  -20.2582   18.9519 C.ar    1  UNL1        0.0086
     11 C          -7.3056  -20.8697   19.0038 C.ar    1  UNL1        0.0120
     12 C          -6.3721  -20.5248   20.1261 C.ar    1  UNL1        0.0589
     13 CL         -5.0034  -21.1363   20.1780 Cl      1  UNL1       -0.0822
     14 C          -6.8073  -19.5685   21.1966 C.ar    1  UNL1        0.0267
     15 C          -8.1761  -18.9570   21.1447 C.ar    1  UNL1        0.0585
     16 C          -7.6778  -17.6557   23.3376 C.3     1  UNL1        0.0970
     17 C          -6.6951  -16.5339   23.1778 C.3     1  UNL1        0.0391
     18 C          -5.3279  -16.6423   23.7853 C.3     1  UNL1        0.0739
     19 C          -0.6161  -18.0315   20.3401 C.3     1  UNL1        0.0897
     20 N          -1.7941  -17.6842   21.2014 N.3     1  UNL1       -0.2691
     21 C          -2.0552  -16.2549   21.5740 C.3     1  UNL1        0.0897
     22 C          -3.2331  -15.9076   22.4353 C.3     1  UNL1        0.0897
     23 N          -4.1499  -16.9896   22.9239 N.3     1  UNL1       -0.2703
     24 C          -3.8887  -18.4189   22.5513 C.3     1  UNL1        0.0897
     25 C          -2.7108  -18.7662   21.6900 C.3     1  UNL1        0.0897
@<TRIPOS>BOND
     1    19    20    1
     2    20    21    1
     3    21    22    1
     4    22    23    1
     5    23    18    1
     6    18    17    1
     7    17    16    1
     8    16     1    1
     9     1     2    1
    10     2     3   ar
    11     3     4   ar
    12     4     5   ar
    13     5     6   ar
    14     6     7   ar
    15     7     8    1
    16     8     9    1
    17     9    10   ar
    18    10    11   ar
    19    11    12   ar
    20    12    13    1
    21    12    14   ar
    22    14    15   ar
    23    23    24    1
    24    24    25    1
    25    25    20    1
    26    15     1    1
    27     7     2   ar
    28    15     9   ar
@<TRIPOS>MOLECULE
*****
 25 28 0 0 0
SMALL
GASTEIGER

@<TRIPOS>ATOM
      1 N         -13.1717   -3.7414   19.4057 N.pl3   1  UNL1       -0.2860
      2 C         -13.6684   -2.3418   19.1941 C.ar    1  UNL1        0.0576
      3 C         -14.9651   -1.9052   19.8088 C.ar    1  UNL1        0.0153
      4 C         -15.4616   -0.5057   19.5971 C.ar    1  UNL1        0.0013
      5 C         -14.6615    0.4572   18.7709 C.ar    1  UNL1        0.0006
      6 C         -13.3648    0.0205   18.1562 C.ar    1  UNL1        0.0077
      7 C         -12.8682   -1.3790   18.3678 C.ar    1  UNL1        0.0431
      8 S         -11.5714   -1.8157   17.7532 S.3     1  UNL1       -0.0844
      9 C         -11.0749   -3.2152   17.9648 C.ar    1  UNL1        0.0431
     10 C          -9.7781   -3.6519   17.3501 C.ar    1  UNL1        0.0086
     11 C          -9.2816   -5.0514   17.5618 C.ar    1  UNL1        0.0120
     12 C         -10.0817   -6.0142   18.3881 C.ar    1  UNL1        0.0589
     13 CL         -9.5852   -7.4137   18.5997 Cl      1  UNL1       -0.0822
     14 C         -11.3784   -5.5776   19.0027 C.ar    1  UNL1        0.0267
     15 C         -11.8750   -4.1780   18.7911 C.ar    1  UNL1        0.0585
     16 C         -13.9719   -4.7042   20.2320 C.3     1  UNL1        0.0970
     17 C         -15.0627   -5.5130   19.5948 C.3     1  UNL1        0.0391
     18 C         -14.8531   -6.9734   19.3243 C.3     1  UNL1        0.0739
     19 C         -19.5066  -10.4395   17.7972 C.3     1  UNL1        0.0897
     20 N         -18.3432   -9.5730   18.1790 N.3     1  UNL1       -0.2691
     21 C         -17.9814   -8.3879   17.3336 C.3     1  UNL1        0.0897
     22 C         -16.8180   -7.5214   17.7153 C.3     1  UNL1        0.0897
     23 N         -16.0165   -7.8399   18.9425 N.3     1  UNL1       -0.2703
     24 C         -16.3783   -9.0250   19.7879 C.3     1  UNL1        0.0897
     25 C         -17.5416   -9.8915   19.4062 C.3     1  UNL1        0.0897
@<TRIPOS>BOND
     1    19    20    1
     2    20    21    1
     3    21    22    1
     4    22    23    1
     5    23    18    1
     6    18    17    1
     7    17    16    1
     8    16     1    1
     9     1     2    1
    10     2     3   ar
    11     3     4   ar
    12     4     5   ar
    13     5     6   ar
    14     6     7   ar
    15     7     8    1
    16     8     9    1
    17     9    10   ar
    18    10    11   ar
    19    11    12   ar
    20    12    13    1
    21    12    14   ar
    22    14    15   ar
    23    23    24    1
    24    24    25    1
    25    25    20    1
    26    15     1    1
    27     7     2   ar
    28    15     9   ar
@<TRIPOS>MOLECULE
*****
 25 28 0 0 0
SMALL
GASTEIGER

@<TRIPOS>ATOM
      1 N         -14.5931   -5.9651   19.4566 N.pl3   1  UNL1       -0.2860
      2 C         -15.7252   -6.8867   19.1114 C.ar    1  UNL1        0.0576
      3 C         -17.1082   -6.5970   19.6147 C.ar    1  UNL1        0.0153
      4 C         -18.2402   -7.5185   19.2695 C.ar    1  UNL1        0.0013
      5 C         -17.9893   -8.7298   18.4211 C.ar    1  UNL1        0.0006
      6 C         -16.6063   -9.0195   17.9178 C.ar    1  UNL1        0.0077
      7 C         -15.4743   -8.0979   18.2630 C.ar    1  UNL1        0.0431
      8 S         -14.0912   -8.3876   17.7597 S.3     1  UNL1       -0.0844
      9 C         -12.9591   -7.4661   18.1049 C.ar    1  UNL1        0.0431
     10 C         -11.5760   -7.7558   17.6016 C.ar    1  UNL1        0.0086
     11 C         -10.4440   -6.8342   17.9468 C.ar    1  UNL1        0.0120
     12 C         -10.6950   -5.6230   18.7952 C.ar    1  UNL1        0.0589
     13 CL         -9.5629   -4.7014   19.1404 Cl      1  UNL1       -0.0822
     14 C         -12.0779   -5.3333   19.2985 C.ar    1  UNL1        0.0267
     15 C         -13.2101   -6.2548   18.9533 C.ar    1  UNL1        0.0585
     16 C         -14.8440   -4.7539   20.3050 C.3     1  UNL1        0.0970
     17 C         -15.7128   -3.6446   19.7905 C.3     1  UNL1        0.0391
     18 C         -15.0950   -2.3502   19.3515 C.3     1  UNL1        0.0739
     19 C         -10.0519   -2.3830   16.1010 C.3     1  UNL1        0.0897
     20 N         -11.3127   -2.3748   16.9136 N.3     1  UNL1       -0.2691
     21 C         -12.5664   -2.9837   16.3591 C.3     1  UNL1        0.0897
     22 C         -13.8271   -2.9755   17.1717 C.3     1  UNL1        0.0897
     23 N         -13.8342   -2.3584   18.5388 N.3     1  UNL1       -0.2703
     24 C         -12.5806   -1.7495   19.0933 C.3     1  UNL1        0.0897
     25 C         -11.3198   -1.7577   18.2808 C.3     1  UNL1        0.0897
@<TRIPOS>BOND
     1    19    20    1
     2    20    21    1
     3    21    22    1
     4    22    23    1
     5    23    18    1
     6    18    17    1
     7    17    16    1
     8    16     1    1
     9     1     2    1
    10     2     3   ar
    11     3     4   ar
    12     4     5   ar
    13     5     6   ar
    14     6     7   ar
    15     7     8    1
    16     8     9    1
    17     9    10   ar
    18    10    11   ar
    19    11    12   ar
    20    12    13    1
    21    12    14   ar
    22    14    15   ar
    23    23    24    1
    24    24    25    1
    25    25    20    1
    26    15     1    1
    27     7     2   ar
    28    15     9   ar
@<TRIPOS>MOLECULE
*****
 25 28 0 0 0
SMALL
GASTEIGER

@<TRIPOS>ATOM
      1 N          -6.8226  -18.5411   21.8494 N.pl3   1  UNL1       -0.2860
      2 C          -7.9606  -18.9904   20.9816 C.ar    1  UNL1        0.0576
      3 C          -9.3684  -18.6131   21.3362 C.ar    1  UNL1        0.0153
      4 C         -10.5064  -19.0624   20.4684 C.ar    1  UNL1        0.0013
      5 C         -10.2366  -19.8889   19.2461 C.ar    1  UNL1        0.0006
      6 C          -8.8288  -20.2662   18.8915 C.ar    1  UNL1        0.0077
      7 C          -7.6908  -19.8169   19.7593 C.ar    1  UNL1        0.0431
      8 S          -6.2829  -20.1942   19.4048 S.3     1  UNL1       -0.0844
      9 C          -5.1449  -19.7449   20.2726 C.ar    1  UNL1        0.0431
     10 C          -3.7371  -20.1221   19.9180 C.ar    1  UNL1        0.0086
     11 C          -2.5991  -19.6728   20.7858 C.ar    1  UNL1        0.0120
     12 C          -2.8689  -18.8463   22.0081 C.ar    1  UNL1        0.0589
     13 CL         -1.7309  -18.3970   22.8759 Cl      1  UNL1       -0.0822
     14 C          -4.2767  -18.4691   22.3627 C.ar    1  UNL1        0.0267
     15 C          -5.4148  -18.9184   21.4949 C.ar    1  UNL1        0.0585
     16 C          -7.0924  -17.7146   23.0718 C.3     1  UNL1        0.0970
     17 C          -7.5813  -16.3036   22.9301 C.3     1  UNL1        0.0391
     18 C          -8.7017  -15.8077   23.7954 C.3     1  UNL1        0.0739
     19 C         -14.1191  -18.3632   23.4457 C.3     1  UNL1        0.0897
     20 N         -12.7647  -17.7243   23.5331 N.3     1  UNL1       -0.2691
     21 C         -11.6978  -18.3421   24.3875 C.3     1  UNL1        0.0897
     22 C         -10.3435  -17.7032   24.4750 C.3     1  UNL1        0.0897
     23 N         -10.0561  -16.4466   23.7080 N.3     1  UNL1       -0.2703
     24 C         -11.1230  -15.8289   22.8535 C.3     1  UNL1        0.0897
     25 C         -12.4773  -16.4677   22.7661 C.3     1  UNL1        0.0897
@<TRIPOS>BOND
     1    19    20    1
     2    20    21    1
     3    21    22    1
     4    22    23    1
     5    23    18    1
     6    18    17    1
     7    17    16    1
     8    16     1    1
     9     1     2    1
    10     2     3   ar
    11     3     4   ar
    12     4     5   ar
    13     5     6   ar
    14     6     7   ar
    15     7     8    1
    16     8     9    1
    17     9    10   ar
    18    10    11   ar
    19    11    12   ar
    20    12    13    1
    21    12    14   ar
    22    14    15   ar
    23    23    24    1
    24    24    25    1
    25    25    20    1
    26    15     1    1
    27     7     2   ar
    28    15     9   ar
@<TRIPOS>MOLECULE
*****
 25 28 0 0 0
SMALL
GASTEIGER

@<TRIPOS>ATOM
      1 N          -8.2881  -18.3402   21.9668 N.pl3   1  UNL1       -0.2860
      2 C          -7.6569  -19.3770   21.0854 C.ar    1  UNL1        0.0576
      3 C          -6.2998  -19.9208   21.4207 C.ar    1  UNL1        0.0153
      4 C          -5.6686  -20.9576   20.5394 C.ar    1  UNL1        0.0013
      5 C          -6.3946  -21.4505   19.3228 C.ar    1  UNL1        0.0006
      6 C          -7.7517  -20.9066   18.9875 C.ar    1  UNL1        0.0077
      7 C          -8.3828  -19.8699   19.8688 C.ar    1  UNL1        0.0431
      8 S          -9.7400  -19.3260   19.5336 S.3     1  UNL1       -0.0844
      9 C         -10.3712  -18.2893   20.4149 C.ar    1  UNL1        0.0431
     10 C         -11.7284  -17.7454   20.0797 C.ar    1  UNL1        0.0086
     11 C         -12.3595  -16.7086   20.9610 C.ar    1  UNL1        0.0120
     12 C         -11.6336  -16.2157   22.1776 C.ar    1  UNL1        0.0589
     13 CL        -12.2648  -15.1790   23.0589 Cl      1  UNL1       -0.0822
     14 C         -10.2765  -16.7596   22.5128 C.ar    1  UNL1        0.0267
     15 C          -9.6453  -17.7964   21.6315 C.ar    1  UNL1        0.0585
     16 C          -7.5622  -17.8473   23.1833 C.3     1  UNL1        0.0970
     17 C          -6.5813  -16.7187   23.0655 C.3     1  UNL1        0.0391
     18 C          -5.2246  -16.8353   23.6945 C.3     1  UNL1        0.0739
     19 C          -0.4205  -17.9543   20.2785 C.3     1  UNL1        0.0897
     20 N          -1.6215  -17.6745   21.1325 N.3     1  UNL1       -0.2691
     21 C          -2.4628  -18.8087   21.6382 C.3     1  UNL1        0.0897
     22 C          -3.6638  -18.5290   22.4922 C.3     1  UNL1        0.0897
     23 N          -4.0235  -17.1151   22.8405 N.3     1  UNL1       -0.2703
     24 C          -3.1822  -15.9808   22.3348 C.3     1  UNL1        0.0897
     25 C          -1.9812  -16.2605   21.4808 C.3     1  UNL1        0.0897
@<TRIPOS>BOND
     1    19    20    1
     2    20    21    1
     3    21    22    1
     4    22    23    1
     5    23    18    1
     6    18    17    1
     7    17    16    1
     8    16     1    1
     9     1     2    1
    10     2     3   ar
    11     3     4   ar
    12     4     5   ar
    13     5     6   ar
    14     6     7   ar
    15     7     8    1
    16     8     9    1
    17     9    10   ar
    18    10    11   ar
    19    11    12   ar
    20    12    13    1
    21    12    14   ar
    22    14    15   ar
    23    23    24    1
    24    24    25    1
    25    25    20    1
    26    15     1    1
    27     7     2   ar
    28    15     9   ar
@<TRIPOS>MOLECULE
*****
 25 28 0 0 0
SMALL
GASTEIGER

@<TRIPOS>ATOM
      1 N         -14.5554   -5.9996   19.4620 N.pl3   1  UNL1       -0.2860
      2 C         -15.6511   -6.9710   19.1363 C.ar    1  UNL1        0.0576
      3 C         -17.0408   -6.7332   19.6482 C.ar    1  UNL1        0.0153
      4 C         -18.1364   -7.7046   19.3225 C.ar    1  UNL1        0.0013
      5 C         -17.8422   -8.9137   18.4849 C.ar    1  UNL1        0.0006
      6 C         -16.4525   -9.1514   17.9730 C.ar    1  UNL1        0.0077
      7 C         -15.3569   -8.1801   18.2987 C.ar    1  UNL1        0.0431
      8 S         -13.9671   -8.4178   17.7868 S.3     1  UNL1       -0.0844
      9 C         -12.8715   -7.4464   18.1125 C.ar    1  UNL1        0.0431
     10 C         -11.4817   -7.6841   17.6006 C.ar    1  UNL1        0.0086
     11 C         -10.3862   -6.7127   17.9263 C.ar    1  UNL1        0.0120
     12 C         -10.6803   -5.5036   18.7638 C.ar    1  UNL1        0.0589
     13 CL         -9.5847   -4.5322   19.0895 Cl      1  UNL1       -0.0822
     14 C         -12.0700   -5.2659   19.2757 C.ar    1  UNL1        0.0267
     15 C         -13.1657   -6.2373   18.9501 C.ar    1  UNL1        0.0585
     16 C         -14.8496   -4.7905   20.2996 C.3     1  UNL1        0.0970
     17 C         -15.3662   -3.5388   19.6544 C.3     1  UNL1        0.0391
     18 C         -14.4106   -2.4598   19.2388 C.3     1  UNL1        0.0739
     19 C         -16.1653    3.2778   19.2719 C.3     1  UNL1        0.0897
     20 N         -15.7266    1.8434   19.2636 N.3     1  UNL1       -0.2691
     21 C         -16.5091    0.8154   20.0258 C.3     1  UNL1        0.0897
     22 C         -16.0705   -0.6190   20.0175 C.3     1  UNL1        0.0897
     23 N         -14.8493   -1.0254   19.2471 N.3     1  UNL1       -0.2703
     24 C         -14.0668    0.0027   18.4850 C.3     1  UNL1        0.0897
     25 C         -14.5054    1.4370   18.4932 C.3     1  UNL1        0.0897
@<TRIPOS>BOND
     1    19    20    1
     2    20    21    1
     3    21    22    1
     4    22    23    1
     5    23    18    1
     6    18    17    1
     7    17    16    1
     8    16     1    1
     9     1     2    1
    10     2     3   ar
    11     3     4   ar
    12     4     5   ar
    13     5     6   ar
    14     6     7   ar
    15     7     8    1
    16     8     9    1
    17     9    10   ar
    18    10    11   ar
    19    11    12   ar
    20    12    13    1
    21    12    14   ar
    22    14    15   ar
    23    23    24    1
    24    24    25    1
    25    25    20    1
    26    15     1    1
    27     7     2   ar
    28    15     9   ar
