@<TRIPOS>MOLECULE
*****
 27 29 0 0 0
SMALL
GASTEIGER

@<TRIPOS>ATOM
      1 N          -8.6431  -17.4795   23.0781 N.pl3   1  UNL1       -0.3021
      2 C         -10.1382  -17.4893   23.1988 C.ar    1  UNL1        0.0481
      3 C         -10.9558  -16.4608   22.4753 C.ar    1  UNL1        0.0145
      4 C         -12.4509  -16.4705   22.5961 C.ar    1  UNL1        0.0013
      5 C         -13.1284  -17.5089   23.4404 C.ar    1  UNL1        0.0001
      6 C         -12.3108  -18.5375   24.1639 C.ar    1  UNL1        0.0013
      7 C         -10.8157  -18.5277   24.0432 C.ar    1  UNL1        0.0145
      8 C          -7.9105  -18.7414   22.7302 C.3     1  UNL1        0.1095
      9 C          -6.9310  -18.7512   21.5943 C.3     1  UNL1        0.1073
     10 N          -5.4584  -18.8063   21.8742 N.3     1  UNL1       -0.2704
     11 C          -4.4589  -19.6746   21.1693 C.3     1  UNL1        0.0722
     12 C          -3.1095  -19.4078   21.7676 C.3     1  UNL1        0.0188
     13 C          -3.2752  -18.3746   22.8424 C.3     1  UNL1        0.0188
     14 C          -4.7269  -18.0029   22.9082 C.3     1  UNL1        0.0722
     15 C          -7.4241  -18.7057   20.1784 C.3     1  UNL1        0.1597
     16 O          -7.9457  -19.9514   19.5255 O.3     1  UNL1       -0.3523
     17 C          -9.3655  -20.0082   19.0450 C.3     1  UNL1        0.1421
     18 C         -11.0186  -20.1706   21.0428 C.3     1  UNL1        0.0026
     19 C         -10.4627  -19.4105   19.8751 C.3     1  UNL1        0.0297
     20 C         -11.0041  -18.0530   19.5376 C.3     1  UNL1        0.0026
     21 C          -7.8806  -16.2079   23.3052 C.3     1  UNL1        0.1177
     22 C          -7.4580  -15.8244   24.6924 C.ar    1  UNL1       -0.0024
     23 C          -6.0338  -15.4390   24.9629 C.ar    1  UNL1       -0.0026
     24 C          -5.6112  -15.0554   26.3501 C.ar    1  UNL1       -0.0003
     25 C          -6.6128  -15.0574   27.4668 C.ar    1  UNL1       -0.0000
     26 C          -8.0369  -15.4428   27.1962 C.ar    1  UNL1       -0.0003
     27 C          -8.4595  -15.8263   25.8091 C.ar    1  UNL1       -0.0026
@<TRIPOS>BOND
     1    18    19    1
     2    19    20    1
     3    19    17    1
     4    17    16    1
     5    16    15    1
     6    15     9    1
     7     9     8    1
     8     8     1    1
     9     1    21    1
    10    21    22    1
    11    22    23   ar
    12    23    24   ar
    13    24    25   ar
    14    25    26   ar
    15    26    27   ar
    16     1     2    1
    17     2     3   ar
    18     3     4   ar
    19     4     5   ar
    20     5     6   ar
    21     6     7   ar
    22     9    10    1
    23    10    11    1
    24    11    12    1
    25    12    13    1
    26    13    14    1
    27    27    22   ar
    28     7     2   ar
    29    14    10    1
@<TRIPOS>MOLECULE
*****
 27 29 0 0 0
SMALL
GASTEIGER

@<TRIPOS>ATOM
      1 N          -7.5107  -16.5358   23.0392 N.pl3   1  UNL1       -0.3021
      2 C          -7.3174  -16.1221   24.4680 C.ar    1  UNL1        0.0481
      3 C          -8.4472  -16.2526   25.4460 C.ar    1  UNL1        0.0145
      4 C          -8.2539  -15.8389   26.8748 C.ar    1  UNL1        0.0013
      5 C          -6.9307  -15.2949   27.3257 C.ar    1  UNL1        0.0001
      6 C          -5.8008  -15.1644   26.3477 C.ar    1  UNL1        0.0013
      7 C          -5.9942  -15.5781   24.9188 C.ar    1  UNL1        0.0145
      8 C          -6.8410  -17.7733   22.5195 C.3     1  UNL1        0.1095
      9 C          -7.5800  -18.6936   21.5938 C.3     1  UNL1        0.1073
     10 N          -8.8764  -19.3110   22.0274 N.3     1  UNL1       -0.2704
     11 C         -10.0403  -19.6339   21.1378 C.3     1  UNL1        0.0722
     12 C         -11.1198  -20.2364   21.9873 C.3     1  UNL1        0.0188
     13 C         -10.6231  -20.2859   23.4018 C.3     1  UNL1        0.0188
     14 C          -9.2366  -19.7139   23.4266 C.3     1  UNL1        0.0722
     15 C          -7.0225  -18.9965   20.2346 C.3     1  UNL1        0.1597
     16 O          -5.6005  -18.6452   19.9118 O.3     1  UNL1       -0.3523
     17 C          -4.5272  -19.6874   20.0208 C.3     1  UNL1        0.1421
     18 C          -2.3565  -18.5217   19.1966 C.3     1  UNL1        0.0026
     19 C          -3.1038  -19.2764   20.2558 C.3     1  UNL1        0.0297
     20 C          -2.4278  -19.6202   21.5499 C.3     1  UNL1        0.0026
     21 C          -8.3737  -15.7120   22.1301 C.3     1  UNL1        0.1177
     22 C          -9.8126  -16.0819   21.9233 C.ar    1  UNL1       -0.0024
     23 C         -10.6658  -16.4607   23.0973 C.ar    1  UNL1       -0.0026
     24 C         -12.1047  -16.8306   22.8905 C.ar    1  UNL1       -0.0003
     25 C         -12.6903  -16.8217   21.5096 C.ar    1  UNL1       -0.0000
     26 C         -11.8371  -16.4429   20.3355 C.ar    1  UNL1       -0.0003
     27 C         -10.3983  -16.0730   20.5424 C.ar    1  UNL1       -0.0026
@<TRIPOS>BOND
     1    18    19    1
     2    19    20    1
     3    19    17    1
     4    17    16    1
     5    16    15    1
     6    15     9    1
     7     9     8    1
     8     8     1    1
     9     1    21    1
    10    21    22    1
    11    22    23   ar
    12    23    24   ar
    13    24    25   ar
    14    25    26   ar
    15    26    27   ar
    16     1     2    1
    17     2     3   ar
    18     3     4   ar
    19     4     5   ar
    20     5     6   ar
    21     6     7   ar
    22     9    10    1
    23    10    11    1
    24    11    12    1
    25    12    13    1
    26    13    14    1
    27    27    22   ar
    28     7     2   ar
    29    14    10    1
@<TRIPOS>MOLECULE
*****
 27 29 0 0 0
SMALL
GASTEIGER

@<TRIPOS>ATOM
      1 N          -9.2306  -17.6928   23.4898 N.pl3   1  UNL1       -0.3021
      2 C         -10.7269  -17.7359   23.5856 C.ar    1  UNL1        0.0481
      3 C         -11.5595  -16.8230   22.7352 C.ar    1  UNL1        0.0145
      4 C         -13.0558  -16.8662   22.8311 C.ar    1  UNL1        0.0013
      5 C         -13.7195  -17.8223   23.7773 C.ar    1  UNL1        0.0001
      6 C         -12.8869  -18.7353   24.6278 C.ar    1  UNL1        0.0013
      7 C         -11.3905  -18.6921   24.5319 C.ar    1  UNL1        0.0145
      8 C          -8.4512  -18.9664   23.3463 C.3     1  UNL1        0.1095
      9 C          -7.6859  -19.2394   22.0855 C.3     1  UNL1        0.1073
     10 N          -8.4200  -19.4755   20.7989 N.3     1  UNL1       -0.2704
     11 C          -7.7947  -19.7829   19.4706 C.3     1  UNL1        0.0722
     12 C          -8.8965  -19.9430   18.4654 C.3     1  UNL1        0.0188
     13 C         -10.2029  -19.7346   19.1727 C.3     1  UNL1        0.0188
     14 C          -9.9084  -19.4457   20.6148 C.3     1  UNL1        0.0722
     15 C          -6.1866  -19.2764   22.1112 C.3     1  UNL1        0.1597
     16 O          -5.4062  -17.9982   22.1954 O.3     1  UNL1       -0.3523
     17 C          -4.1260  -17.9511   22.9756 C.3     1  UNL1        0.1421
     18 C          -2.0528  -18.9732   21.7893 C.3     1  UNL1        0.0026
     19 C          -2.8187  -17.7731   22.2617 C.3     1  UNL1        0.0297
     20 C          -2.2775  -16.3952   22.0202 C.3     1  UNL1        0.0026
     21 C          -8.5137  -16.3761   23.5374 C.3     1  UNL1        0.1177
     22 C          -7.8275  -15.9408   24.7983 C.ar    1  UNL1       -0.0024
     23 C          -8.6056  -15.8307   26.0759 C.ar    1  UNL1       -0.0026
     24 C          -7.9195  -15.3955   27.3368 C.ar    1  UNL1       -0.0003
     25 C          -6.4552  -15.0703   27.3200 C.ar    1  UNL1       -0.0000
     26 C          -5.6771  -15.1805   26.0423 C.ar    1  UNL1       -0.0003
     27 C          -6.3633  -15.6157   24.7815 C.ar    1  UNL1       -0.0026
@<TRIPOS>BOND
     1    18    19    1
     2    19    20    1
     3    19    17    1
     4    17    16    1
     5    16    15    1
     6    15     9    1
     7     9     8    1
     8     8     1    1
     9     1    21    1
    10    21    22    1
    11    22    23   ar
    12    23    24   ar
    13    24    25   ar
    14    25    26   ar
    15    26    27   ar
    16     1     2    1
    17     2     3   ar
    18     3     4   ar
    19     4     5   ar
    20     5     6   ar
    21     6     7   ar
    22     9    10    1
    23    10    11    1
    24    11    12    1
    25    12    13    1
    26    13    14    1
    27    27    22   ar
    28     7     2   ar
    29    14    10    1
@<TRIPOS>MOLECULE
*****
 27 29 0 0 0
SMALL
GASTEIGER

@<TRIPOS>ATOM
      1 N          -8.3882  -16.5423   22.2301 N.pl3   1  UNL1       -0.3021
      2 C          -9.8387  -16.6199   21.8562 C.ar    1  UNL1        0.0481
      3 C         -10.2371  -17.1027   20.4931 C.ar    1  UNL1        0.0145
      4 C         -11.6876  -17.1802   20.1191 C.ar    1  UNL1        0.0013
      5 C         -12.7399  -16.7750   21.1083 C.ar    1  UNL1        0.0001
      6 C         -12.3416  -16.2921   22.4715 C.ar    1  UNL1        0.0013
      7 C         -10.8910  -16.2146   22.8454 C.ar    1  UNL1        0.0145
      8 C          -7.4688  -17.6832   21.9088 C.3     1  UNL1        0.1095
      9 C          -7.7921  -19.0659   22.3919 C.3     1  UNL1        0.1073
     10 N          -9.0624  -19.3181   23.1485 N.3     1  UNL1       -0.2704
     11 C          -9.3249  -18.9497   24.5787 C.3     1  UNL1        0.0722
     12 C         -10.7181  -19.3869   24.9218 C.3     1  UNL1        0.0188
     13 C         -11.3167  -20.0255   23.7037 C.3     1  UNL1        0.0188
     14 C         -10.2935  -19.9830   22.6077 C.3     1  UNL1        0.0722
     15 C          -6.8449  -20.1965   22.1184 C.3     1  UNL1        0.1597
     16 O          -5.3729  -19.9312   22.0060 O.3     1  UNL1       -0.3523
     17 C          -4.7155  -19.9101   20.6579 C.3     1  UNL1        0.1421
     18 C          -2.9103  -18.6653   19.2644 C.3     1  UNL1        0.0026
     19 C          -3.3162  -19.3891   20.5139 C.3     1  UNL1        0.0297
     20 C          -2.3229  -19.5919   21.6195 C.3     1  UNL1        0.0026
     21 C          -7.8570  -15.3240   22.9254 C.3     1  UNL1        0.1177
     22 C          -7.4704  -15.3953   24.3731 C.ar    1  UNL1       -0.0024
     23 C          -8.5318  -15.4822   25.4294 C.ar    1  UNL1       -0.0026
     24 C          -8.1451  -15.5534   26.8769 C.ar    1  UNL1       -0.0003
     25 C          -6.6971  -15.5379   27.2681 C.ar    1  UNL1       -0.0000
     26 C          -5.6357  -15.4511   26.2118 C.ar    1  UNL1       -0.0003
     27 C          -6.0224  -15.3798   24.7642 C.ar    1  UNL1       -0.0026
@<TRIPOS>BOND
     1    18    19    1
     2    19    20    1
     3    19    17    1
     4    17    16    1
     5    16    15    1
     6    15     9    1
     7     9     8    1
     8     8     1    1
     9     1    21    1
    10    21    22    1
    11    22    23   ar
    12    23    24   ar
    13    24    25   ar
    14    25    26   ar
    15    26    27   ar
    16     1     2    1
    17     2     3   ar
    18     3     4   ar
    19     4     5   ar
    20     5     6   ar
    21     6     7   ar
    22     9    10    1
    23    10    11    1
    24    11    12    1
    25    12    13    1
    26    13    14    1
    27    27    22   ar
    28     7     2   ar
    29    14    10    1
@<TRIPOS>MOLECULE
*****
 27 29 0 0 0
SMALL
GASTEIGER

@<TRIPOS>ATOM
      1 N          -7.9380  -16.8007   23.3955 N.pl3   1  UNL1       -0.3021
      2 C          -7.4730  -16.2051   24.6913 C.ar    1  UNL1        0.0481
      3 C          -6.0643  -15.7074   24.8252 C.ar    1  UNL1        0.0145
      4 C          -5.5993  -15.1118   26.1210 C.ar    1  UNL1        0.0013
      5 C          -6.5429  -15.0140   27.2829 C.ar    1  UNL1        0.0001
      6 C          -7.9516  -15.5117   27.1490 C.ar    1  UNL1        0.0013
      7 C          -8.4167  -16.1073   25.8532 C.ar    1  UNL1        0.0145
      8 C          -7.8112  -18.2767   23.1602 C.3     1  UNL1        0.1095
      9 C          -7.3219  -18.7859   21.8369 C.3     1  UNL1        0.1073
     10 N          -8.3041  -19.2445   20.8001 N.3     1  UNL1       -0.2704
     11 C          -7.9751  -19.6617   19.3974 C.3     1  UNL1        0.0722
     12 C          -9.2554  -20.0415   18.7143 C.3     1  UNL1        0.0188
     13 C         -10.3757  -19.8589   19.6950 C.3     1  UNL1        0.0188
     14 C          -9.7877  -19.3663   20.9841 C.3     1  UNL1        0.0722
     15 C          -5.8504  -18.8364   21.5503 C.3     1  UNL1        0.1597
     16 O          -4.8784  -19.1001   22.6619 O.3     1  UNL1       -0.3523
     17 C          -3.8538  -18.0659   23.0233 C.3     1  UNL1        0.1421
     18 C          -2.2120  -16.3823   21.9186 C.3     1  UNL1        0.0026
     19 C          -2.7101  -17.7863   22.0937 C.3     1  UNL1        0.0297
     20 C          -2.0647  -18.9107   21.3394 C.3     1  UNL1        0.0026
     21 C          -8.5299  -15.9203   22.3351 C.3     1  UNL1        0.1177
     22 C          -9.9580  -16.1074   21.9159 C.ar    1  UNL1       -0.0024
     23 C         -10.3557  -15.8832   20.4871 C.ar    1  UNL1       -0.0026
     24 C         -11.7837  -16.0703   20.0680 C.ar    1  UNL1       -0.0003
     25 C         -12.8140  -16.4817   21.0776 C.ar    1  UNL1       -0.0000
     26 C         -12.4162  -16.7060   22.5064 C.ar    1  UNL1       -0.0003
     27 C         -10.9882  -16.5188   22.9255 C.ar    1  UNL1       -0.0026
@<TRIPOS>BOND
     1    18    19    1
     2    19    20    1
     3    19    17    1
     4    17    16    1
     5    16    15    1
     6    15     9    1
     7     9     8    1
     8     8     1    1
     9     1    21    1
    10    21    22    1
    11    22    23   ar
    12    23    24   ar
    13    24    25   ar
    14    25    26   ar
    15    26    27   ar
    16     1     2    1
    17     2     3   ar
    18     3     4   ar
    19     4     5   ar
    20     5     6   ar
    21     6     7   ar
    22     9    10    1
    23    10    11    1
    24    11    12    1
    25    12    13    1
    26    13    14    1
    27    27    22   ar
    28     7     2   ar
    29    14    10    1
@<TRIPOS>MOLECULE
*****
 27 29 0 0 0
SMALL
GASTEIGER

@<TRIPOS>ATOM
      1 N          -6.4866  -18.3089   22.4862 N.pl3   1  UNL1       -0.3021
      2 C          -5.0038  -18.4805   22.3387 C.ar    1  UNL1        0.0481
      3 C          -4.4583  -19.5550   21.4454 C.ar    1  UNL1        0.0145
      4 C          -2.9755  -19.7266   21.2979 C.ar    1  UNL1        0.0013
      5 C          -2.0381  -18.8236   22.0435 C.ar    1  UNL1        0.0001
      6 C          -2.5836  -17.7491   22.9368 C.ar    1  UNL1        0.0013
      7 C          -4.0664  -17.5775   23.0844 C.ar    1  UNL1        0.0145
      8 C          -7.0666  -16.9407   22.6905 C.3     1  UNL1        0.1095
      9 C          -7.9230  -16.6605   23.8896 C.3     1  UNL1        0.1073
     10 N          -7.3201  -16.0339   25.1119 N.3     1  UNL1       -0.2704
     11 C          -5.9586  -15.4112   25.2030 C.3     1  UNL1        0.0722
     12 C          -5.7699  -14.9124   26.6050 C.3     1  UNL1        0.0188
     13 C          -7.0149  -15.2270   27.3804 C.3     1  UNL1        0.0188
     14 C          -7.9730  -15.9201   26.4575 C.3     1  UNL1        0.0722
     15 C          -9.3823  -17.0069   23.8666 C.3     1  UNL1        0.1597
     16 O         -10.3496  -16.1304   23.1277 O.3     1  UNL1       -0.3523
     17 C         -10.2951  -16.0483   21.6310 C.3     1  UNL1        0.1421
     18 C         -11.5761  -15.8335   19.3809 C.3     1  UNL1        0.0026
     19 C         -11.5437  -16.2444   20.8231 C.3     1  UNL1        0.0297
     20 C         -12.7598  -16.8514   21.4575 C.3     1  UNL1        0.0026
     21 C          -7.3894  -19.5054   22.4295 C.3     1  UNL1        0.1177
     22 C          -8.4875  -19.5688   21.4096 C.ar    1  UNL1       -0.0024
     23 C          -8.1665  -19.4218   19.9518 C.ar    1  UNL1       -0.0026
     24 C          -9.2645  -19.4852   18.9319 C.ar    1  UNL1       -0.0003
     25 C         -10.6836  -19.6957   19.3699 C.ar    1  UNL1       -0.0000
     26 C         -11.0047  -19.8428   20.8277 C.ar    1  UNL1       -0.0003
     27 C          -9.9066  -19.7794   21.8475 C.ar    1  UNL1       -0.0026
@<TRIPOS>BOND
     1    18    19    1
     2    19    20    1
     3    19    17    1
     4    17    16    1
     5    16    15    1
     6    15     9    1
     7     9     8    1
     8     8     1    1
     9     1    21    1
    10    21    22    1
    11    22    23   ar
    12    23    24   ar
    13    24    25   ar
    14    25    26   ar
    15    26    27   ar
    16     1     2    1
    17     2     3   ar
    18     3     4   ar
    19     4     5   ar
    20     5     6   ar
    21     6     7   ar
    22     9    10    1
    23    10    11    1
    24    11    12    1
    25    12    13    1
    26    13    14    1
    27    27    22   ar
    28     7     2   ar
    29    14    10    1
@<TRIPOS>MOLECULE
*****
 27 29 0 0 0
SMALL
GASTEIGER

@<TRIPOS>ATOM
      1 N          -8.1398  -17.9428   22.8507 N.pl3   1  UNL1       -0.3021
      2 C          -7.6714  -18.8730   21.7711 C.ar    1  UNL1        0.0481
      3 C          -8.4308  -18.9677   20.4811 C.ar    1  UNL1        0.0145
      4 C          -7.9624  -19.8978   19.4016 C.ar    1  UNL1        0.0013
      5 C          -6.7346  -20.7333   19.6121 C.ar    1  UNL1        0.0001
      6 C          -5.9751  -20.6387   20.9022 C.ar    1  UNL1        0.0013
      7 C          -6.4435  -19.7085   21.9817 C.ar    1  UNL1        0.0145
      8 C          -7.6374  -16.5300   22.8935 C.3     1  UNL1        0.1095
      9 C          -6.6169  -16.1276   23.9165 C.3     1  UNL1        0.1073
     10 N          -7.0513  -15.7568   25.3035 N.3     1  UNL1       -0.2704
     11 C          -6.1486  -15.5389   26.4815 C.3     1  UNL1        0.0722
     12 C          -7.0040  -15.1862   27.6621 C.3     1  UNL1        0.0188
     13 C          -8.4355  -15.1861   27.2137 C.3     1  UNL1        0.0188
     14 C          -8.4646  -15.5387   25.7560 C.3     1  UNL1        0.0722
     15 C          -5.1621  -16.0961   23.5526 C.3     1  UNL1        0.1597
     16 O          -4.5700  -17.2035   22.7323 O.3     1  UNL1       -0.3523
     17 C          -3.0912  -17.4528   22.7648 C.3     1  UNL1        0.1421
     18 C          -2.4641  -19.6634   21.5523 C.3     1  UNL1        0.0026
     19 C          -2.4255  -18.1657   21.6251 C.3     1  UNL1        0.0297
     20 C          -1.7214  -17.3808   20.5582 C.3     1  UNL1        0.0026
     21 C          -9.1106  -18.4253   23.8873 C.3     1  UNL1        0.1177
     22 C         -10.5815  -18.1968   23.7015 C.ar    1  UNL1       -0.0024
     23 C         -11.0744  -17.3975   22.5318 C.ar    1  UNL1       -0.0026
     24 C         -12.5452  -17.1691   22.3461 C.ar    1  UNL1       -0.0003
     25 C         -13.5230  -17.7398   23.3300 C.ar    1  UNL1       -0.0000
     26 C         -13.0301  -18.5391   24.4996 C.ar    1  UNL1       -0.0003
     27 C         -11.5593  -18.7675   24.6854 C.ar    1  UNL1       -0.0026
@<TRIPOS>BOND
     1    18    19    1
     2    19    20    1
     3    19    17    1
     4    17    16    1
     5    16    15    1
     6    15     9    1
     7     9     8    1
     8     8     1    1
     9     1    21    1
    10    21    22    1
    11    22    23   ar
    12    23    24   ar
    13    24    25   ar
    14    25    26   ar
    15    26    27   ar
    16     1     2    1
    17     2     3   ar
    18     3     4   ar
    19     4     5   ar
    20     5     6   ar
    21     6     7   ar
    22     9    10    1
    23    10    11    1
    24    11    12    1
    25    12    13    1
    26    13    14    1
    27    27    22   ar
    28     7     2   ar
    29    14    10    1
@<TRIPOS>MOLECULE
*****
 27 29 0 0 0
SMALL
GASTEIGER

@<TRIPOS>ATOM
      1 N          -6.4307  -18.2461   22.4665 N.pl3   1  UNL1       -0.3021
      2 C          -4.9525  -18.4459   22.3076 C.ar    1  UNL1        0.0481
      3 C          -4.4345  -19.5299   21.4095 C.ar    1  UNL1        0.0145
      4 C          -2.9564  -19.7296   21.2506 C.ar    1  UNL1        0.0013
      5 C          -1.9963  -18.8454   21.9898 C.ar    1  UNL1        0.0001
      6 C          -2.5143  -17.7614   22.8879 C.ar    1  UNL1        0.0013
      7 C          -3.9925  -17.5616   23.0468 C.ar    1  UNL1        0.0145
      8 C          -7.3645  -19.4114   22.3244 C.3     1  UNL1        0.1095
      9 C          -8.8292  -19.2361   22.5961 C.3     1  UNL1        0.1073
     10 N          -9.7011  -18.5448   21.5902 N.3     1  UNL1       -0.2704
     11 C         -10.3923  -19.1943   20.4281 C.3     1  UNL1        0.0722
     12 C         -11.1533  -18.1335   19.6895 C.3     1  UNL1        0.0188
     13 C         -10.9325  -16.8284   20.3951 C.3     1  UNL1        0.0188
     14 C         -10.0350  -17.0826   21.5698 C.3     1  UNL1        0.0722
     15 C          -9.4220  -19.7522   23.8737 C.3     1  UNL1        0.1597
     16 O         -10.9100  -19.7538   24.0632 O.3     1  UNL1       -0.3523
     17 C         -11.6007  -18.5296   24.5867 C.3     1  UNL1        0.1421
     18 C         -14.1210  -18.4789   25.2157 C.3     1  UNL1        0.0026
     19 C         -13.0276  -18.2561   24.2133 C.3     1  UNL1        0.0297
     20 C         -13.3609  -17.7597   22.8377 C.3     1  UNL1        0.0026
     21 C          -6.9749  -16.8812   22.7675 C.3     1  UNL1        0.1177
     22 C          -7.0341  -16.3931   24.1847 C.ar    1  UNL1       -0.0024
     23 C          -8.3229  -16.4632   24.9489 C.ar    1  UNL1       -0.0026
     24 C          -8.3820  -15.9751   26.3660 C.ar    1  UNL1       -0.0003
     25 C          -7.1524  -15.4169   27.0189 C.ar    1  UNL1       -0.0000
     26 C          -5.8636  -15.3468   26.2547 C.ar    1  UNL1       -0.0003
     27 C          -5.8044  -15.8349   24.8376 C.ar    1  UNL1       -0.0026
@<TRIPOS>BOND
     1    18    19    1
     2    19    20    1
     3    19    17    1
     4    17    16    1
     5    16    15    1
     6    15     9    1
     7     9     8    1
     8     8     1    1
     9     1    21    1
    10    21    22    1
    11    22    23   ar
    12    23    24   ar
    13    24    25   ar
    14    25    26   ar
    15    26    27   ar
    16     1     2    1
    17     2     3   ar
    18     3     4   ar
    19     4     5   ar
    20     5     6   ar
    21     6     7   ar
    22     9    10    1
    23    10    11    1
    24    11    12    1
    25    12    13    1
    26    13    14    1
    27    27    22   ar
    28     7     2   ar
    29    14    10    1
@<TRIPOS>MOLECULE
*****
 27 29 0 0 0
SMALL
GASTEIGER

@<TRIPOS>ATOM
      1 N          -8.4280  -16.3342   22.3115 N.pl3   1  UNL1       -0.3021
      2 C          -9.8707  -16.3855   21.9043 C.ar    1  UNL1        0.0481
      3 C         -10.9475  -16.2312   22.9371 C.ar    1  UNL1        0.0145
      4 C         -12.3903  -16.2825   22.5298 C.ar    1  UNL1        0.0013
      5 C         -12.7562  -16.4882   21.0898 C.ar    1  UNL1        0.0001
      6 C         -11.6794  -16.6425   20.0569 C.ar    1  UNL1        0.0013
      7 C         -10.2367  -16.5912   20.4642 C.ar    1  UNL1        0.0145
      8 C          -7.5021  -17.4526   21.9347 C.3     1  UNL1        0.1095
      9 C          -7.8326  -18.8632   22.3234 C.3     1  UNL1        0.1073
     10 N          -9.0307  -19.1435   23.1812 N.3     1  UNL1       -0.2704
     11 C         -10.2917  -19.8251   22.7390 C.3     1  UNL1        0.0722
     12 C         -11.2185  -19.8944   23.9163 C.3     1  UNL1        0.0188
     13 C         -10.5304  -19.2556   25.0862 C.3     1  UNL1        0.0188
     14 C          -9.1783  -18.7915   24.6318 C.3     1  UNL1        0.0722
     15 C          -6.9650  -19.9933   21.8542 C.3     1  UNL1        0.1597
     16 O          -6.8358  -20.2808   20.3878 O.3     1  UNL1       -0.3523
     17 C          -7.7048  -19.5573   19.4022 C.3     1  UNL1        0.1421
     18 C          -8.7868  -21.2900   17.7968 C.3     1  UNL1        0.0026
     19 C          -8.9264  -20.2271   18.8460 C.3     1  UNL1        0.0297
     20 C         -10.2874  -19.8340   19.3390 C.3     1  UNL1        0.0026
     21 C          -7.9111  -15.1646   23.0956 C.3     1  UNL1        0.1177
     22 C          -7.5315  -15.3364   24.5366 C.ar    1  UNL1       -0.0024
     23 C          -6.0851  -15.4030   24.9282 C.ar    1  UNL1       -0.0026
     24 C          -5.7054  -15.5749   26.3692 C.ar    1  UNL1       -0.0003
     25 C          -6.7722  -15.6801   27.4184 C.ar    1  UNL1       -0.0000
     26 C          -8.2186  -15.6135   27.0267 C.ar    1  UNL1       -0.0003
     27 C          -8.5982  -15.4417   25.5858 C.ar    1  UNL1       -0.0026
@<TRIPOS>BOND
     1    18    19    1
     2    19    20    1
     3    19    17    1
     4    17    16    1
     5    16    15    1
     6    15     9    1
     7     9     8    1
     8     8     1    1
     9     1    21    1
    10    21    22    1
    11    22    23   ar
    12    23    24   ar
    13    24    25   ar
    14    25    26   ar
    15    26    27   ar
    16     1     2    1
    17     2     3   ar
    18     3     4   ar
    19     4     5   ar
    20     5     6   ar
    21     6     7   ar
    22     9    10    1
    23    10    11    1
    24    11    12    1
    25    12    13    1
    26    13    14    1
    27    27    22   ar
    28     7     2   ar
    29    14    10    1
