@<TRIPOS>MOLECULE
*****
 24 27 0 0 0
SMALL
GASTEIGER

@<TRIPOS>ATOM
      1 O          -8.4750  -19.4722   20.6184 O.2     1  UNL1       -0.2448
      2 C          -8.8899  -18.1410   21.1713 C.2     1  UNL1        0.3428
      3 C         -10.3456  -17.8119   21.3215 C.2     1  UNL1        0.0966
      4 C         -11.2066  -17.1343   20.2971 C.2     1  UNL1        0.1049
      5 N         -12.5890  -17.0063   20.8651 N.2     1  UNL1       -0.2475
      6 C         -12.5824  -17.6049   22.2404 C.2     1  UNL1        0.0676
      7 C         -13.6598  -17.7610   23.2723 C.3     1  UNL1        0.1093
      8 C         -13.3506  -18.4149   24.5865 C.2     1  UNL1        0.1180
      9 O         -14.4280  -18.5709   25.6184 O.2     1  UNL1       -0.5094
     10 C         -11.9641  -18.9128   24.8686 C.2     1  UNL1        0.0439
     11 C         -10.8867  -18.7568   23.8366 C.2     1  UNL1        0.0617
     12 CL         -9.5001  -19.2547   24.1187 Cl      1  UNL1       -0.0821
     13 C         -11.1959  -18.1028   22.5226 C.2     1  UNL1        0.0324
     14 H         -15.2941  -18.2599   25.4421 H       1  UNL1        0.2917
     15 O          -7.8490  -17.1388   21.5741 O.3     1  UNL1       -0.4454
     16 C          -8.2448  -15.9155   22.3467 C.3     1  UNL1        0.2087
     17 C          -7.7960  -15.7485   23.7682 C.3     1  UNL1        0.0445
     18 C          -6.3496  -15.4935   24.0730 C.3     1  UNL1        0.0210
     19 C          -5.9009  -15.3264   25.4945 C.3     1  UNL1        0.0722
     20 N          -6.8986  -15.4144   26.6112 N.3     1  UNL1       -0.2727
     21 C          -8.3449  -15.6694   26.3064 C.3     1  UNL1        0.0722
     22 C          -8.7936  -15.8364   24.8848 C.3     1  UNL1        0.0210
     23 C          -7.1918  -15.5125   25.8482 C.3     1  UNL1        0.0722
     24 C          -7.5976  -15.6636   24.5628 C.3     1  UNL1        0.0210
@<TRIPOS>BOND
     1     1     2    2
     2     2    15    1
     3    15    16    1
     4    16    17    1
     5    17    18    1
     6    18    19    1
     7    19    20    1
     8    20    21    1
     9    21    22    1
    10    20    23    1
    11    23    24    1
    12     2     3    1
    13     3     4    2
    14     4     5    1
    15     5     6    2
    16     6     7    1
    17     7     8    1
    18     8     9    1
    19     8    10    2
    20    10    11    1
    21    11    12    1
    22    11    13    2
    23    22    17    1
    24    13     3    1
    25    24    17    1
    26    13     6    1
    27     9    14    1
@<TRIPOS>MOLECULE
*****
 24 27 0 0 0
SMALL
GASTEIGER

@<TRIPOS>ATOM
      1 O          -8.8774  -18.4790   20.1642 O.2     1  UNL1       -0.2448
      2 C          -8.6524  -17.9149   21.5357 C.2     1  UNL1        0.3428
      3 C          -9.3711  -18.5007   22.7148 C.2     1  UNL1        0.0966
      4 C          -8.7766  -19.4151   23.7446 C.2     1  UNL1        0.1049
      5 N          -9.8487  -19.7545   24.7373 N.2     1  UNL1       -0.2475
      6 C         -11.1057  -19.0498   24.3211 C.2     1  UNL1        0.0676
      7 C         -12.4810  -19.0136   24.9188 C.3     1  UNL1        0.1093
      8 C         -13.5612  -18.2026   24.2666 C.2     1  UNL1        0.1180
      9 O         -14.9365  -18.1664   24.8643 O.2     1  UNL1       -0.5094
     10 C         -13.2661  -17.4277   23.0166 C.2     1  UNL1        0.0439
     11 C         -11.8907  -17.4639   22.4189 C.2     1  UNL1        0.0617
     12 CL        -11.5956  -16.6890   21.1689 Cl      1  UNL1       -0.0821
     13 C         -10.8106  -18.2749   23.0711 C.2     1  UNL1        0.0324
     14 H         -15.1208  -18.6504   25.6451 H       1  UNL1        0.2917
     15 O          -7.7086  -16.7650   21.7282 O.3     1  UNL1       -0.4454
     16 C          -8.0946  -15.6181   22.6146 C.3     1  UNL1        0.2087
     17 C          -7.6309  -15.5832   24.0406 C.3     1  UNL1        0.0445
     18 C          -8.6103  -15.8113   25.1536 C.3     1  UNL1        0.0210
     19 C          -8.1464  -15.7764   26.5797 C.3     1  UNL1        0.0722
     20 N          -6.7032  -15.5133   26.8927 N.3     1  UNL1       -0.2727
     21 C          -5.7238  -15.2852   25.7797 C.3     1  UNL1        0.0722
     22 C          -6.1877  -15.3201   24.3536 C.3     1  UNL1        0.0210
     23 C          -6.9103  -15.5229   26.0959 C.3     1  UNL1        0.0722
     24 C          -7.3296  -15.5545   24.8064 C.3     1  UNL1        0.0210
@<TRIPOS>BOND
     1     1     2    2
     2     2    15    1
     3    15    16    1
     4    16    17    1
     5    17    18    1
     6    18    19    1
     7    19    20    1
     8    20    21    1
     9    21    22    1
    10    20    23    1
    11    23    24    1
    12     2     3    1
    13     3     4    2
    14     4     5    1
    15     5     6    2
    16     6     7    1
    17     7     8    1
    18     8     9    1
    19     8    10    2
    20    10    11    1
    21    11    12    1
    22    11    13    2
    23    22    17    1
    24    13     3    1
    25    24    17    1
    26    13     6    1
    27     9    14    1
@<TRIPOS>MOLECULE
*****
 24 27 0 0 0
SMALL
GASTEIGER

@<TRIPOS>ATOM
      1 O          -8.9801  -20.0288   19.5498 O.2     1  UNL1       -0.2448
      2 C          -9.0766  -18.8499   20.4722 C.2     1  UNL1        0.3428
      3 C         -10.4181  -18.2716   20.8125 C.2     1  UNL1        0.0966
      4 C         -11.2621  -17.4149   19.9159 C.2     1  UNL1        0.1049
      5 N         -12.5168  -17.0623   20.6585 N.2     1  UNL1       -0.2475
      6 C         -12.4483  -17.7011   22.0140 C.2     1  UNL1        0.0676
      7 C         -13.3994  -17.6987   23.1738 C.3     1  UNL1        0.1093
      8 C         -13.0534  -18.4438   24.4290 C.2     1  UNL1        0.1180
      9 O         -14.0046  -18.4414   25.5888 O.2     1  UNL1       -0.5094
     10 C         -11.7564  -19.1912   24.5242 C.2     1  UNL1        0.0439
     11 C         -10.8052  -19.1935   23.3642 C.2     1  UNL1        0.0617
     12 CL         -9.5082  -19.9409   23.4594 Cl      1  UNL1       -0.0821
     13 C         -11.1512  -18.4485   22.1092 C.2     1  UNL1        0.0324
     14 H         -14.8148  -17.9746   25.5294 H       1  UNL1        0.2917
     15 O          -7.8314  -18.2493   21.0543 O.3     1  UNL1       -0.4454
     16 C          -6.9712  -19.0570   21.9805 C.3     1  UNL1        0.2087
     17 C          -5.5663  -19.4050   21.5869 C.3     1  UNL1        0.0445
     18 C          -4.4095  -18.8305   22.3497 C.3     1  UNL1        0.0210
     19 C          -3.0046  -19.1786   21.9560 C.3     1  UNL1        0.0722
     20 N          -2.7564  -20.1011   20.7996 N.3     1  UNL1       -0.2727
     21 C          -3.9132  -20.6755   20.0368 C.3     1  UNL1        0.0722
     22 C          -5.3181  -20.3275   20.4305 C.3     1  UNL1        0.0210
     23 C          -3.5438  -19.9394   20.9780 C.3     1  UNL1        0.0722
     24 C          -4.8142  -19.6248   21.3339 C.3     1  UNL1        0.0210
@<TRIPOS>BOND
     1     1     2    2
     2     2    15    1
     3    15    16    1
     4    16    17    1
     5    17    18    1
     6    18    19    1
     7    19    20    1
     8    20    21    1
     9    21    22    1
    10    20    23    1
    11    23    24    1
    12     2     3    1
    13     3     4    2
    14     4     5    1
    15     5     6    2
    16     6     7    1
    17     7     8    1
    18     8     9    1
    19     8    10    2
    20    10    11    1
    21    11    12    1
    22    11    13    2
    23    22    17    1
    24    13     3    1
    25    24    17    1
    26    13     6    1
    27     9    14    1
@<TRIPOS>MOLECULE
*****
 24 27 0 0 0
SMALL
GASTEIGER

@<TRIPOS>ATOM
      1 O          -9.1338  -18.9145   19.2684 O.2     1  UNL1       -0.2448
      2 C          -8.3398  -18.8577   20.5398 C.2     1  UNL1        0.3428
      3 C          -8.9975  -19.1768   21.8496 C.2     1  UNL1        0.0966
      4 C          -8.4154  -20.0181   22.9466 C.2     1  UNL1        0.1049
      5 N          -9.4109  -20.0719   24.0674 N.2     1  UNL1       -0.2475
      6 C         -10.6082  -19.2638   23.6631 C.2     1  UNL1        0.0676
      7 C         -11.8981  -18.9602   24.3659 C.3     1  UNL1        0.1093
      8 C         -12.9326  -18.1034   23.6981 C.2     1  UNL1        0.1180
      9 O         -14.2224  -17.7999   24.4009 O.2     1  UNL1       -0.5094
     10 C         -12.6771  -17.5503   22.3274 C.2     1  UNL1        0.0439
     11 C         -11.3871  -17.8539   21.6246 C.2     1  UNL1        0.0617
     12 CL        -11.1316  -17.3007   20.2539 Cl      1  UNL1       -0.0821
     13 C         -10.3527  -18.7106   22.2924 C.2     1  UNL1        0.0324
     14 H         -14.3820  -18.1454   25.2571 H       1  UNL1        0.2917
     15 O          -6.8882  -18.4819   20.5013 O.3     1  UNL1       -0.4454
     16 C          -5.8676  -19.4779   20.0362 C.3     1  UNL1        0.2087
     17 C          -4.4095  -19.2299   20.2860 C.3     1  UNL1        0.0445
     18 C          -3.7931  -19.6335   21.5926 C.3     1  UNL1        0.0210
     19 C          -2.3350  -19.3855   21.8423 C.3     1  UNL1        0.0722
     20 N          -1.4933  -18.7338   20.7855 N.3     1  UNL1       -0.2727
     21 C          -2.1097  -18.3302   19.4789 C.3     1  UNL1        0.0722
     22 C          -3.5678  -18.5782   19.2292 C.3     1  UNL1        0.0210
     23 C          -2.2877  -18.8493   20.6028 C.3     1  UNL1        0.0722
     24 C          -3.6062  -19.0735   20.3769 C.3     1  UNL1        0.0210
@<TRIPOS>BOND
     1     1     2    2
     2     2    15    1
     3    15    16    1
     4    16    17    1
     5    17    18    1
     6    18    19    1
     7    19    20    1
     8    20    21    1
     9    21    22    1
    10    20    23    1
    11    23    24    1
    12     2     3    1
    13     3     4    2
    14     4     5    1
    15     5     6    2
    16     6     7    1
    17     7     8    1
    18     8     9    1
    19     8    10    2
    20    10    11    1
    21    11    12    1
    22    11    13    2
    23    22    17    1
    24    13     3    1
    25    24    17    1
    26    13     6    1
    27     9    14    1
@<TRIPOS>MOLECULE
*****
 24 27 0 0 0
SMALL
GASTEIGER

@<TRIPOS>ATOM
      1 O          -7.8205  -15.6108   22.3488 O.2     1  UNL1       -0.2448
      2 C          -7.7881  -17.0228   22.8541 C.2     1  UNL1        0.3428
      3 C          -7.1854  -18.1074   22.0113 C.2     1  UNL1        0.0966
      4 C          -7.9228  -18.9841   21.0430 C.2     1  UNL1        0.1049
      5 N          -6.9326  -19.9242   20.4222 N.2     1  UNL1       -0.2475
      6 C          -5.5832  -19.6286   21.0068 C.2     1  UNL1        0.0676
      7 C          -4.2324  -20.2369   20.7717 C.3     1  UNL1        0.1093
      8 C          -3.0377  -19.7222   21.5187 C.2     1  UNL1        0.1180
      9 O          -1.6869  -20.3304   21.2836 O.2     1  UNL1       -0.5094
     10 C          -3.1940  -18.5993   22.5009 C.2     1  UNL1        0.0439
     11 C          -4.5449  -17.9911   22.7360 C.2     1  UNL1        0.0617
     12 CL         -4.7012  -16.8682   23.7182 Cl      1  UNL1       -0.0821
     13 C          -5.7394  -18.5057   21.9890 C.2     1  UNL1        0.0324
     14 H          -1.5893  -21.0319   20.6701 H       1  UNL1        0.2917
     15 O          -8.3585  -17.3500   24.2023 O.3     1  UNL1       -0.4454
     16 C          -9.8445  -17.4400   24.3863 C.3     1  UNL1        0.2087
     17 C         -10.7473  -17.4826   23.1892 C.3     1  UNL1        0.0445
     18 C         -11.3527  -16.2160   22.6609 C.3     1  UNL1        0.0210
     19 C         -12.2554  -16.2586   21.4637 C.3     1  UNL1        0.0722
     20 N         -12.5528  -17.5679   20.7949 N.3     1  UNL1       -0.2727
     21 C         -11.9474  -18.8346   21.3232 C.3     1  UNL1        0.0722
     22 C         -11.0446  -18.7919   22.5204 C.3     1  UNL1        0.0210
     23 C         -12.0522  -17.5945   21.4480 C.3     1  UNL1        0.0722
     24 C         -11.2359  -17.5561   22.5305 C.3     1  UNL1        0.0210
@<TRIPOS>BOND
     1     1     2    2
     2     2    15    1
     3    15    16    1
     4    16    17    1
     5    17    18    1
     6    18    19    1
     7    19    20    1
     8    20    21    1
     9    21    22    1
    10    20    23    1
    11    23    24    1
    12     2     3    1
    13     3     4    2
    14     4     5    1
    15     5     6    2
    16     6     7    1
    17     7     8    1
    18     8     9    1
    19     8    10    2
    20    10    11    1
    21    11    12    1
    22    11    13    2
    23    22    17    1
    24    13     3    1
    25    24    17    1
    26    13     6    1
    27     9    14    1
@<TRIPOS>MOLECULE
*****
 24 27 0 0 0
SMALL
GASTEIGER

@<TRIPOS>ATOM
      1 O          -7.6972  -16.6951   21.5418 O.2     1  UNL1       -0.2448
      2 C          -8.1686  -18.1064   21.3520 C.2     1  UNL1        0.3428
      3 C          -9.0152  -18.7620   22.4025 C.2     1  UNL1        0.0966
      4 C          -8.6114  -19.9226   23.2626 C.2     1  UNL1        0.1049
      5 N          -9.7609  -20.2499   24.1689 N.2     1  UNL1       -0.2475
      6 C         -10.8752  -19.2916   23.8690 C.2     1  UNL1        0.0676
      7 C         -12.2500  -19.1376   24.4489 C.3     1  UNL1        0.1093
      8 C         -13.1639  -18.0639   23.9370 C.2     1  UNL1        0.1180
      9 O         -14.5387  -17.9098   24.5169 O.2     1  UNL1       -0.5094
     10 C         -12.7031  -17.1443   22.8452 C.2     1  UNL1        0.0439
     11 C         -11.3282  -17.2984   22.2653 C.2     1  UNL1        0.0617
     12 CL        -10.8674  -16.3787   21.1736 Cl      1  UNL1       -0.0821
     13 C         -10.4144  -18.3720   22.7772 C.2     1  UNL1        0.0324
     14 H         -14.8265  -18.4843   25.1989 H       1  UNL1        0.2917
     15 O          -7.7935  -18.8621   20.1118 O.3     1  UNL1       -0.4454
     16 C          -6.7551  -19.9427   20.1771 C.3     1  UNL1        0.2087
     17 C          -5.3648  -19.6200   20.6385 C.3     1  UNL1        0.0445
     18 C          -5.0627  -19.5321   22.1051 C.3     1  UNL1        0.0210
     19 C          -3.6724  -19.2093   22.5663 C.3     1  UNL1        0.0722
     20 N          -2.5842  -18.9745   21.5610 N.3     1  UNL1       -0.2727
     21 C          -2.8863  -19.0625   20.0944 C.3     1  UNL1        0.0722
     22 C          -4.2767  -19.3852   19.6331 C.3     1  UNL1        0.0210
     23 C          -3.3306  -19.1485   21.2603 C.3     1  UNL1        0.0722
     24 C          -4.5878  -19.4403   20.8431 C.3     1  UNL1        0.0210
@<TRIPOS>BOND
     1     1     2    2
     2     2    15    1
     3    15    16    1
     4    16    17    1
     5    17    18    1
     6    18    19    1
     7    19    20    1
     8    20    21    1
     9    21    22    1
    10    20    23    1
    11    23    24    1
    12     2     3    1
    13     3     4    2
    14     4     5    1
    15     5     6    2
    16     6     7    1
    17     7     8    1
    18     8     9    1
    19     8    10    2
    20    10    11    1
    21    11    12    1
    22    11    13    2
    23    22    17    1
    24    13     3    1
    25    24    17    1
    26    13     6    1
    27     9    14    1
@<TRIPOS>MOLECULE
*****
 24 27 0 0 0
SMALL
GASTEIGER

@<TRIPOS>ATOM
      1 O          -8.0129  -19.0215   19.6895 O.2     1  UNL1       -0.2448
      2 C          -7.9007  -19.2039   21.1742 C.2     1  UNL1        0.3428
      3 C          -6.6497  -18.7860   21.8887 C.2     1  UNL1        0.0966
      4 C          -5.3139  -19.4620   21.7962 C.2     1  UNL1        0.1049
      5 N          -4.3536  -18.7126   22.6715 N.2     1  UNL1       -0.2475
      6 C          -5.0959  -17.5734   23.3049 C.2     1  UNL1        0.0676
      7 C          -4.6630  -16.5007   24.2598 C.3     1  UNL1        0.1093
      8 C          -5.6492  -15.4732   24.7309 C.2     1  UNL1        0.1180
      9 O          -5.2163  -14.4005   25.6857 O.2     1  UNL1       -0.5094
     10 C          -7.0683  -15.5186   24.2471 C.2     1  UNL1        0.0439
     11 C          -7.5012  -16.5915   23.2922 C.2     1  UNL1        0.0617
     12 CL         -8.9203  -16.6368   22.8084 Cl      1  UNL1       -0.0821
     13 C          -6.5150  -17.6188   22.8211 C.2     1  UNL1        0.0324
     14 H          -4.3298  -14.3722   25.9879 H       1  UNL1        0.2917
     15 O          -9.0393  -19.8041   21.9443 O.3     1  UNL1       -0.4454
     16 C         -10.4086  -19.8633   21.3346 C.3     1  UNL1        0.2087
     17 C         -11.1933  -18.6016   21.1291 C.3     1  UNL1        0.0445
     18 C         -12.1484  -18.1318   22.1860 C.3     1  UNL1        0.0210
     19 C         -12.9331  -16.8701   21.9805 C.3     1  UNL1        0.0722
     20 N         -12.7626  -16.0781   20.7181 N.3     1  UNL1       -0.2727
     21 C         -11.8076  -16.5479   19.6612 C.3     1  UNL1        0.0722
     22 C         -11.0229  -17.8096   19.8667 C.3     1  UNL1        0.0210
     23 C         -12.3109  -16.7631   20.7857 C.3     1  UNL1        0.0722
     24 C         -11.6014  -17.9040   20.9714 C.3     1  UNL1        0.0210
@<TRIPOS>BOND
     1     1     2    2
     2     2    15    1
     3    15    16    1
     4    16    17    1
     5    17    18    1
     6    18    19    1
     7    19    20    1
     8    20    21    1
     9    21    22    1
    10    20    23    1
    11    23    24    1
    12     2     3    1
    13     3     4    2
    14     4     5    1
    15     5     6    2
    16     6     7    1
    17     7     8    1
    18     8     9    1
    19     8    10    2
    20    10    11    1
    21    11    12    1
    22    11    13    2
    23    22    17    1
    24    13     3    1
    25    24    17    1
    26    13     6    1
    27     9    14    1
@<TRIPOS>MOLECULE
*****
 24 27 0 0 0
SMALL
GASTEIGER

@<TRIPOS>ATOM
      1 O         -10.9806  -18.4128   20.3907 O.2     1  UNL1       -0.2448
      2 C          -9.7143  -18.5750   21.1782 C.2     1  UNL1        0.3428
      3 C          -9.7730  -18.7319   22.6688 C.2     1  UNL1        0.0966
      4 C         -10.3216  -19.9150   23.4099 C.2     1  UNL1        0.1049
      5 N         -10.1810  -19.6475   24.8791 N.2     1  UNL1       -0.2475
      6 C          -9.5455  -18.2990   25.0461 C.2     1  UNL1        0.0676
      7 C          -9.1638  -17.5134   26.2655 C.3     1  UNL1        0.1093
      8 C          -8.5300  -16.1618   26.1188 C.2     1  UNL1        0.1180
      9 O          -8.1483  -15.3761   27.3382 O.2     1  UNL1       -0.5094
     10 C          -8.2778  -15.5959   24.7527 C.2     1  UNL1        0.0439
     11 C          -8.6594  -16.3817   23.5333 C.2     1  UNL1        0.0617
     12 CL         -8.4073  -15.8158   22.1672 Cl      1  UNL1       -0.0821
     13 C          -9.2933  -17.7332   23.6800 C.2     1  UNL1        0.0324
     14 H          -8.3059  -15.7296   28.1916 H       1  UNL1        0.2917
     15 O          -8.3893  -18.5804   20.4750 O.3     1  UNL1       -0.4454
     16 C          -7.5042  -19.7890   20.5521 C.3     1  UNL1        0.2087
     17 C          -6.0761  -19.6462   20.9882 C.3     1  UNL1        0.0445
     18 C          -4.9781  -20.2657   20.1755 C.3     1  UNL1        0.0210
     19 C          -3.5501  -20.1228   20.6117 C.3     1  UNL1        0.0722
     20 N          -3.2201  -19.3604   21.8606 N.3     1  UNL1       -0.2727
     21 C          -4.3181  -18.7409   22.6734 C.3     1  UNL1        0.0722
     22 C          -5.7461  -18.8838   22.2371 C.3     1  UNL1        0.0210
     23 C          -4.0173  -19.4119   21.6616 C.3     1  UNL1        0.0722
     24 C          -5.3086  -19.5410   21.2673 C.3     1  UNL1        0.0210
@<TRIPOS>BOND
     1     1     2    2
     2     2    15    1
     3    15    16    1
     4    16    17    1
     5    17    18    1
     6    18    19    1
     7    19    20    1
     8    20    21    1
     9    21    22    1
    10    20    23    1
    11    23    24    1
    12     2     3    1
    13     3     4    2
    14     4     5    1
    15     5     6    2
    16     6     7    1
    17     7     8    1
    18     8     9    1
    19     8    10    2
    20    10    11    1
    21    11    12    1
    22    11    13    2
    23    22    17    1
    24    13     3    1
    25    24    17    1
    26    13     6    1
    27     9    14    1
@<TRIPOS>MOLECULE
*****
 24 27 0 0 0
SMALL
GASTEIGER

@<TRIPOS>ATOM
      1 O          -6.5121  -17.7894   21.7379 O.2     1  UNL1       -0.2448
      2 C          -7.2217  -19.0578   21.3672 C.2     1  UNL1        0.3428
      3 C          -8.6573  -19.0151   20.9342 C.2     1  UNL1        0.0966
      4 C          -9.1730  -19.3217   19.5595 C.2     1  UNL1        0.1049
      5 N         -10.6636  -19.1543   19.5757 N.2     1  UNL1       -0.2475
      6 C         -11.0690  -18.7444   20.9604 C.2     1  UNL1        0.0676
      7 C         -12.4071  -18.4383   21.5652 C.3     1  UNL1        0.1093
      8 C         -12.5052  -18.0462   23.0098 C.2     1  UNL1        0.1180
      9 O         -13.8433  -17.7401   23.6146 O.2     1  UNL1       -0.5094
     10 C         -11.2652  -17.9601   23.8495 C.2     1  UNL1        0.0439
     11 C          -9.9271  -18.2662   23.2446 C.2     1  UNL1        0.0617
     12 CL         -8.6871  -18.1802   24.0842 Cl      1  UNL1       -0.0821
     13 C          -9.8290  -18.6583   21.8001 C.2     1  UNL1        0.0324
     14 H         -14.6179  -17.7939   23.0901 H       1  UNL1        0.2917
     15 O          -6.4959  -20.3690   21.4295 O.3     1  UNL1       -0.4454
     16 C          -5.3667  -20.6470   20.4820 C.3     1  UNL1        0.2087
     17 C          -4.1514  -19.7679   20.4850 C.3     1  UNL1        0.0445
     18 C          -3.8911  -18.8439   19.3324 C.3     1  UNL1        0.0210
     19 C          -2.6758  -17.9648   19.3356 C.3     1  UNL1        0.0722
     20 N          -1.7206  -18.0097   20.4913 N.3     1  UNL1       -0.2727
     21 C          -1.9809  -18.9337   21.6439 C.3     1  UNL1        0.0722
     22 C          -3.1962  -19.8128   21.6408 C.3     1  UNL1        0.0210
     23 C          -2.3730  -18.5101   20.5343 C.3     1  UNL1        0.0722
     24 C          -3.4719  -19.3050   20.5316 C.3     1  UNL1        0.0210
@<TRIPOS>BOND
     1     1     2    2
     2     2    15    1
     3    15    16    1
     4    16    17    1
     5    17    18    1
     6    18    19    1
     7    19    20    1
     8    20    21    1
     9    21    22    1
    10    20    23    1
    11    23    24    1
    12     2     3    1
    13     3     4    2
    14     4     5    1
    15     5     6    2
    16     6     7    1
    17     7     8    1
    18     8     9    1
    19     8    10    2
    20    10    11    1
    21    11    12    1
    22    11    13    2
    23    22    17    1
    24    13     3    1
    25    24    17    1
    26    13     6    1
    27     9    14    1
