@<TRIPOS>MOLECULE
*****
 35 39 0 0 0
SMALL
GASTEIGER

@<TRIPOS>ATOM
      1 C           7.4138   -3.3467   24.2945 C.2     1  UNL1        0.2470
      2 O           8.7756   -2.7764   24.0291 O.2     1  UNL1       -0.2820
      3 C           7.2764   -4.6623   25.0017 C.2     1  UNL1        0.2880
      4 O           7.2294   -5.9369   24.2122 O.2     1  UNL1       -0.2664
      5 N           7.1860   -4.7034   26.4983 N.am    1  UNL1       -0.2700
      6 C           7.2330   -3.4288   27.2879 C.3     1  UNL1        0.1153
      7 C           7.1425   -3.4700   28.7846 C.3     1  UNL1        0.1152
      8 N           7.0051   -4.7857   29.4918 N.am    1  UNL1       -0.2726
      9 C           6.9147   -4.8269   30.9885 C.2     1  UNL1        0.2491
     10 O           6.7773   -6.1426   31.6957 O.2     1  UNL1       -0.2699
     11 C           6.9581   -6.0602   28.7023 C.3     1  UNL1        0.1152
     12 C           7.0486   -6.0191   27.2056 C.3     1  UNL1        0.1153
     13 C           6.9617   -3.5523   31.7780 C.ar    1  UNL1        0.0536
     14 C           5.6883   -2.8476   32.1410 C.ar    1  UNL1        0.0045
     15 C           5.7353   -1.5730   32.9305 C.ar    1  UNL1        0.0001
     16 C           7.0557   -1.0032   33.3570 C.ar    1  UNL1        0.0000
     17 C           8.3290   -1.7079   32.9941 C.ar    1  UNL1        0.0001
     18 C           8.2820   -2.9825   32.2046 C.ar    1  UNL1        0.0045
     19 C           5.8670   -3.5056   21.2857 C.2     1  UNL1        0.1448
     20 C           5.0106   -3.3962   20.0591 C.2     1  UNL1        0.1335
     21 N           3.8215   -2.4819   20.0537 N.2     1  UNL1       -0.2211
     22 C           3.4888   -1.6769   21.2750 C.2     1  UNL1        0.1799
     23 C           4.3453   -1.7862   22.5015 C.2     1  UNL1        0.1058
     24 N           4.2654   -1.1217   23.8439 N.2     1  UNL1       -0.2445
     25 C           5.4052   -1.6254   24.6789 C.2     1  UNL1        0.0984
     26 C           6.1895   -2.6012   23.8526 C.2     1  UNL1        0.0531
     27 C           5.5344   -2.7006   22.5069 C.3     1  UNL1        0.1284
     28 N           2.2997   -0.7625   21.2695 N.ar    1  UNL1       -0.1894
     29 C           1.1484   -0.8191   20.3097 C.ar    1  UNL1        0.2027
     30 N           0.1903    0.2774   20.6699 N.ar    1  UNL1       -0.2072
     31 C           0.7495    1.0116   21.8525 C.ar    1  UNL1        0.1613
     32 C           0.1162    2.1829   22.5432 C.3     1  UNL1        0.0756
     33 N           2.0532    0.3689   22.2230 N.ar    1  UNL1       -0.1474
     34 C           8.3731   -3.9407   20.7563 C.3     1  UNL1        0.2521
     35 O           7.0561   -4.4199   21.2910 O.2     1  UNL1       -0.4734
@<TRIPOS>BOND
     1    34    35    1
     2    35    19    1
     3    19    20    2
     4    20    21    1
     5    21    22    2
     6    22    28    1
     7    28    29   ar
     8    29    30   ar
     9    30    31   ar
    10    31    32    1
    11    31    33   ar
    12    22    23    1
    13    23    24    2
    14    24    25    1
    15    25    26    2
    16    26     1    1
    17     1     2    2
    18     1     3    1
    19     3     4    2
    20     3     5   am
    21     5     6    1
    22     6     7    1
    23     7     8    1
    24     8     9   am
    25     9    10    2
    26     9    13    1
    27    13    14   ar
    28    14    15   ar
    29    15    16   ar
    30    16    17   ar
    31    17    18   ar
    32     8    11    1
    33    11    12    1
    34    26    27    1
    35    27    19    1
    36    33    28   ar
    37    27    23    1
    38    12     5    1
    39    18    13   ar
@<TRIPOS>MOLECULE
*****
 35 39 0 0 0
SMALL
GASTEIGER

@<TRIPOS>ATOM
      1 C           6.1904   -0.8598   26.3863 C.2     1  UNL1        0.2470
      2 O           6.4394    0.4266   25.6561 O.2     1  UNL1       -0.2820
      3 C           6.1570   -2.1559   25.6320 C.2     1  UNL1        0.2880
      4 O           6.8081   -3.3772   26.2103 O.2     1  UNL1       -0.2664
      5 N           5.4724   -2.2307   24.2995 N.am    1  UNL1       -0.2700
      6 C           4.8212   -1.0094   23.7211 C.3     1  UNL1        0.1153
      7 C           4.1366   -1.0843   22.3886 C.3     1  UNL1        0.1152
      8 N           4.1031   -2.3805   21.6344 N.am    1  UNL1       -0.2726
      9 C           3.4185   -2.4554   20.3018 C.2     1  UNL1        0.2491
     10 O           3.3850   -3.7515   19.5476 O.2     1  UNL1       -0.2699
     11 C           4.7542   -3.6018   22.2127 C.3     1  UNL1        0.1152
     12 C           5.4388   -3.5269   23.5452 C.3     1  UNL1        0.1153
     13 C           2.7674   -1.2341   19.7235 C.ar    1  UNL1        0.0536
     14 C           3.4958   -0.4060   18.7067 C.ar    1  UNL1        0.0045
     15 C           2.8446    0.8153   18.1284 C.ar    1  UNL1        0.0001
     16 C           1.4651    1.2086   18.5668 C.ar    1  UNL1        0.0000
     17 C           0.7367    0.3806   19.5835 C.ar    1  UNL1        0.0001
     18 C           1.3878   -0.8407   20.1619 C.ar    1  UNL1        0.0045
     19 C           3.2539   -0.5763   28.0497 C.2     1  UNL1        0.1448
     20 C           2.1056   -0.4679   29.0087 C.2     1  UNL1        0.1335
     21 N           2.3570   -0.5053   30.4869 N.2     1  UNL1       -0.2211
     22 C           3.7568   -0.6511   31.0063 C.2     1  UNL1        0.1799
     23 C           4.9050   -0.7594   30.0472 C.2     1  UNL1        0.1058
     24 N           6.3817   -0.9105   30.2626 N.2     1  UNL1       -0.2445
     25 C           7.0430   -0.9664   28.9174 C.2     1  UNL1        0.0984
     26 C           5.9749   -0.8500   27.8707 C.2     1  UNL1        0.0531
     27 C           4.6536   -0.7220   28.5689 C.3     1  UNL1        0.1284
     28 N           4.0081   -0.6884   32.4847 N.ar    1  UNL1       -0.1894
     29 C           4.3482   -1.9069   33.2907 C.ar    1  UNL1        0.2027
     30 N           4.5138   -1.4854   34.7207 N.ar    1  UNL1       -0.2072
     31 C           4.2760   -0.0064   34.7984 C.ar    1  UNL1        0.1613
     32 C           4.3396    0.8329   36.0401 C.3     1  UNL1        0.0756
     33 N           3.9635    0.4862   33.4165 N.ar    1  UNL1       -0.1474
     34 C           2.5147    0.7239   25.9253 C.3     1  UNL1        0.2521
     35 O           3.0024   -0.5389   26.5714 O.2     1  UNL1       -0.4734
@<TRIPOS>BOND
     1    34    35    1
     2    35    19    1
     3    19    20    2
     4    20    21    1
     5    21    22    2
     6    22    28    1
     7    28    29   ar
     8    29    30   ar
     9    30    31   ar
    10    31    32    1
    11    31    33   ar
    12    22    23    1
    13    23    24    2
    14    24    25    1
    15    25    26    2
    16    26     1    1
    17     1     2    2
    18     1     3    1
    19     3     4    2
    20     3     5   am
    21     5     6    1
    22     6     7    1
    23     7     8    1
    24     8     9   am
    25     9    10    2
    26     9    13    1
    27    13    14   ar
    28    14    15   ar
    29    15    16   ar
    30    16    17   ar
    31    17    18   ar
    32     8    11    1
    33    11    12    1
    34    26    27    1
    35    27    19    1
    36    33    28   ar
    37    27    23    1
    38    12     5    1
    39    18    13   ar
@<TRIPOS>MOLECULE
*****
 35 39 0 0 0
SMALL
GASTEIGER

@<TRIPOS>ATOM
      1 C           1.5512    3.1217   23.1060 C.2     1  UNL1        0.2470
      2 O           2.1843    4.4815   23.1169 O.2     1  UNL1       -0.2820
      3 C           0.2780    2.8812   23.8618 C.2     1  UNL1        0.2880
      4 O          -1.0454    3.0981   23.1899 O.2     1  UNL1       -0.2664
      5 N           0.3283    2.4238   25.2894 N.am    1  UNL1       -0.2700
      6 C           1.6518    2.2069   25.9614 C.3     1  UNL1        0.1153
      7 C           1.7021    1.7494   27.3890 C.3     1  UNL1        0.1152
      8 N           0.4289    1.5089   28.1448 N.am    1  UNL1       -0.2726
      9 C           0.4791    1.0514   29.5724 C.2     1  UNL1        0.2491
     10 O          -0.7941    0.8109   30.3282 O.2     1  UNL1       -0.2699
     11 C          -0.8946    1.7257   27.4729 C.3     1  UNL1        0.1152
     12 C          -0.9448    2.1832   26.0452 C.3     1  UNL1        0.1153
     13 C           1.8026    0.8346   30.2443 C.ar    1  UNL1        0.0536
     14 C           2.4974    1.9796   30.9197 C.ar    1  UNL1        0.0045
     15 C           3.8209    1.7627   31.5916 C.ar    1  UNL1        0.0001
     16 C           4.4495    0.4007   31.5881 C.ar    1  UNL1        0.0000
     17 C           3.7547   -0.7442   30.9128 C.ar    1  UNL1        0.0001
     18 C           2.4312   -0.5274   30.2410 C.ar    1  UNL1        0.0045
     19 C           1.0509    2.2830   19.8630 C.2     1  UNL1        0.1448
     20 C           1.0087    1.7155   18.4752 C.2     1  UNL1        0.1335
     21 N           1.8565    0.5291   18.1239 N.2     1  UNL1       -0.2211
     22 C           2.7468   -0.0899   19.1605 C.2     1  UNL1        0.1799
     23 C           2.7891    0.4777   20.5483 C.2     1  UNL1        0.1058
     24 N           3.5631    0.0828   21.7710 N.2     1  UNL1       -0.2445
     25 C           3.1936    1.0252   22.8779 C.2     1  UNL1        0.0984
     26 C           2.1912    2.0025   22.3394 C.2     1  UNL1        0.0531
     27 C           1.9412    1.6641   20.8996 C.3     1  UNL1        0.1284
     28 N           3.5947   -1.2764   18.8092 N.ar    1  UNL1       -0.1894
     29 C           4.8043   -1.2640   17.9222 C.ar    1  UNL1        0.2027
     30 N           5.3390   -2.6635   17.8480 N.ar    1  UNL1       -0.2072
     31 C           4.4598   -3.5408   18.6891 C.ar    1  UNL1        0.1613
     32 C           4.6288   -5.0164   18.8992 C.3     1  UNL1        0.0756
     33 N           3.3817   -2.6835   19.2831 N.ar    1  UNL1       -0.1474
     34 C          -1.2152    3.5470   19.7319 C.3     1  UNL1        0.2521
     35 O           0.2030    3.4695   20.2143 O.2     1  UNL1       -0.4734
@<TRIPOS>BOND
     1    34    35    1
     2    35    19    1
     3    19    20    2
     4    20    21    1
     5    21    22    2
     6    22    28    1
     7    28    29   ar
     8    29    30   ar
     9    30    31   ar
    10    31    32    1
    11    31    33   ar
    12    22    23    1
    13    23    24    2
    14    24    25    1
    15    25    26    2
    16    26     1    1
    17     1     2    2
    18     1     3    1
    19     3     4    2
    20     3     5   am
    21     5     6    1
    22     6     7    1
    23     7     8    1
    24     8     9   am
    25     9    10    2
    26     9    13    1
    27    13    14   ar
    28    14    15   ar
    29    15    16   ar
    30    16    17   ar
    31    17    18   ar
    32     8    11    1
    33    11    12    1
    34    26    27    1
    35    27    19    1
    36    33    28   ar
    37    27    23    1
    38    12     5    1
    39    18    13   ar
@<TRIPOS>MOLECULE
*****
 35 39 0 0 0
SMALL
GASTEIGER

@<TRIPOS>ATOM
      1 C           6.9572   -4.9032   27.2366 C.2     1  UNL1        0.2470
      2 O           6.2211   -6.2102   27.2333 O.2     1  UNL1       -0.2820
      3 C           8.1578   -4.7164   26.3571 C.2     1  UNL1        0.2880
      4 O           9.5360   -4.8985   26.9206 O.2     1  UNL1       -0.2664
      5 N           7.9803   -4.3476   24.9141 N.am    1  UNL1       -0.2700
      6 C           6.6021   -4.1655   24.3505 C.3     1  UNL1        0.1153
      7 C           6.4246   -3.7966   22.9074 C.3     1  UNL1        0.1152
      8 N           7.6252   -3.6098   22.0279 N.am    1  UNL1       -0.2726
      9 C           7.4477   -3.2409   20.5848 C.2     1  UNL1        0.2491
     10 O           8.6484   -3.0541   19.7053 O.2     1  UNL1       -0.2699
     11 C           9.0034   -3.7918   22.5914 C.3     1  UNL1        0.1152
     12 C           9.1809   -4.1607   24.0345 C.3     1  UNL1        0.1153
     13 C           6.0696   -3.0589   20.0213 C.ar    1  UNL1        0.0536
     14 C           5.4507   -1.6931   19.9798 C.ar    1  UNL1        0.0045
     15 C           4.0725   -1.5111   19.4162 C.ar    1  UNL1        0.0001
     16 C           3.3133   -2.6948   18.8943 C.ar    1  UNL1        0.0000
     17 C           3.9321   -4.0605   18.9358 C.ar    1  UNL1        0.0001
     18 C           5.3103   -4.2425   19.4993 C.ar    1  UNL1        0.0045
     19 C           6.9126   -4.8183   30.6221 C.2     1  UNL1        0.1448
     20 C           6.7906   -4.5327   32.0896 C.2     1  UNL1        0.1335
     21 N           6.2457   -3.2149   32.5545 N.2     1  UNL1       -0.2211
     22 C           5.8226   -2.1824   31.5518 C.2     1  UNL1        0.1799
     23 C           5.9446   -2.4680   30.0843 C.2     1  UNL1        0.1058
     24 N           5.6108   -1.6506   28.8717 N.2     1  UNL1       -0.2445
     25 C           5.9496   -2.4634   27.6573 C.2     1  UNL1        0.0984
     26 C           6.4926   -3.7831   28.1195 C.2     1  UNL1        0.0531
     27 C           6.4895   -3.7859   29.6195 C.3     1  UNL1        0.1284
     28 N           5.2776   -0.8645   32.0168 N.ar    1  UNL1       -0.1894
     29 C           3.8510   -0.5799   32.3825 C.ar    1  UNL1        0.2027
     30 N           3.7553    0.8607   32.7894 N.ar    1  UNL1       -0.2072
     31 C           5.1229    1.4663   32.6752 C.ar    1  UNL1        0.1613
     32 C           5.4859    2.8886   32.9842 C.3     1  UNL1        0.0756
     33 N           6.0637    0.4001   32.1977 N.ar    1  UNL1       -0.1474
     34 C           8.9401   -6.3434   30.0625 C.3     1  UNL1        0.2521
     35 O           7.4575   -6.1362   30.1572 O.2     1  UNL1       -0.4734
@<TRIPOS>BOND
     1    34    35    1
     2    35    19    1
     3    19    20    2
     4    20    21    1
     5    21    22    2
     6    22    28    1
     7    28    29   ar
     8    29    30   ar
     9    30    31   ar
    10    31    32    1
    11    31    33   ar
    12    22    23    1
    13    23    24    2
    14    24    25    1
    15    25    26    2
    16    26     1    1
    17     1     2    2
    18     1     3    1
    19     3     4    2
    20     3     5   am
    21     5     6    1
    22     6     7    1
    23     7     8    1
    24     8     9   am
    25     9    10    2
    26     9    13    1
    27    13    14   ar
    28    14    15   ar
    29    15    16   ar
    30    16    17   ar
    31    17    18   ar
    32     8    11    1
    33    11    12    1
    34    26    27    1
    35    27    19    1
    36    33    28   ar
    37    27    23    1
    38    12     5    1
    39    18    13   ar
@<TRIPOS>MOLECULE
*****
 35 39 0 0 0
SMALL
GASTEIGER

@<TRIPOS>ATOM
      1 C           1.3133    1.3504   25.8259 C.2     1  UNL1        0.2470
      2 O          -0.1300    1.0402   25.5602 O.2     1  UNL1       -0.2820
      3 C           2.0848    2.2082   24.8673 C.2     1  UNL1        0.2880
      4 O           2.1855    3.6869   25.0979 O.2     1  UNL1       -0.2664
      5 N           2.7557    1.5872   23.6781 N.am    1  UNL1       -0.2700
      6 C           2.6550    0.1084   23.4474 C.3     1  UNL1        0.1153
      7 C           3.3258   -0.5126   22.2582 C.3     1  UNL1        0.1152
      8 N           4.0974    0.3452   21.2996 N.am    1  UNL1       -0.2726
      9 C           4.7683   -0.2758   20.1103 C.2     1  UNL1        0.2491
     10 O           5.5399    0.5820   19.1517 O.2     1  UNL1       -0.2699
     11 C           4.1981    1.8239   21.5302 C.3     1  UNL1        0.1152
     12 C           3.5272    2.4449   22.7194 C.3     1  UNL1        0.1153
     13 C           4.6676   -1.7545   19.8797 C.ar    1  UNL1        0.0536
     14 C           3.4083   -2.3413   19.3141 C.ar    1  UNL1        0.0045
     15 C           3.3076   -3.8202   19.0835 C.ar    1  UNL1        0.0001
     16 C           4.4662   -4.7120   19.4184 C.ar    1  UNL1        0.0000
     17 C           5.7254   -4.1252   19.9839 C.ar    1  UNL1        0.0001
     18 C           5.8261   -2.6465   20.2146 C.ar    1  UNL1        0.0045
     19 C           0.5598    1.9962   29.0641 C.2     1  UNL1        0.1448
     20 C           0.4299    2.1139   30.5538 C.2     1  UNL1        0.1335
     21 N           1.3592    1.3509   31.4503 N.2     1  UNL1       -0.2211
     22 C           2.4187    0.4700   30.8572 C.2     1  UNL1        0.1799
     23 C           2.5486    0.3523   29.3675 C.2     1  UNL1        0.1058
     24 N           3.4889   -0.4319   28.5009 N.2     1  UNL1       -0.2445
     25 C           3.1405   -0.1534   27.0688 C.2     1  UNL1        0.0984
     26 C           1.9850    0.8029   27.0502 C.2     1  UNL1        0.0531
     27 C           1.6192    1.1154   28.4710 C.3     1  UNL1        0.1284
     28 N           3.3481   -0.2931   31.7539 N.ar    1  UNL1       -0.1894
     29 C           3.6494    0.0260   33.1882 C.ar    1  UNL1        0.2027
     30 N           4.6269   -0.9929   33.6943 N.ar    1  UNL1       -0.2072
     31 C           4.9298   -1.9418   32.5727 C.ar    1  UNL1        0.1613
     32 C           5.8597   -3.1169   32.6388 C.3     1  UNL1        0.0756
     33 N           4.1394   -1.5093   31.3734 N.ar    1  UNL1       -0.1474
     34 C          -0.0900    4.1977   27.8471 C.3     1  UNL1        0.2521
     35 O          -0.3697    2.7593   28.1676 O.2     1  UNL1       -0.4734
@<TRIPOS>BOND
     1    34    35    1
     2    35    19    1
     3    19    20    2
     4    20    21    1
     5    21    22    2
     6    22    28    1
     7    28    29   ar
     8    29    30   ar
     9    30    31   ar
    10    31    32    1
    11    31    33   ar
    12    22    23    1
    13    23    24    2
    14    24    25    1
    15    25    26    2
    16    26     1    1
    17     1     2    2
    18     1     3    1
    19     3     4    2
    20     3     5   am
    21     5     6    1
    22     6     7    1
    23     7     8    1
    24     8     9   am
    25     9    10    2
    26     9    13    1
    27    13    14   ar
    28    14    15   ar
    29    15    16   ar
    30    16    17   ar
    31    17    18   ar
    32     8    11    1
    33    11    12    1
    34    26    27    1
    35    27    19    1
    36    33    28   ar
    37    27    23    1
    38    12     5    1
    39    18    13   ar
@<TRIPOS>MOLECULE
*****
 35 39 0 0 0
SMALL
GASTEIGER

@<TRIPOS>ATOM
      1 C           2.6578    0.6485   31.0362 C.2     1  UNL1        0.2470
      2 O           2.0119   -0.6631   30.7006 O.2     1  UNL1       -0.2820
      3 C           3.2838    1.4753   29.9524 C.2     1  UNL1        0.2880
      4 O           4.7719    1.4634   29.7648 O.2     1  UNL1       -0.2664
      5 N           2.4215    2.3141   29.0564 N.am    1  UNL1       -0.2700
      6 C           0.9333    2.3261   29.2441 C.3     1  UNL1        0.1153
      7 C           0.0711    3.1649   28.3480 C.3     1  UNL1        0.1152
      8 N           0.6971    3.9918   27.2642 N.am    1  UNL1       -0.2726
      9 C          -0.1651    4.8306   26.3681 C.2     1  UNL1        0.2491
     10 O           0.4609    5.6575   25.2844 O.2     1  UNL1       -0.2699
     11 C           2.1852    3.9798   27.0765 C.3     1  UNL1        0.1152
     12 C           3.0474    3.1410   27.9726 C.3     1  UNL1        0.1153
     13 C          -1.6532    4.8426   26.5558 C.ar    1  UNL1        0.0536
     14 C          -2.4925    3.7484   25.9655 C.ar    1  UNL1        0.0045
     15 C          -3.9807    3.7604   26.1532 C.ar    1  UNL1        0.0001
     16 C          -4.6296    4.8666   26.9311 C.ar    1  UNL1        0.0000
     17 C          -3.7905    5.9607   27.5214 C.ar    1  UNL1        0.0001
     18 C          -2.3023    5.9487   27.3337 C.ar    1  UNL1        0.0045
     19 C           4.6569   -0.4098   33.5569 C.2     1  UNL1        0.1448
     20 C           5.4099   -0.6962   34.8222 C.2     1  UNL1        0.1335
     21 N           5.0879    0.0634   36.0749 N.2     1  UNL1       -0.2211
     22 C           4.0128    1.1095   36.0624 C.2     1  UNL1        0.1799
     23 C           3.2599    1.3959   34.7971 C.2     1  UNL1        0.1058
     24 N           2.1566    2.3623   34.4825 N.2     1  UNL1       -0.2445
     25 C           1.7968    2.1999   33.0354 C.2     1  UNL1        0.0984
     26 C           2.6777    1.1332   32.4556 C.2     1  UNL1        0.0531
     27 C           3.5819    0.6363   33.5444 C.3     1  UNL1        0.1284
     28 N           3.6909    1.8691   37.3151 N.ar    1  UNL1       -0.1894
     29 C           2.7377    1.4351   38.3890 C.ar    1  UNL1        0.2027
     30 N           2.7233    2.4939   39.4515 N.ar    1  UNL1       -0.2072
     31 C           3.6676    3.5821   39.0342 C.ar    1  UNL1        0.1613
     32 C           3.9622    4.8364   39.8024 C.3     1  UNL1        0.0756
     33 N           4.2656    3.1960   37.7139 N.ar    1  UNL1       -0.1474
     34 C           5.3647   -2.6168   32.3830 C.3     1  UNL1        0.2521
     35 O           4.9790   -1.1694   32.3042 O.2     1  UNL1       -0.4734
@<TRIPOS>BOND
     1    34    35    1
     2    35    19    1
     3    19    20    2
     4    20    21    1
     5    21    22    2
     6    22    28    1
     7    28    29   ar
     8    29    30   ar
     9    30    31   ar
    10    31    32    1
    11    31    33   ar
    12    22    23    1
    13    23    24    2
    14    24    25    1
    15    25    26    2
    16    26     1    1
    17     1     2    2
    18     1     3    1
    19     3     4    2
    20     3     5   am
    21     5     6    1
    22     6     7    1
    23     7     8    1
    24     8     9   am
    25     9    10    2
    26     9    13    1
    27    13    14   ar
    28    14    15   ar
    29    15    16   ar
    30    16    17   ar
    31    17    18   ar
    32     8    11    1
    33    11    12    1
    34    26    27    1
    35    27    19    1
    36    33    28   ar
    37    27    23    1
    38    12     5    1
    39    18    13   ar
@<TRIPOS>MOLECULE
*****
 35 39 0 0 0
SMALL
GASTEIGER

@<TRIPOS>ATOM
      1 C           3.2316   -1.0547   20.6560 C.2     1  UNL1        0.2470
      2 O           2.4425   -1.9453   19.7426 O.2     1  UNL1       -0.2820
      3 C           3.4353    0.3891   20.3040 C.2     1  UNL1        0.2880
      4 O           4.7341    0.8385   19.7032 O.2     1  UNL1       -0.2664
      5 N           2.3402    1.3834   20.5529 N.am    1  UNL1       -0.2700
      6 C           1.0413    0.9340   21.1537 C.3     1  UNL1        0.1153
      7 C          -0.0538    1.9284   21.4026 C.3     1  UNL1        0.1152
      8 N           0.1499    3.3722   21.0506 N.am    1  UNL1       -0.2726
      9 C          -0.9452    4.3666   21.2994 C.2     1  UNL1        0.2491
     10 O          -0.7415    5.8104   20.9474 O.2     1  UNL1       -0.2699
     11 C           1.4487    3.8216   20.4497 C.3     1  UNL1        0.1152
     12 C           2.5438    2.8272   20.2009 C.3     1  UNL1        0.1153
     13 C          -2.2441    3.9171   21.9002 C.ar    1  UNL1        0.0536
     14 C          -3.3730    3.4875   21.0108 C.ar    1  UNL1        0.0045
     15 C          -4.6719    3.0381   21.6117 C.ar    1  UNL1        0.0001
     16 C          -4.8418    3.0182   23.1019 C.ar    1  UNL1        0.0000
     17 C          -3.7129    3.4478   23.9912 C.ar    1  UNL1        0.0001
     18 C          -2.4141    3.8973   23.3904 C.ar    1  UNL1        0.0045
     19 C           5.8027   -3.2373   20.9661 C.2     1  UNL1        0.1448
     20 C           6.8980   -4.1798   21.3688 C.2     1  UNL1        0.1335
     21 N           7.1496   -4.4606   22.8205 N.2     1  UNL1       -0.2211
     22 C           6.3061   -3.7989   23.8697 C.2     1  UNL1        0.1799
     23 C           5.2109   -2.8564   23.4670 C.2     1  UNL1        0.1058
     24 N           4.2241   -2.0624   24.2706 N.2     1  UNL1       -0.2445
     25 C           3.3626   -1.2908   23.3154 C.2     1  UNL1        0.0984
     26 C           3.8169   -1.6080   21.9215 C.2     1  UNL1        0.0531
     27 C           4.9592   -2.5756   22.0152 C.3     1  UNL1        0.1284
     28 N           6.5579   -4.0798   25.3216 N.ar    1  UNL1       -0.1894
     29 C           6.9178   -5.4106   25.9127 C.ar    1  UNL1        0.2027
     30 N           7.0763   -5.2324   27.3936 N.ar    1  UNL1       -0.2072
     31 C           6.8143   -3.7914   27.7177 C.ar    1  UNL1        0.1613
     32 C           6.8639   -3.1716   29.0828 C.3     1  UNL1        0.0756
     33 N           6.4939   -3.0791   26.4371 N.ar    1  UNL1       -0.1474
     34 C           4.9579   -4.0186   18.6367 C.3     1  UNL1        0.2521
     35 O           5.5511   -2.9565   19.5142 O.2     1  UNL1       -0.4734
@<TRIPOS>BOND
     1    34    35    1
     2    35    19    1
     3    19    20    2
     4    20    21    1
     5    21    22    2
     6    22    28    1
     7    28    29   ar
     8    29    30   ar
     9    30    31   ar
    10    31    32    1
    11    31    33   ar
    12    22    23    1
    13    23    24    2
    14    24    25    1
    15    25    26    2
    16    26     1    1
    17     1     2    2
    18     1     3    1
    19     3     4    2
    20     3     5   am
    21     5     6    1
    22     6     7    1
    23     7     8    1
    24     8     9   am
    25     9    10    2
    26     9    13    1
    27    13    14   ar
    28    14    15   ar
    29    15    16   ar
    30    16    17   ar
    31    17    18   ar
    32     8    11    1
    33    11    12    1
    34    26    27    1
    35    27    19    1
    36    33    28   ar
    37    27    23    1
    38    12     5    1
    39    18    13   ar
@<TRIPOS>MOLECULE
*****
 35 39 0 0 0
SMALL
GASTEIGER

@<TRIPOS>ATOM
      1 C           2.1618   -0.2448   20.7526 C.2     1  UNL1        0.2470
      2 O           0.9700   -0.8743   20.0944 O.2     1  UNL1       -0.2820
      3 C           2.4289    1.2207   20.5766 C.2     1  UNL1        0.2880
      4 O           3.5546    1.6775   19.6967 O.2     1  UNL1       -0.2664
      5 N           1.5704    2.2293   21.2804 N.am    1  UNL1       -0.2700
      6 C           0.4446    1.7724   22.1603 C.3     1  UNL1        0.1153
      7 C          -0.4139    2.7811   22.8642 C.3     1  UNL1        0.1152
      8 N          -0.1468    4.2466   22.6882 N.am    1  UNL1       -0.2726
      9 C          -1.0054    5.2553   23.3920 C.2     1  UNL1        0.2491
     10 O          -0.7383    6.7208   23.2160 O.2     1  UNL1       -0.2699
     11 C           0.9788    4.7035   21.8083 C.3     1  UNL1        0.1152
     12 C           1.8374    3.6948   21.1045 C.3     1  UNL1        0.1153
     13 C          -2.1311    4.7985   24.2719 C.ar    1  UNL1        0.0536
     14 C          -3.4991    4.5910   23.6926 C.ar    1  UNL1        0.0045
     15 C          -4.6248    4.1341   24.5725 C.ar    1  UNL1        0.0001
     16 C          -4.3825    3.8848   26.0316 C.ar    1  UNL1        0.0000
     17 C          -3.0145    4.0923   26.6109 C.ar    1  UNL1        0.0001
     18 C          -1.8889    4.5491   25.7311 C.ar    1  UNL1        0.0045
     19 C           4.4020   -2.5486   19.6825 C.2     1  UNL1        0.1448
     20 C           5.4502   -3.6005   19.4708 C.2     1  UNL1        0.1335
     21 N           6.1629   -4.1967   20.6482 N.2     1  UNL1       -0.2211
     22 C           5.8275   -3.7410   22.0375 C.2     1  UNL1        0.1799
     23 C           4.7793   -2.6891   22.2492 C.2     1  UNL1        0.1058
     24 N           4.2398   -2.0456   23.4921 N.2     1  UNL1       -0.2445
     25 C           3.1936   -1.0516   23.0827 C.2     1  UNL1        0.0984
     26 C           3.0866   -1.0809   21.5868 C.2     1  UNL1        0.0531
     27 C           4.0665   -2.0929   21.0716 C.3     1  UNL1        0.1284
     28 N           6.5403   -4.3373   23.2150 N.ar    1  UNL1       -0.1894
     29 C           6.5102   -3.8151   24.6209 C.ar    1  UNL1        0.2027
     30 N           7.3596   -4.7156   25.4680 N.ar    1  UNL1       -0.2072
     31 C           7.9146   -5.7943   24.5857 C.ar    1  UNL1        0.1613
     32 C           8.8175   -6.9108   25.0196 C.3     1  UNL1        0.0756
     33 N           7.4082   -5.5605   23.1932 N.ar    1  UNL1       -0.1474
     34 C           4.4069   -0.9956   17.5996 C.3     1  UNL1        0.2521
     35 O           3.6893   -1.9524   18.5049 O.2     1  UNL1       -0.4734
@<TRIPOS>BOND
     1    34    35    1
     2    35    19    1
     3    19    20    2
     4    20    21    1
     5    21    22    2
     6    22    28    1
     7    28    29   ar
     8    29    30   ar
     9    30    31   ar
    10    31    32    1
    11    31    33   ar
    12    22    23    1
    13    23    24    2
    14    24    25    1
    15    25    26    2
    16    26     1    1
    17     1     2    2
    18     1     3    1
    19     3     4    2
    20     3     5   am
    21     5     6    1
    22     6     7    1
    23     7     8    1
    24     8     9   am
    25     9    10    2
    26     9    13    1
    27    13    14   ar
    28    14    15   ar
    29    15    16   ar
    30    16    17   ar
    31    17    18   ar
    32     8    11    1
    33    11    12    1
    34    26    27    1
    35    27    19    1
    36    33    28   ar
    37    27    23    1
    38    12     5    1
    39    18    13   ar
@<TRIPOS>MOLECULE
*****
 35 39 0 0 0
SMALL
GASTEIGER

@<TRIPOS>ATOM
      1 C           2.1890    1.7809   25.2370 C.2     1  UNL1        0.2470
      2 O           2.4954    3.2493   25.2396 O.2     1  UNL1       -0.2820
      3 C           1.4117    1.1749   26.3677 C.2     1  UNL1        0.2880
      4 O          -0.0850    1.1057   26.2966 O.2     1  UNL1       -0.2664
      5 N           2.1311    0.6382   27.5694 N.am    1  UNL1       -0.2700
      6 C           3.6278    0.7074   27.6406 C.3     1  UNL1        0.1153
      7 C           4.3472    0.1706   28.8424 C.3     1  UNL1        0.1152
      8 N           3.5698   -0.4354   29.9731 N.am    1  UNL1       -0.2726
      9 C           4.2892   -0.9722   31.1750 C.2     1  UNL1        0.2491
     10 O           3.5118   -1.5782   32.3057 O.2     1  UNL1       -0.2699
     11 C           2.0731   -0.5046   29.9020 C.3     1  UNL1        0.1152
     12 C           1.3538    0.0322   28.7002 C.3     1  UNL1        0.1153
     13 C           5.7859   -0.9030   31.2461 C.ar    1  UNL1        0.0536
     14 C           6.6150   -2.0353   30.7164 C.ar    1  UNL1        0.0045
     15 C           8.1118   -1.9660   30.7875 C.ar    1  UNL1        0.0001
     16 C           8.7793   -0.7646   31.3883 C.ar    1  UNL1        0.0000
     17 C           7.9502    0.3676   31.9179 C.ar    1  UNL1        0.0001
     18 C           6.4535    0.2984   31.8468 C.ar    1  UNL1        0.0045
     19 C           0.7129    1.3380   22.2211 C.2     1  UNL1        0.1448
     20 C           0.2669    0.9768   20.8352 C.2     1  UNL1        0.1335
     21 N           1.0824    0.0275   20.0085 N.2     1  UNL1       -0.2211
     22 C           2.3440   -0.5607   20.5675 C.2     1  UNL1        0.1799
     23 C           2.7900   -0.1995   21.9534 C.2     1  UNL1        0.1058
     24 N           3.9796   -0.6176   22.7658 N.2     1  UNL1       -0.2445
     25 C           3.8993    0.0735   24.0947 C.2     1  UNL1        0.0984
     26 C           2.6600    0.9185   24.1036 C.2     1  UNL1        0.0531
     27 C           1.9744    0.7498   22.7802 C.3     1  UNL1        0.1284
     28 N           3.1595   -1.5101   19.7406 N.ar    1  UNL1       -0.1894
     29 C           3.9592   -1.1551   18.5222 C.ar    1  UNL1        0.2027
     30 N           4.6124   -2.4067   18.0156 N.ar    1  UNL1       -0.2072
     31 C           4.2164   -3.5353   18.9209 C.ar    1  UNL1        0.1613
     32 C           4.6434   -4.9668   18.7841 C.3     1  UNL1        0.0756
     33 N           3.3185   -2.9811   19.9870 N.ar    1  UNL1       -0.1474
     34 C          -1.0381    3.2509   22.3796 C.3     1  UNL1        0.2521
     35 O          -0.1027    2.2873   23.0479 O.2     1  UNL1       -0.4734
@<TRIPOS>BOND
     1    34    35    1
     2    35    19    1
     3    19    20    2
     4    20    21    1
     5    21    22    2
     6    22    28    1
     7    28    29   ar
     8    29    30   ar
     9    30    31   ar
    10    31    32    1
    11    31    33   ar
    12    22    23    1
    13    23    24    2
    14    24    25    1
    15    25    26    2
    16    26     1    1
    17     1     2    2
    18     1     3    1
    19     3     4    2
    20     3     5   am
    21     5     6    1
    22     6     7    1
    23     7     8    1
    24     8     9   am
    25     9    10    2
    26     9    13    1
    27    13    14   ar
    28    14    15   ar
    29    15    16   ar
    30    16    17   ar
    31    17    18   ar
    32     8    11    1
    33    11    12    1
    34    26    27    1
    35    27    19    1
    36    33    28   ar
    37    27    23    1
    38    12     5    1
    39    18    13   ar
