@<TRIPOS>MOLECULE
*****
 25 27 0 0 0
SMALL
GASTEIGER

@<TRIPOS>ATOM
      1 C          -9.1734  -17.7094   21.9295 C.3     1  UNL1        0.0731
      2 C          -8.6142  -16.9476   23.0944 C.ar    1  UNL1       -0.0130
      3 C          -9.1897  -17.1449   24.4655 C.ar    1  UNL1        0.0168
      4 C          -8.6305  -16.3831   25.6304 C.ar    1  UNL1        0.0986
      5 N          -7.4958  -15.4239   25.4242 N.ar    1  UNL1       -0.2423
      6 C          -6.9203  -15.2266   24.0530 C.ar    1  UNL1        0.0986
      7 C          -7.4795  -15.9884   22.8882 C.ar    1  UNL1        0.0168
      8 C         -10.3837  -17.1949   21.2083 C.ar    1  UNL1        0.0588
      9 C         -11.7766  -17.7396   21.3234 C.ar    1  UNL1        0.1134
     10 N         -12.6674  -16.9267   20.4315 N.ar    1  UNL1       -0.2229
     11 C         -11.8252  -15.8795   19.7651 C.ar    1  UNL1        0.1748
     12 N         -10.4138  -16.0453   20.2452 N.ar    1  UNL1       -0.3379
     13 H          -9.6426  -15.4960   19.9755 H       1  UNL1        0.1672
     14 C          -8.5222  -18.9858   21.4859 C.3     1  UNL1        0.0724
     15 S          -7.3486  -19.5319   22.2439 S.3     1  UNL1       -0.1129
     16 C          -3.1729  -18.8890   20.6945 C.ar    1  UNL1        0.0715
     17 C          -4.2074  -19.5312   19.8184 C.ar    1  UNL1        0.0044
     18 C          -5.5993  -19.7455   20.3349 C.ar    1  UNL1        0.0061
     19 C          -5.9567  -19.3176   21.7274 C.ar    1  UNL1        0.0252
     20 C          -4.9223  -18.6755   22.6034 C.ar    1  UNL1        0.0061
     21 C          -3.5304  -18.4612   22.0870 C.ar    1  UNL1        0.0044
     22 F          -0.3892  -18.4605   19.6615 F       1  UNL1       -0.1659
     23 C          -1.7811  -18.6748   20.1780 C.3     1  UNL1        0.4186
     24 F          -2.2896  -18.7654   18.7698 F       1  UNL1       -0.1659
     25 F          -1.2725  -18.5841   21.5862 F       1  UNL1       -0.1659
@<TRIPOS>BOND
     1    22    23    1
     2    23    24    1
     3    23    25    1
     4    23    16    1
     5    16    17   ar
     6    17    18   ar
     7    18    19   ar
     8    19    15    1
     9    15    14    1
    10    14     1    1
    11     1     2    1
    12     2     3   ar
    13     3     4   ar
    14     4     5   ar
    15     5     6   ar
    16     6     7   ar
    17     1     8    1
    18     8     9   ar
    19     9    10   ar
    20    10    11   ar
    21    11    12   ar
    22    19    20   ar
    23    20    21   ar
    24    21    16   ar
    25     7     2   ar
    26    12     8   ar
    27    12    13    1
@<TRIPOS>MOLECULE
*****
 25 27 0 0 0
SMALL
GASTEIGER

@<TRIPOS>ATOM
      1 C          -8.7872  -17.4962   22.7340 C.3     1  UNL1        0.0731
      2 C         -10.2704  -17.5151   22.9570 C.ar    1  UNL1       -0.0130
      3 C         -11.1456  -16.5121   22.2658 C.ar    1  UNL1        0.0168
      4 C         -12.6289  -16.5310   22.4888 C.ar    1  UNL1        0.0986
      5 N         -13.2368  -17.5529   23.4032 N.ar    1  UNL1       -0.2423
      6 C         -12.3615  -18.5560   24.0945 C.ar    1  UNL1        0.0986
      7 C         -10.8784  -18.5371   23.8714 C.ar    1  UNL1        0.0168
      8 C          -7.9127  -16.6183   23.5792 C.ar    1  UNL1        0.0588
      9 C          -8.1781  -16.2150   24.9994 C.ar    1  UNL1        0.1134
     10 N          -7.0488  -15.3369   25.4506 N.ar    1  UNL1       -0.2229
     11 C          -6.0854  -15.1975   24.3093 C.ar    1  UNL1        0.1748
     12 N          -6.6194  -15.9894   23.1527 N.ar    1  UNL1       -0.3379
     13 H          -6.1955  -16.0805   22.2689 H       1  UNL1        0.1672
     14 C          -8.1784  -18.3553   21.6656 C.3     1  UNL1        0.0724
     15 S          -7.1216  -19.3586   22.0215 S.3     1  UNL1       -0.1129
     16 C          -2.8946  -18.7773   20.5917 C.ar    1  UNL1        0.0715
     17 C          -3.2163  -18.6537   22.0516 C.ar    1  UNL1        0.0044
     18 C          -4.6253  -18.8474   22.5282 C.ar    1  UNL1        0.0061
     19 C          -5.7126  -19.1648   21.5449 C.ar    1  UNL1        0.0252
     20 C          -5.3910  -19.2884   20.0850 C.ar    1  UNL1        0.0061
     21 C          -3.9820  -19.0947   19.6084 C.ar    1  UNL1        0.0044
     22 F          -0.0766  -18.3897   19.6385 F       1  UNL1       -0.1659
     23 C          -1.4856  -18.5835   20.1151 C.3     1  UNL1        0.4186
     24 F          -1.0098  -18.5458   21.5371 F       1  UNL1       -0.1659
     25 F          -1.9614  -18.6212   18.6931 F       1  UNL1       -0.1659
@<TRIPOS>BOND
     1    22    23    1
     2    23    24    1
     3    23    25    1
     4    23    16    1
     5    16    17   ar
     6    17    18   ar
     7    18    19   ar
     8    19    15    1
     9    15    14    1
    10    14     1    1
    11     1     2    1
    12     2     3   ar
    13     3     4   ar
    14     4     5   ar
    15     5     6   ar
    16     6     7   ar
    17     1     8    1
    18     8     9   ar
    19     9    10   ar
    20    10    11   ar
    21    11    12   ar
    22    19    20   ar
    23    20    21   ar
    24    21    16   ar
    25     7     2   ar
    26    12     8   ar
    27    12    13    1
@<TRIPOS>MOLECULE
*****
 25 27 0 0 0
SMALL
GASTEIGER

@<TRIPOS>ATOM
      1 C          -9.1136  -17.3218   22.8993 C.3     1  UNL1        0.0731
      2 C          -8.3175  -16.6369   23.9704 C.ar    1  UNL1       -0.0130
      3 C          -7.0384  -15.9353   23.6216 C.ar    1  UNL1        0.0168
      4 C          -6.2423  -15.2504   24.6927 C.ar    1  UNL1        0.0986
      5 N          -6.7254  -15.2671   26.1127 N.ar    1  UNL1       -0.2423
      6 C          -8.0045  -15.9687   26.4615 C.ar    1  UNL1        0.0986
      7 C          -8.8005  -16.6536   25.3904 C.ar    1  UNL1        0.0168
      8 C         -10.6123  -17.3184   22.9607 C.ar    1  UNL1        0.0588
      9 C         -11.5148  -16.2537   22.4114 C.ar    1  UNL1        0.1134
     10 N         -12.9319  -16.6564   22.6934 N.ar    1  UNL1       -0.2229
     11 C         -12.9053  -17.9701   23.4170 C.ar    1  UNL1        0.1748
     12 N         -11.4716  -18.3792   23.5822 N.ar    1  UNL1       -0.3379
     13 H         -11.1510  -19.1999   24.0214 H       1  UNL1        0.1672
     14 C          -8.4108  -18.0100   21.7668 C.3     1  UNL1        0.0724
     15 S          -7.4495  -19.1265   22.0484 S.3     1  UNL1       -0.1129
     16 C          -3.1743  -18.8137   20.6794 C.ar    1  UNL1        0.0715
     17 C          -4.2635  -19.0784   19.6827 C.ar    1  UNL1        0.0044
     18 C          -5.6886  -19.1827   20.1391 C.ar    1  UNL1        0.0061
     19 C          -6.0245  -19.0222   21.5921 C.ar    1  UNL1        0.0252
     20 C          -4.9352  -18.7575   22.5888 C.ar    1  UNL1        0.0061
     21 C          -3.5102  -18.6532   22.1325 C.ar    1  UNL1        0.0044
     22 F          -0.3241  -18.6051   19.7667 F       1  UNL1       -0.1659
     23 C          -1.7492  -18.7094   20.2231 C.3     1  UNL1        0.4186
     24 F          -1.3003  -18.5994   21.6501 F       1  UNL1       -0.1659
     25 F          -2.1981  -18.8194   18.7961 F       1  UNL1       -0.1659
@<TRIPOS>BOND
     1    22    23    1
     2    23    24    1
     3    23    25    1
     4    23    16    1
     5    16    17   ar
     6    17    18   ar
     7    18    19   ar
     8    19    15    1
     9    15    14    1
    10    14     1    1
    11     1     2    1
    12     2     3   ar
    13     3     4   ar
    14     4     5   ar
    15     5     6   ar
    16     6     7   ar
    17     1     8    1
    18     8     9   ar
    19     9    10   ar
    20    10    11   ar
    21    11    12   ar
    22    19    20   ar
    23    20    21   ar
    24    21    16   ar
    25     7     2   ar
    26    12     8   ar
    27    12    13    1
@<TRIPOS>MOLECULE
*****
 25 27 0 0 0
SMALL
GASTEIGER

@<TRIPOS>ATOM
      1 C          -5.4632  -18.7033   22.1833 C.3     1  UNL1        0.0731
      2 C          -5.7684  -17.4587   22.9629 C.ar    1  UNL1       -0.0130
      3 C          -7.1190  -16.8159   22.8510 C.ar    1  UNL1        0.0168
      4 C          -7.4242  -15.5712   23.6307 C.ar    1  UNL1        0.0986
      5 N          -6.3787  -14.9694   24.5222 N.ar    1  UNL1       -0.2423
      6 C          -5.0280  -15.6123   24.6340 C.ar    1  UNL1        0.0986
      7 C          -4.7229  -16.8569   23.8544 C.ar    1  UNL1        0.0168
      8 C          -4.1449  -18.8445   21.4817 C.ar    1  UNL1        0.0588
      9 C          -2.9591  -19.6162   21.9802 C.ar    1  UNL1        0.1134
     10 N          -1.8623  -19.4875   20.9652 N.ar    1  UNL1       -0.2229
     11 C          -2.3702  -18.6362   19.8393 C.ar    1  UNL1        0.1748
     12 N          -3.7809  -18.2389   20.1586 N.ar    1  UNL1       -0.3379
     13 H          -4.3654  -17.6790   19.5981 H       1  UNL1        0.1672
     14 C          -6.4763  -19.8067   22.1052 C.3     1  UNL1        0.0724
     15 S          -7.6774  -19.6607   21.2187 S.3     1  UNL1       -0.1129
     16 C         -11.6588  -18.5386   22.9906 C.ar    1  UNL1        0.0715
     17 C         -11.2822  -18.0507   21.6231 C.ar    1  UNL1        0.0044
     18 C          -9.9551  -18.4247   21.0325 C.ar    1  UNL1        0.0061
     19 C          -9.0046  -19.2867   21.8093 C.ar    1  UNL1        0.0252
     20 C          -9.3811  -19.7745   23.1768 C.ar    1  UNL1        0.0061
     21 C         -10.7082  -19.4005   23.7675 C.ar    1  UNL1        0.0044
     22 F         -14.3130  -17.7905   24.1719 F       1  UNL1       -0.1659
     23 C         -12.9859  -18.1645   23.5813 C.3     1  UNL1        0.4186
     24 F         -12.4848  -18.5394   24.9445 F       1  UNL1       -0.1659
     25 F         -13.4869  -17.7896   22.2181 F       1  UNL1       -0.1659
@<TRIPOS>BOND
     1    22    23    1
     2    23    24    1
     3    23    25    1
     4    23    16    1
     5    16    17   ar
     6    17    18   ar
     7    18    19   ar
     8    19    15    1
     9    15    14    1
    10    14     1    1
    11     1     2    1
    12     2     3   ar
    13     3     4   ar
    14     4     5   ar
    15     5     6   ar
    16     6     7   ar
    17     1     8    1
    18     8     9   ar
    19     9    10   ar
    20    10    11   ar
    21    11    12   ar
    22    19    20   ar
    23    20    21   ar
    24    21    16   ar
    25     7     2   ar
    26    12     8   ar
    27    12    13    1
@<TRIPOS>MOLECULE
*****
 25 27 0 0 0
SMALL
GASTEIGER

@<TRIPOS>ATOM
      1 C          -5.3914  -18.4913   22.2450 C.3     1  UNL1        0.0731
      2 C          -4.1007  -18.5989   21.4884 C.ar    1  UNL1       -0.0130
      3 C          -4.1170  -18.8388   20.0078 C.ar    1  UNL1        0.0168
      4 C          -2.8262  -18.9464   19.2512 C.ar    1  UNL1        0.0986
      5 N          -1.5192  -18.8140   19.9752 N.ar    1  UNL1       -0.2423
      6 C          -1.5029  -18.5741   21.4558 C.ar    1  UNL1        0.0986
      7 C          -2.7937  -18.4665   22.2124 C.ar    1  UNL1        0.0168
      8 C          -5.7359  -17.2205   22.9636 C.ar    1  UNL1        0.0588
      9 C          -4.8335  -16.4578   23.8877 C.ar    1  UNL1        0.1134
     10 N          -5.5831  -15.2552   24.3795 N.ar    1  UNL1       -0.2229
     11 C          -6.9488  -15.2746   23.7593 C.ar    1  UNL1        0.1748
     12 N          -7.0432  -16.4892   22.8842 N.ar    1  UNL1       -0.3379
     13 H          -7.8258  -16.7591   22.3513 H       1  UNL1        0.1672
     14 C          -6.3377  -19.6545   22.2831 C.3     1  UNL1        0.0724
     15 S          -7.5401  -19.6729   21.3865 S.3     1  UNL1       -0.1129
     16 C         -11.5823  -18.5590   23.0204 C.ar    1  UNL1        0.0715
     17 C         -11.0825  -17.9226   21.7574 C.ar    1  UNL1        0.0044
     18 C          -9.7351  -18.2939   21.2127 C.ar    1  UNL1        0.0061
     19 C          -8.8875  -19.3016   21.9311 C.ar    1  UNL1        0.0252
     20 C          -9.3873  -19.9379   23.1942 C.ar    1  UNL1        0.0061
     21 C         -10.7347  -19.5666   23.7388 C.ar    1  UNL1        0.0044
     22 F         -14.2771  -17.8164   24.1097 F       1  UNL1       -0.1659
     23 C         -12.9297  -18.1877   23.5650 C.3     1  UNL1        0.4186
     24 F         -13.3793  -17.7991   22.1878 F       1  UNL1       -0.1659
     25 F         -12.4801  -18.5763   24.9423 F       1  UNL1       -0.1659
@<TRIPOS>BOND
     1    22    23    1
     2    23    24    1
     3    23    25    1
     4    23    16    1
     5    16    17   ar
     6    17    18   ar
     7    18    19   ar
     8    19    15    1
     9    15    14    1
    10    14     1    1
    11     1     2    1
    12     2     3   ar
    13     3     4   ar
    14     4     5   ar
    15     5     6   ar
    16     6     7   ar
    17     1     8    1
    18     8     9   ar
    19     9    10   ar
    20    10    11   ar
    21    11    12   ar
    22    19    20   ar
    23    20    21   ar
    24    21    16   ar
    25     7     2   ar
    26    12     8   ar
    27    12    13    1
@<TRIPOS>MOLECULE
*****
 25 27 0 0 0
SMALL
GASTEIGER

@<TRIPOS>ATOM
      1 C          -7.4360  -18.1680   21.7628 C.3     1  UNL1        0.0731
      2 C          -6.1523  -18.9084   21.5299 C.ar    1  UNL1       -0.0130
      3 C          -6.0342  -19.8606   20.3769 C.ar    1  UNL1        0.0168
      4 C          -4.7506  -20.6009   20.1440 C.ar    1  UNL1        0.0986
      5 N          -3.5850  -20.3890   21.0641 N.ar    1  UNL1       -0.2423
      6 C          -3.7031  -19.4367   22.2171 C.ar    1  UNL1        0.0986
      7 C          -4.9867  -18.6965   22.4499 C.ar    1  UNL1        0.0168
      8 C          -8.7272  -18.7221   21.2376 C.ar    1  UNL1        0.0588
      9 C          -9.4512  -19.9240   21.7677 C.ar    1  UNL1        0.1134
     10 N         -10.6926  -20.1162   20.9480 N.ar    1  UNL1       -0.2229
     11 C         -10.7358  -19.0330   19.9112 C.ar    1  UNL1        0.1748
     12 N          -9.5211  -18.1714   20.0902 N.ar    1  UNL1       -0.3379
     13 H          -9.2861  -17.3829   19.5496 H       1  UNL1        0.1672
     14 C          -7.4283  -16.8737   22.5208 C.3     1  UNL1        0.0724
     15 S          -8.1901  -16.7535   23.8073 S.3     1  UNL1       -0.1129
     16 C         -12.5301  -17.9316   23.9708 C.ar    1  UNL1        0.0715
     17 C         -11.5119  -18.7093   24.7508 C.ar    1  UNL1        0.0044
     18 C         -10.0653  -18.3166   24.6963 C.ar    1  UNL1        0.0061
     19 C          -9.6368  -17.1462   23.8618 C.ar    1  UNL1        0.0252
     20 C         -10.6550  -16.3684   23.0818 C.ar    1  UNL1        0.0061
     21 C         -12.1016  -16.7611   23.1363 C.ar    1  UNL1        0.0044
     22 F         -15.4234  -18.7170   24.0798 F       1  UNL1       -0.1659
     23 C         -13.9768  -18.3243   24.0253 C.3     1  UNL1        0.4186
     24 F         -14.0799  -18.1508   22.5389 F       1  UNL1       -0.1659
     25 F         -13.8736  -18.4978   25.5117 F       1  UNL1       -0.1659
@<TRIPOS>BOND
     1    22    23    1
     2    23    24    1
     3    23    25    1
     4    23    16    1
     5    16    17   ar
     6    17    18   ar
     7    18    19   ar
     8    19    15    1
     9    15    14    1
    10    14     1    1
    11     1     2    1
    12     2     3   ar
    13     3     4   ar
    14     4     5   ar
    15     5     6   ar
    16     6     7   ar
    17     1     8    1
    18     8     9   ar
    19     9    10   ar
    20    10    11   ar
    21    11    12   ar
    22    19    20   ar
    23    20    21   ar
    24    21    16   ar
    25     7     2   ar
    26    12     8   ar
    27    12    13    1
@<TRIPOS>MOLECULE
*****
 25 27 0 0 0
SMALL
GASTEIGER

@<TRIPOS>ATOM
      1 C          -6.3644  -16.5479   23.4302 C.3     1  UNL1        0.0731
      2 C          -6.7443  -16.0389   24.7891 C.ar    1  UNL1       -0.0130
      3 C          -5.6791  -15.6073   25.7530 C.ar    1  UNL1        0.0168
      4 C          -6.0590  -15.0983   27.1120 C.ar    1  UNL1        0.0986
      5 N          -7.5040  -15.0210   27.5070 N.ar    1  UNL1       -0.2423
      6 C          -8.5691  -15.4527   26.5430 C.ar    1  UNL1        0.0986
      7 C          -8.1893  -15.9616   25.1841 C.ar    1  UNL1        0.0168
      8 C          -4.9369  -16.8997   23.1331 C.ar    1  UNL1        0.0588
      9 C          -4.3518  -18.2809   23.1288 C.ar    1  UNL1        0.1134
     10 N          -2.8971  -18.1669   22.7812 N.ar    1  UNL1       -0.2229
     11 C          -2.5831  -16.7153   22.5706 C.ar    1  UNL1        0.1748
     12 N          -3.8438  -15.9322   22.7881 N.ar    1  UNL1       -0.3379
     13 H          -3.9374  -14.9547   22.7170 H       1  UNL1        0.1672
     14 C          -7.4122  -16.7051   22.3683 C.3     1  UNL1        0.0724
     15 S          -8.1648  -17.9965   22.2426 S.3     1  UNL1       -0.1129
     16 C         -12.4050  -18.2830   23.7217 C.ar    1  UNL1        0.0715
     17 C         -11.3910  -19.3021   24.1495 C.ar    1  UNL1        0.0044
     18 C          -9.9776  -19.2066   23.6565 C.ar    1  UNL1        0.0061
     19 C          -9.5782  -18.0920   22.7356 C.ar    1  UNL1        0.0252
     20 C         -10.5922  -17.0728   22.3079 C.ar    1  UNL1        0.0061
     21 C         -12.0056  -17.1683   22.8009 C.ar    1  UNL1        0.0044
     22 F         -15.2319  -18.4740   24.7079 F       1  UNL1       -0.1659
     23 C         -13.8185  -18.3785   24.2148 C.3     1  UNL1        0.4186
     24 F         -14.3206  -18.1322   22.8230 F       1  UNL1       -0.1659
     25 F         -13.3163  -18.6248   25.6066 F       1  UNL1       -0.1659
@<TRIPOS>BOND
     1    22    23    1
     2    23    24    1
     3    23    25    1
     4    23    16    1
     5    16    17   ar
     6    17    18   ar
     7    18    19   ar
     8    19    15    1
     9    15    14    1
    10    14     1    1
    11     1     2    1
    12     2     3   ar
    13     3     4   ar
    14     4     5   ar
    15     5     6   ar
    16     6     7   ar
    17     1     8    1
    18     8     9   ar
    19     9    10   ar
    20    10    11   ar
    21    11    12   ar
    22    19    20   ar
    23    20    21   ar
    24    21    16   ar
    25     7     2   ar
    26    12     8   ar
    27    12    13    1
@<TRIPOS>MOLECULE
*****
 25 27 0 0 0
SMALL
GASTEIGER

@<TRIPOS>ATOM
      1 C          -7.4929  -18.1294   21.8270 C.3     1  UNL1        0.0731
      2 C          -8.8163  -18.6769   21.3808 C.ar    1  UNL1       -0.0130
      3 C          -9.4263  -19.8434   22.0998 C.ar    1  UNL1        0.0168
      4 C         -10.7496  -20.3909   21.6536 C.ar    1  UNL1        0.0986
      5 N         -11.4629  -19.7718   20.4883 N.ar    1  UNL1       -0.2423
      6 C         -10.8528  -18.6053   19.7692 C.ar    1  UNL1        0.0986
      7 C          -9.5296  -18.0578   20.2155 C.ar    1  UNL1        0.0168
      8 C          -6.2264  -18.8562   21.4840 C.ar    1  UNL1        0.0588
      9 C          -6.0844  -19.9469   20.4641 C.ar    1  UNL1        0.1134
     10 N          -4.6498  -20.3847   20.4505 N.ar    1  UNL1       -0.2229
     11 C          -3.9051  -19.5647   21.4620 C.ar    1  UNL1        0.1748
     12 N          -4.8796  -18.6200   22.1008 N.ar    1  UNL1       -0.3379
     13 H          -4.6717  -17.9607   22.8017 H       1  UNL1        0.1672
     14 C          -7.4362  -16.8550   22.6162 C.3     1  UNL1        0.0724
     15 S          -8.2083  -16.7305   23.8961 S.3     1  UNL1       -0.1129
     16 C         -12.5410  -17.9379   24.0366 C.ar    1  UNL1        0.0715
     17 C         -12.1057  -16.8080   23.1514 C.ar    1  UNL1        0.0044
     18 C         -10.6614  -16.4055   23.1046 C.ar    1  UNL1        0.0061
     19 C          -9.6525  -17.1330   23.9430 C.ar    1  UNL1        0.0252
     20 C         -10.0879  -18.2629   24.8282 C.ar    1  UNL1        0.0061
     21 C         -11.5321  -18.6654   24.8750 C.ar    1  UNL1        0.0044
     22 F         -15.4295  -18.7429   24.1303 F       1  UNL1       -0.1659
     23 C         -13.9852  -18.3404   24.0835 C.3     1  UNL1        0.4186
     24 F         -14.0936  -18.1241   22.6031 F       1  UNL1       -0.1659
     25 F         -13.8769  -18.5568   25.5638 F       1  UNL1       -0.1659
@<TRIPOS>BOND
     1    22    23    1
     2    23    24    1
     3    23    25    1
     4    23    16    1
     5    16    17   ar
     6    17    18   ar
     7    18    19   ar
     8    19    15    1
     9    15    14    1
    10    14     1    1
    11     1     2    1
    12     2     3   ar
    13     3     4   ar
    14     4     5   ar
    15     5     6   ar
    16     6     7   ar
    17     1     8    1
    18     8     9   ar
    19     9    10   ar
    20    10    11   ar
    21    11    12   ar
    22    19    20   ar
    23    20    21   ar
    24    21    16   ar
    25     7     2   ar
    26    12     8   ar
    27    12    13    1
@<TRIPOS>MOLECULE
*****
 25 27 0 0 0
SMALL
GASTEIGER

@<TRIPOS>ATOM
      1 C         -11.7456   -4.3619   18.6478 C.3     1  UNL1        0.0731
      2 C         -11.1468   -5.7010   18.3342 C.ar    1  UNL1       -0.0130
      3 C          -9.9515   -6.1859   19.0999 C.ar    1  UNL1        0.0168
      4 C          -9.3526   -7.5250   18.7863 C.ar    1  UNL1        0.0986
      5 N          -9.9491   -8.3792   17.7072 N.ar    1  UNL1       -0.2423
      6 C         -11.1444   -7.8942   16.9415 C.ar    1  UNL1        0.0986
      7 C         -11.7432   -6.5552   17.2550 C.ar    1  UNL1        0.0168
      8 C         -11.2497   -3.1348   17.9420 C.ar    1  UNL1        0.0588
      9 C         -10.5526   -3.1024   16.6143 C.ar    1  UNL1        0.1134
     10 N         -10.2359   -1.6722   16.2917 N.ar    1  UNL1       -0.2229
     11 C         -10.7373   -0.8205   17.4202 C.ar    1  UNL1        0.1748
     12 N         -11.3639   -1.7245   18.4401 N.ar    1  UNL1       -0.3379
     13 H         -11.7774   -1.4418   19.2876 H       1  UNL1        0.1672
     14 C         -12.8404   -4.2501   19.6670 C.3     1  UNL1        0.0724
     15 S         -14.2594   -4.0488   19.2246 S.3     1  UNL1       -0.1129
     16 C         -17.2064   -7.4378   19.5065 C.ar    1  UNL1        0.0715
     17 C         -17.6903   -6.0184   19.5401 C.ar    1  UNL1        0.0044
     18 C         -16.7079   -4.8888   19.4462 C.ar    1  UNL1        0.0061
     19 C         -15.2417   -5.1785   19.3185 C.ar    1  UNL1        0.0252
     20 C         -14.7579   -6.5979   19.2849 C.ar    1  UNL1        0.0061
     21 C         -15.7402   -7.7275   19.3788 C.ar    1  UNL1        0.0044
     22 F         -19.1711   -9.6972   19.6944 F       1  UNL1       -0.1659
     23 C         -18.1888   -8.5675   19.6004 C.3     1  UNL1        0.4186
     24 F         -17.5266   -9.2402   18.4347 F       1  UNL1       -0.1659
     25 F         -18.8509   -7.8948   20.7662 F       1  UNL1       -0.1659
@<TRIPOS>BOND
     1    22    23    1
     2    23    24    1
     3    23    25    1
     4    23    16    1
     5    16    17   ar
     6    17    18   ar
     7    18    19   ar
     8    19    15    1
     9    15    14    1
    10    14     1    1
    11     1     2    1
    12     2     3   ar
    13     3     4   ar
    14     4     5   ar
    15     5     6   ar
    16     6     7   ar
    17     1     8    1
    18     8     9   ar
    19     9    10   ar
    20    10    11   ar
    21    11    12   ar
    22    19    20   ar
    23    20    21   ar
    24    21    16   ar
    25     7     2   ar
    26    12     8   ar
    27    12    13    1
