@<TRIPOS>MOLECULE
*****
 34 36 0 0 0
SMALL
GASTEIGER

@<TRIPOS>ATOM
      1 C           8.2673   -8.1303   27.3643 C.ar    1  UNL1       -0.0024
      2 C           8.7654   -7.1398   28.3747 C.ar    1  UNL1       -0.0026
      3 C           8.8952   -5.6919   28.0048 C.ar    1  UNL1       -0.0001
      4 C           8.5269   -5.2346   26.6245 C.ar    1  UNL1        0.0045
      5 C           8.0289   -6.2251   25.6141 C.ar    1  UNL1        0.0534
      6 C           7.8991   -7.6730   25.9840 C.ar    1  UNL1        0.0019
      7 C           7.6607   -5.7678   24.2338 C.2     1  UNL1        0.2495
      8 O           8.0287   -6.6033   23.0437 O.2     1  UNL1       -0.2698
      9 N           6.9243   -4.4748   24.0436 N.am    1  UNL1       -0.2804
     10 H           6.6827   -3.9264   24.8247 H       1  UNL1        0.1552
     11 C           6.5560   -4.0175   22.6633 C.ar    1  UNL1        0.0505
     12 C           5.1132   -3.9252   22.2638 C.ar    1  UNL1        0.0144
     13 C           4.7450   -3.4678   20.8835 C.ar    1  UNL1       -0.0016
     14 C           5.8196   -3.1028   19.9027 C.ar    1  UNL1       -0.0061
     15 C           7.2625   -3.1951   20.3022 C.ar    1  UNL1       -0.0016
     16 C           7.6307   -3.6524   21.6825 C.ar    1  UNL1        0.0144
     17 C           5.4513   -2.6455   18.5224 C.3     1  UNL1        0.0992
     18 N           4.9695   -1.2424   18.3008 N.3     1  UNL1       -0.2665
     19 C           5.3300   -0.1625   19.2775 C.3     1  UNL1        0.0899
     20 C           4.1272   -0.9191   17.1025 C.3     1  UNL1        0.0899
     21 C           8.1375   -9.5782   27.7343 C.3     1  UNL1        0.1166
     22 C           6.6808  -11.7163   27.9722 C.2     1  UNL1        0.2461
     23 O           7.9001  -12.5052   28.3476 O.2     1  UNL1       -0.2701
     24 N           6.7995  -10.2528   27.6655 N.am    1  UNL1       -0.2969
     25 H           5.9993   -9.7350   27.4191 H       1  UNL1        0.1501
     26 C           2.6669  -13.7400   27.7660 C.ar    1  UNL1        0.1347
     27 C           3.6537  -13.9159   26.6502 C.ar    1  UNL1        0.0367
     28 C           4.9917  -13.2414   26.7189 C.ar    1  UNL1        0.0076
     29 C           5.3428  -12.3909   27.9035 C.ar    1  UNL1        0.0532
     30 C           4.3560  -12.2150   29.0193 C.ar    1  UNL1        0.0032
     31 C           3.0180  -12.8895   28.9506 C.ar    1  UNL1        0.0123
     32 C           2.0312  -12.7136   30.0665 C.3     1  UNL1        0.0342
     33 C           1.1472  -15.7819   28.2866 C.3     1  UNL1        0.2525
     34 O           1.3289  -14.4146   27.6973 O.3     1  UNL1       -0.4717
@<TRIPOS>BOND
     1    33    34    1
     2    34    26    1
     3    26    27   ar
     4    27    28   ar
     5    28    29   ar
     6    29    22    1
     7    22    23    2
     8    22    24   am
     9    24    21    1
    10    21     1    1
    11     1     2   ar
    12     2     3   ar
    13     3     4   ar
    14     4     5   ar
    15     5     7    1
    16     7     8    2
    17     7     9   am
    18     9    11    1
    19    11    12   ar
    20    12    13   ar
    21    13    14   ar
    22    14    17    1
    23    17    18    1
    24    18    19    1
    25    18    20    1
    26    14    15   ar
    27    15    16   ar
    28     5     6   ar
    29    29    30   ar
    30    30    31   ar
    31    31    32    1
    32    31    26   ar
    33     6     1   ar
    34    16    11   ar
    35    24    25    1
    36     9    10    1
@<TRIPOS>MOLECULE
*****
 34 36 0 0 0
SMALL
GASTEIGER

@<TRIPOS>ATOM
      1 C           8.2806   -8.2858   27.3473 C.ar    1  UNL1       -0.0024
      2 C           8.5700   -7.9915   25.9052 C.ar    1  UNL1       -0.0026
      3 C           8.7334   -6.5723   25.4475 C.ar    1  UNL1       -0.0001
      4 C           8.6073   -5.4476   26.4319 C.ar    1  UNL1        0.0045
      5 C           8.3179   -5.7420   27.8740 C.ar    1  UNL1        0.0534
      6 C           8.1546   -7.1611   28.3317 C.ar    1  UNL1        0.0019
      7 C           8.1919   -4.6172   28.8585 C.2     1  UNL1        0.2495
      8 O           8.4831   -3.2095   28.4302 O.2     1  UNL1       -0.2698
      9 N           7.7746   -4.9003   30.2712 N.am    1  UNL1       -0.2804
     10 H           7.5835   -5.8242   30.5523 H       1  UNL1        0.1552
     11 C           7.6486   -3.7755   31.2557 C.ar    1  UNL1        0.0505
     12 C           6.2946   -3.2333   31.6056 C.ar    1  UNL1        0.0144
     13 C           6.1685   -2.1086   32.5900 C.ar    1  UNL1       -0.0016
     14 C           7.3965   -1.5261   33.2245 C.ar    1  UNL1       -0.0061
     15 C           8.7507   -2.0683   32.8745 C.ar    1  UNL1       -0.0016
     16 C           8.8767   -3.1930   31.8901 C.ar    1  UNL1        0.0144
     17 C           7.2705   -0.4013   34.2089 C.3     1  UNL1        0.0992
     18 N           5.9194    0.1639   34.5329 N.3     1  UNL1       -0.2665
     19 C           5.1199   -0.4068   35.6665 C.3     1  UNL1        0.0899
     20 C           5.3679    1.2998   33.7234 C.3     1  UNL1        0.0899
     21 C           8.1173   -9.7050   27.8050 C.3     1  UNL1        0.1166
     22 C           6.6377  -11.8248   28.0641 C.2     1  UNL1        0.2461
     23 O           7.8374  -12.6077   28.5088 O.2     1  UNL1       -0.2701
     24 N           6.7777  -10.3734   27.7122 N.am    1  UNL1       -0.2969
     25 H           5.9903   -9.8595   27.4203 H       1  UNL1        0.1501
     26 C           2.6189  -13.8302   27.7857 C.ar    1  UNL1        0.1347
     27 C           3.6420  -14.0482   26.7107 C.ar    1  UNL1        0.0367
     28 C           4.9816  -13.3797   26.8035 C.ar    1  UNL1        0.0076
     29 C           5.2981  -12.4932   27.9713 C.ar    1  UNL1        0.0532
     30 C           4.2750  -12.2752   29.0463 C.ar    1  UNL1        0.0032
     31 C           2.9354  -12.9437   28.9535 C.ar    1  UNL1        0.0123
     32 C           1.9123  -12.7256   30.0286 C.3     1  UNL1        0.0342
     33 C           1.0844  -15.8707   28.2668 C.3     1  UNL1        0.2525
     34 O           1.2793  -14.4986   27.6929 O.3     1  UNL1       -0.4717
@<TRIPOS>BOND
     1    33    34    1
     2    34    26    1
     3    26    27   ar
     4    27    28   ar
     5    28    29   ar
     6    29    22    1
     7    22    23    2
     8    22    24   am
     9    24    21    1
    10    21     1    1
    11     1     2   ar
    12     2     3   ar
    13     3     4   ar
    14     4     5   ar
    15     5     7    1
    16     7     8    2
    17     7     9   am
    18     9    11    1
    19    11    12   ar
    20    12    13   ar
    21    13    14   ar
    22    14    17    1
    23    17    18    1
    24    18    19    1
    25    18    20    1
    26    14    15   ar
    27    15    16   ar
    28     5     6   ar
    29    29    30   ar
    30    30    31   ar
    31    31    32    1
    32    31    26   ar
    33     6     1   ar
    34    16    11   ar
    35    24    25    1
    36     9    10    1
@<TRIPOS>MOLECULE
*****
 34 36 0 0 0
SMALL
GASTEIGER

@<TRIPOS>ATOM
      1 C           8.0618   -8.1049   26.8398 C.ar    1  UNL1       -0.0024
      2 C           8.9033   -7.9984   25.6027 C.ar    1  UNL1       -0.0026
      3 C           9.0144   -6.6876   24.8817 C.ar    1  UNL1       -0.0001
      4 C           8.2840   -5.4835   25.3979 C.ar    1  UNL1        0.0045
      5 C           7.4425   -5.5901   26.6351 C.ar    1  UNL1        0.0534
      6 C           7.3314   -6.9007   27.3560 C.ar    1  UNL1        0.0019
      7 C           6.7121   -4.3859   27.1513 C.2     1  UNL1        0.2495
      8 O           6.4132   -4.2608   28.6159 O.2     1  UNL1       -0.2698
      9 N           6.2805   -3.3068   26.2029 N.am    1  UNL1       -0.2804
     10 H           6.4767   -3.3889   25.2417 H       1  UNL1        0.1552
     11 C           5.5501   -2.1027   26.7191 C.ar    1  UNL1        0.0505
     12 C           6.0544   -1.3839   27.9353 C.ar    1  UNL1        0.0144
     13 C           5.3239   -0.1797   28.4515 C.ar    1  UNL1       -0.0016
     14 C           4.0892    0.3057   27.7516 C.ar    1  UNL1       -0.0061
     15 C           3.5849   -0.4131   26.5354 C.ar    1  UNL1       -0.0016
     16 C           4.3153   -1.6173   26.0192 C.ar    1  UNL1        0.0144
     17 C           3.3588    1.5098   28.2678 C.3     1  UNL1        0.0992
     18 N           2.0563    1.3432   28.9927 N.3     1  UNL1       -0.2665
     19 C           1.1083    2.5000   29.1071 C.3     1  UNL1        0.0899
     20 C           1.7017    0.0198   29.6032 C.3     1  UNL1        0.0899
     21 C           7.9507   -9.4156   27.5607 C.3     1  UNL1        0.1166
     22 C           6.6465  -11.6382   27.8910 C.2     1  UNL1        0.2461
     23 O           7.9190  -12.3259   28.2879 O.2     1  UNL1       -0.2701
     24 N           6.6623  -10.1830   27.5274 N.am    1  UNL1       -0.2969
     25 H           5.8271   -9.7316   27.2669 H       1  UNL1        0.1501
     26 C           2.7813  -13.9404   27.7909 C.ar    1  UNL1        0.1347
     27 C           3.8067  -14.1493   26.7163 C.ar    1  UNL1        0.0367
     28 C           5.0951  -13.3819   26.7496 C.ar    1  UNL1        0.0076
     29 C           5.3581  -12.4056   27.8576 C.ar    1  UNL1        0.0532
     30 C           4.3327  -12.1968   28.9323 C.ar    1  UNL1        0.0032
     31 C           3.0443  -12.9642   28.8989 C.ar    1  UNL1        0.0123
     32 C           2.0189  -12.7553   29.9736 C.3     1  UNL1        0.0342
     33 C           1.4123  -16.0660   28.3892 C.3     1  UNL1        0.2525
     34 O           1.4929  -14.7079   27.7576 O.3     1  UNL1       -0.4717
@<TRIPOS>BOND
     1    33    34    1
     2    34    26    1
     3    26    27   ar
     4    27    28   ar
     5    28    29   ar
     6    29    22    1
     7    22    23    2
     8    22    24   am
     9    24    21    1
    10    21     1    1
    11     1     2   ar
    12     2     3   ar
    13     3     4   ar
    14     4     5   ar
    15     5     7    1
    16     7     8    2
    17     7     9   am
    18     9    11    1
    19    11    12   ar
    20    12    13   ar
    21    13    14   ar
    22    14    17    1
    23    17    18    1
    24    18    19    1
    25    18    20    1
    26    14    15   ar
    27    15    16   ar
    28     5     6   ar
    29    29    30   ar
    30    30    31   ar
    31    31    32    1
    32    31    26   ar
    33     6     1   ar
    34    16    11   ar
    35    24    25    1
    36     9    10    1
@<TRIPOS>MOLECULE
*****
 34 36 0 0 0
SMALL
GASTEIGER

@<TRIPOS>ATOM
      1 C          -2.9309    4.1430   23.1117 C.ar    1  UNL1       -0.0024
      2 C          -3.9756    4.5380   22.1104 C.ar    1  UNL1       -0.0026
      3 C          -3.7678    4.2444   20.6542 C.ar    1  UNL1       -0.0001
      4 C          -2.5153    3.5557   20.1992 C.ar    1  UNL1        0.0045
      5 C          -1.4706    3.1606   21.2006 C.ar    1  UNL1        0.0534
      6 C          -1.6784    3.4543   22.6568 C.ar    1  UNL1        0.0019
      7 C          -0.2181    2.4719   20.7456 C.2     1  UNL1        0.2495
      8 O           1.0784    3.2250   20.7020 O.2     1  UNL1       -0.2698
      9 N          -0.2621    1.0300   20.3343 N.am    1  UNL1       -0.2804
     10 H          -1.1131    0.5357   20.3629 H       1  UNL1        0.1552
     11 C           0.9904    0.3413   19.8794 C.ar    1  UNL1        0.0505
     12 C           1.5076    0.5666   18.4896 C.ar    1  UNL1        0.0144
     13 C           2.7601   -0.1221   18.0346 C.ar    1  UNL1       -0.0016
     14 C           3.4953   -1.0361   18.9695 C.ar    1  UNL1       -0.0061
     15 C           2.9780   -1.2614   20.3594 C.ar    1  UNL1       -0.0016
     16 C           1.7256   -0.5727   20.8143 C.ar    1  UNL1        0.0144
     17 C           4.7478   -1.7248   18.5146 C.3     1  UNL1        0.0992
     18 N           5.1602   -3.0231   19.1424 N.3     1  UNL1       -0.2665
     19 C           6.3485   -3.0701   20.0566 C.3     1  UNL1        0.0899
     20 C           4.3843   -4.2744   18.8561 C.3     1  UNL1        0.0899
     21 C          -3.1387    4.4366   24.5680 C.3     1  UNL1        0.1166
     22 C          -1.2183    3.8409   26.2133 C.2     1  UNL1        0.2461
     23 O          -0.4673    5.0648   25.7798 O.2     1  UNL1       -0.2701
     24 N          -2.5540    3.5268   25.6074 N.am    1  UNL1       -0.2969
     25 H          -3.0469    2.7235   25.8919 H       1  UNL1        0.1501
     26 C           0.5358    1.1114   29.3315 C.ar    1  UNL1        0.1347
     27 C           1.1954    2.4236   29.0267 C.ar    1  UNL1        0.0367
     28 C           0.6107    3.3335   27.9873 C.ar    1  UNL1        0.0076
     29 C          -0.6336    2.9311   27.2527 C.ar    1  UNL1        0.0532
     30 C          -1.2932    1.6189   27.5575 C.ar    1  UNL1        0.0032
     31 C          -0.7085    0.7090   28.5969 C.ar    1  UNL1        0.0123
     32 C          -1.3682   -0.6032   28.9016 C.3     1  UNL1        0.0342
     33 C           2.4539   -0.4446   30.1376 C.3     1  UNL1        0.2525
     34 O           1.1205    0.2016   30.3709 O.3     1  UNL1       -0.4717
@<TRIPOS>BOND
     1    33    34    1
     2    34    26    1
     3    26    27   ar
     4    27    28   ar
     5    28    29   ar
     6    29    22    1
     7    22    23    2
     8    22    24   am
     9    24    21    1
    10    21     1    1
    11     1     2   ar
    12     2     3   ar
    13     3     4   ar
    14     4     5   ar
    15     5     7    1
    16     7     8    2
    17     7     9   am
    18     9    11    1
    19    11    12   ar
    20    12    13   ar
    21    13    14   ar
    22    14    17    1
    23    17    18    1
    24    18    19    1
    25    18    20    1
    26    14    15   ar
    27    15    16   ar
    28     5     6   ar
    29    29    30   ar
    30    30    31   ar
    31    31    32    1
    32    31    26   ar
    33     6     1   ar
    34    16    11   ar
    35    24    25    1
    36     9    10    1
@<TRIPOS>MOLECULE
*****
 34 36 0 0 0
SMALL
GASTEIGER

@<TRIPOS>ATOM
      1 C           0.3671    2.0461   24.9982 C.ar    1  UNL1       -0.0024
      2 C          -0.9777    2.7067   25.0696 C.ar    1  UNL1       -0.0026
      3 C          -1.7371    2.7240   26.3631 C.ar    1  UNL1       -0.0001
      4 C          -1.1517    2.0806   27.5851 C.ar    1  UNL1        0.0045
      5 C           0.1932    1.4200   27.5137 C.ar    1  UNL1        0.0534
      6 C           0.9525    1.4027   26.2202 C.ar    1  UNL1        0.0019
      7 C           0.7786    0.7766   28.7357 C.2     1  UNL1        0.2495
      8 O           0.0536   -0.3499   29.4105 O.2     1  UNL1       -0.2698
      9 N           2.0891    1.2597   29.2828 N.am    1  UNL1       -0.2804
     10 H           2.5649    1.9990   28.8399 H       1  UNL1        0.1552
     11 C           2.6745    0.6163   30.5048 C.ar    1  UNL1        0.0505
     12 C           3.3366   -0.7257   30.4017 C.ar    1  UNL1        0.0144
     13 C           3.9220   -1.3691   31.6237 C.ar    1  UNL1       -0.0016
     14 C           3.8453   -0.6705   32.9489 C.ar    1  UNL1       -0.0061
     15 C           3.1832    0.6715   33.0521 C.ar    1  UNL1       -0.0016
     16 C           2.5978    1.3149   31.8300 C.ar    1  UNL1        0.0144
     17 C           4.4307   -1.3139   34.1709 C.3     1  UNL1        0.0992
     18 N           5.3918   -0.5504   35.0331 N.3     1  UNL1       -0.2665
     19 C           4.9814   -0.1129   36.4079 C.3     1  UNL1        0.0899
     20 C           6.7632   -0.2244   34.5204 C.3     1  UNL1        0.0899
     21 C           1.1265    2.0289   23.7047 C.3     1  UNL1        0.1166
     22 C           1.9647    0.4268   21.8390 C.2     1  UNL1        0.2461
     23 O           1.3088    1.2904   20.8028 O.2     1  UNL1       -0.2701
     24 N           1.8736    0.7960   23.2900 N.am    1  UNL1       -0.2969
     25 H           2.3040    0.2292   23.9701 H       1  UNL1        0.1501
     26 C           4.2057   -3.2719   20.5949 C.ar    1  UNL1        0.1347
     27 C           3.3761   -2.5250   19.5930 C.ar    1  UNL1        0.0367
     28 C           2.6290   -1.2922   20.0077 C.ar    1  UNL1        0.0076
     29 C           2.7117   -0.8061   21.4243 C.ar    1  UNL1        0.0532
     30 C           3.5414   -1.5529   22.4262 C.ar    1  UNL1        0.0032
     31 C           4.2884   -2.7858   22.0115 C.ar    1  UNL1        0.0123
     32 C           5.1181   -3.5326   23.0135 C.3     1  UNL1        0.0342
     33 C           4.5305   -5.2612   18.9557 C.3     1  UNL1        0.2525
     34 O           4.9528   -4.5047   20.1802 O.3     1  UNL1       -0.4717
@<TRIPOS>BOND
     1    33    34    1
     2    34    26    1
     3    26    27   ar
     4    27    28   ar
     5    28    29   ar
     6    29    22    1
     7    22    23    2
     8    22    24   am
     9    24    21    1
    10    21     1    1
    11     1     2   ar
    12     2     3   ar
    13     3     4   ar
    14     4     5   ar
    15     5     7    1
    16     7     8    2
    17     7     9   am
    18     9    11    1
    19    11    12   ar
    20    12    13   ar
    21    13    14   ar
    22    14    17    1
    23    17    18    1
    24    18    19    1
    25    18    20    1
    26    14    15   ar
    27    15    16   ar
    28     5     6   ar
    29    29    30   ar
    30    30    31   ar
    31    31    32    1
    32    31    26   ar
    33     6     1   ar
    34    16    11   ar
    35    24    25    1
    36     9    10    1
@<TRIPOS>MOLECULE
*****
 34 36 0 0 0
SMALL
GASTEIGER

@<TRIPOS>ATOM
      1 C           4.4276   -1.2460   28.4573 C.ar    1  UNL1       -0.0024
      2 C           5.7416   -1.8925   28.1326 C.ar    1  UNL1       -0.0026
      3 C           6.6893   -2.2606   29.2356 C.ar    1  UNL1       -0.0001
      4 C           6.3229   -1.9820   30.6633 C.ar    1  UNL1        0.0045
      5 C           5.0089   -1.3355   30.9879 C.ar    1  UNL1        0.0534
      6 C           4.0613   -0.9675   29.8849 C.ar    1  UNL1        0.0019
      7 C           4.6425   -1.0570   32.4156 C.2     1  UNL1        0.2495
      8 O           3.8426   -2.0592   33.1938 O.2     1  UNL1       -0.2698
      9 N           5.0760    0.2238   33.0650 N.am    1  UNL1       -0.2804
     10 H           5.6010    0.8816   32.5542 H       1  UNL1        0.1552
     11 C           4.7096    0.5023   34.4926 C.ar    1  UNL1        0.0505
     12 C           3.6148    1.4774   34.8095 C.ar    1  UNL1        0.0144
     13 C           3.2484    1.7559   36.2371 C.ar    1  UNL1       -0.0016
     14 C           3.9769    1.0593   37.3480 C.ar    1  UNL1       -0.0061
     15 C           5.0718    0.0841   37.0312 C.ar    1  UNL1       -0.0016
     16 C           5.4382   -0.1944   35.6035 C.ar    1  UNL1        0.0144
     17 C           3.6105    1.3378   38.7756 C.3     1  UNL1        0.0992
     18 N           2.1680    1.3880   39.1836 N.3     1  UNL1       -0.2665
     19 C           1.5081    2.7094   39.4455 C.3     1  UNL1        0.0899
     20 C           1.3852    0.1168   39.3298 C.3     1  UNL1        0.0899
     21 C           3.4800   -0.8780   27.3543 C.3     1  UNL1        0.1166
     22 C           3.8273   -0.7731   24.7817 C.2     1  UNL1        0.2461
     23 O           3.9948    0.7151   24.8650 O.2     1  UNL1       -0.2701
     24 N           3.5699   -1.5697   26.0263 N.am    1  UNL1       -0.2969
     25 H           3.4599   -2.5465   25.9717 H       1  UNL1        0.1501
     26 C           4.0970   -2.8482   20.7978 C.ar    1  UNL1        0.1347
     27 C           4.8346   -3.3993   21.9819 C.ar    1  UNL1        0.0367
     28 C           4.7447   -2.7076   23.3099 C.ar    1  UNL1        0.0076
     29 C           3.9172   -1.4648   23.4537 C.ar    1  UNL1        0.0532
     30 C           3.1796   -0.9138   22.2696 C.ar    1  UNL1        0.0032
     31 C           3.2695   -1.6054   20.9416 C.ar    1  UNL1        0.0123
     32 C           2.5318   -1.0543   19.7575 C.3     1  UNL1        0.0342
     33 C           3.3016   -4.7142   19.1744 C.3     1  UNL1        0.2525
     34 O           4.1869   -3.5399   19.4698 O.3     1  UNL1       -0.4717
@<TRIPOS>BOND
     1    33    34    1
     2    34    26    1
     3    26    27   ar
     4    27    28   ar
     5    28    29   ar
     6    29    22    1
     7    22    23    2
     8    22    24   am
     9    24    21    1
    10    21     1    1
    11     1     2   ar
    12     2     3   ar
    13     3     4   ar
    14     4     5   ar
    15     5     7    1
    16     7     8    2
    17     7     9   am
    18     9    11    1
    19    11    12   ar
    20    12    13   ar
    21    13    14   ar
    22    14    17    1
    23    17    18    1
    24    18    19    1
    25    18    20    1
    26    14    15   ar
    27    15    16   ar
    28     5     6   ar
    29    29    30   ar
    30    30    31   ar
    31    31    32    1
    32    31    26   ar
    33     6     1   ar
    34    16    11   ar
    35    24    25    1
    36     9    10    1
@<TRIPOS>MOLECULE
*****
 34 36 0 0 0
SMALL
GASTEIGER

@<TRIPOS>ATOM
      1 C           7.2899   -5.2544   26.5826 C.ar    1  UNL1       -0.0024
      2 C           7.8771   -6.5499   27.0587 C.ar    1  UNL1       -0.0026
      3 C           8.0212   -6.8130   28.5284 C.ar    1  UNL1       -0.0001
      4 C           7.5779   -5.7804   29.5221 C.ar    1  UNL1        0.0045
      5 C           6.9906   -4.4848   29.0460 C.ar    1  UNL1        0.0534
      6 C           6.8466   -4.2218   27.5763 C.ar    1  UNL1        0.0019
      7 C           6.5474   -3.4523   30.0397 C.2     1  UNL1        0.2495
      8 O           6.0251   -2.1291   29.5640 O.2     1  UNL1       -0.2698
      9 N           6.6264   -3.7430   31.5092 N.am    1  UNL1       -0.2804
     10 H           6.9691   -4.6115   31.8214 H       1  UNL1        0.1552
     11 C           6.1831   -2.7105   32.5029 C.ar    1  UNL1        0.0505
     12 C           4.7861   -2.7451   33.0478 C.ar    1  UNL1        0.0144
     13 C           4.3428   -1.7126   34.0415 C.ar    1  UNL1       -0.0016
     14 C           5.2966   -0.6454   34.4902 C.ar    1  UNL1       -0.0061
     15 C           6.6937   -0.6108   33.9453 C.ar    1  UNL1       -0.0016
     16 C           7.1370   -1.6433   32.9516 C.ar    1  UNL1        0.0144
     17 C           4.8534    0.3871   35.4839 C.3     1  UNL1        0.0992
     18 N           4.3914    1.7335   35.0109 N.3     1  UNL1       -0.2665
     19 C           3.0317    1.8867   34.3964 C.3     1  UNL1        0.0899
     20 C           5.2893    2.9268   35.1525 C.3     1  UNL1        0.0899
     21 C           7.1458   -4.9913   25.1129 C.3     1  UNL1        0.1166
     22 C           5.8960   -3.8330   23.1517 C.2     1  UNL1        0.2461
     23 O           6.6851   -4.6461   22.1687 O.2     1  UNL1       -0.2701
     24 N           6.1264   -4.0056   24.6238 N.am    1  UNL1       -0.2969
     25 H           5.6085   -3.4720   25.2690 H       1  UNL1        0.1501
     26 C           2.8376   -0.8761   21.6844 C.ar    1  UNL1        0.1347
     27 C           3.4848   -1.8262   20.7209 C.ar    1  UNL1        0.0367
     28 C           4.5043   -2.8119   21.2100 C.ar    1  UNL1        0.0076
     29 C           4.8765   -2.8474   22.6626 C.ar    1  UNL1        0.0532
     30 C           4.2293   -1.8973   23.6261 C.ar    1  UNL1        0.0032
     31 C           3.2099   -0.9117   23.1370 C.ar    1  UNL1        0.0123
     32 C           2.5627    0.0385   24.1006 C.3     1  UNL1        0.0342
     33 C           0.7994   -0.3083   20.1767 C.3     1  UNL1        0.2525
     34 O           1.8182    0.1095   21.1953 O.3     1  UNL1       -0.4717
@<TRIPOS>BOND
     1    33    34    1
     2    34    26    1
     3    26    27   ar
     4    27    28   ar
     5    28    29   ar
     6    29    22    1
     7    22    23    2
     8    22    24   am
     9    24    21    1
    10    21     1    1
    11     1     2   ar
    12     2     3   ar
    13     3     4   ar
    14     4     5   ar
    15     5     7    1
    16     7     8    2
    17     7     9   am
    18     9    11    1
    19    11    12   ar
    20    12    13   ar
    21    13    14   ar
    22    14    17    1
    23    17    18    1
    24    18    19    1
    25    18    20    1
    26    14    15   ar
    27    15    16   ar
    28     5     6   ar
    29    29    30   ar
    30    30    31   ar
    31    31    32    1
    32    31    26   ar
    33     6     1   ar
    34    16    11   ar
    35    24    25    1
    36     9    10    1
@<TRIPOS>MOLECULE
*****
 34 36 0 0 0
SMALL
GASTEIGER

@<TRIPOS>ATOM
      1 C           7.9074   -5.3839   23.6647 C.ar    1  UNL1       -0.0024
      2 C           8.4912   -6.7648   23.6162 C.ar    1  UNL1       -0.0026
      3 C           8.4986   -7.6197   24.8488 C.ar    1  UNL1       -0.0001
      4 C           7.9222   -7.0936   26.1298 C.ar    1  UNL1        0.0045
      5 C           7.3384   -5.7127   26.1782 C.ar    1  UNL1        0.0534
      6 C           7.3310   -4.8579   24.9457 C.ar    1  UNL1        0.0019
      7 C           6.7619   -5.1867   27.4592 C.2     1  UNL1        0.2495
      8 O           5.4659   -5.7343   27.9791 O.2     1  UNL1       -0.2698
      9 N           7.4816   -4.1129   28.2204 N.am    1  UNL1       -0.2804
     10 H           8.3323   -3.7535   27.8791 H       1  UNL1        0.1552
     11 C           6.9052   -3.5869   29.5014 C.ar    1  UNL1        0.0505
     12 C           7.0876   -4.3547   30.7770 C.ar    1  UNL1        0.0144
     13 C           6.5111   -3.8287   32.0580 C.ar    1  UNL1       -0.0016
     14 C           5.7523   -2.5348   32.0634 C.ar    1  UNL1       -0.0061
     15 C           5.5698   -1.7669   30.7878 C.ar    1  UNL1       -0.0016
     16 C           6.1463   -2.2930   29.5068 C.ar    1  UNL1        0.0144
     17 C           5.1758   -2.0088   33.3444 C.3     1  UNL1        0.0992
     18 N           5.9188   -0.9692   34.1300 N.3     1  UNL1       -0.2665
     19 C           5.2561   -0.2924   35.2932 C.3     1  UNL1        0.0899
     20 C           7.3244   -0.6063   33.7525 C.3     1  UNL1        0.0899
     21 C           7.9000   -4.5290   22.4321 C.3     1  UNL1        0.1166
     22 C           5.8286   -3.5709   21.1907 C.2     1  UNL1        0.2461
     23 O           5.8286   -4.7583   20.2743 O.2     1  UNL1       -0.2701
     24 N           6.8643   -3.4562   22.2696 N.am    1  UNL1       -0.2969
     25 H           6.8644   -2.6769   22.8711 H       1  UNL1        0.1501
     26 C           2.7214   -0.3525   20.7034 C.ar    1  UNL1        0.1347
     27 C           2.9850   -0.9417   22.0574 C.ar    1  UNL1        0.0367
     28 C           4.0207   -2.0145   22.2199 C.ar    1  UNL1        0.0076
     29 C           4.7929   -2.4981   21.0283 C.ar    1  UNL1        0.0532
     30 C           4.5293   -1.9089   19.6743 C.ar    1  UNL1        0.0032
     31 C           3.4936   -0.8361   19.5119 C.ar    1  UNL1        0.0123
     32 C           3.2300   -0.2469   18.1578 C.3     1  UNL1        0.0342
     33 C           0.2404    0.3502   20.3861 C.3     1  UNL1        0.2525
     34 O           1.6857    0.7203   20.5410 O.3     1  UNL1       -0.4717
@<TRIPOS>BOND
     1    33    34    1
     2    34    26    1
     3    26    27   ar
     4    27    28   ar
     5    28    29   ar
     6    29    22    1
     7    22    23    2
     8    22    24   am
     9    24    21    1
    10    21     1    1
    11     1     2   ar
    12     2     3   ar
    13     3     4   ar
    14     4     5   ar
    15     5     7    1
    16     7     8    2
    17     7     9   am
    18     9    11    1
    19    11    12   ar
    20    12    13   ar
    21    13    14   ar
    22    14    17    1
    23    17    18    1
    24    18    19    1
    25    18    20    1
    26    14    15   ar
    27    15    16   ar
    28     5     6   ar
    29    29    30   ar
    30    30    31   ar
    31    31    32    1
    32    31    26   ar
    33     6     1   ar
    34    16    11   ar
    35    24    25    1
    36     9    10    1
@<TRIPOS>MOLECULE
*****
 34 36 0 0 0
SMALL
GASTEIGER

@<TRIPOS>ATOM
      1 C           7.7841   -6.4113   27.6693 C.ar    1  UNL1       -0.0024
      2 C           8.4023   -7.5803   26.9615 C.ar    1  UNL1       -0.0026
      3 C           8.4225   -7.6242   25.4622 C.ar    1  UNL1       -0.0001
      4 C           7.8244   -6.4990   24.6709 C.ar    1  UNL1        0.0045
      5 C           7.2062   -5.3299   25.3788 C.ar    1  UNL1        0.0534
      6 C           7.1860   -5.2861   26.8780 C.ar    1  UNL1        0.0019
      7 C           6.6081   -4.2047   24.5875 C.2     1  UNL1        0.2495
      8 O           6.1102   -2.9760   25.2892 O.2     1  UNL1       -0.2698
      9 N           6.5080   -4.3081   23.0944 N.am    1  UNL1       -0.2804
     10 H           6.8348   -5.1145   22.6338 H       1  UNL1        0.1552
     11 C           5.9100   -3.1829   22.3030 C.ar    1  UNL1        0.0505
     12 C           4.4223   -3.0927   22.1340 C.ar    1  UNL1        0.0144
     13 C           3.8242   -1.9675   21.3427 C.ar    1  UNL1       -0.0016
     14 C           4.7138   -0.9325   20.7204 C.ar    1  UNL1       -0.0061
     15 C           6.2016   -1.0227   20.8894 C.ar    1  UNL1       -0.0016
     16 C           6.7997   -2.1479   21.6807 C.ar    1  UNL1        0.0144
     17 C           4.1158    0.1928   19.9291 C.3     1  UNL1        0.0992
     18 N           3.4114   -0.0914   18.6356 N.3     1  UNL1       -0.2665
     19 C           4.0313   -1.0177   17.6318 C.3     1  UNL1        0.0899
     20 C           2.0870    0.5506   18.3461 C.3     1  UNL1        0.0899
     21 C           7.7639   -6.3675   29.1686 C.3     1  UNL1        0.1166
     22 C           7.1379   -4.9892   31.2801 C.2     1  UNL1        0.2461
     23 O           6.6988   -6.2464   31.9705 O.2     1  UNL1       -0.2701
     24 N           7.6704   -5.0498   29.8792 N.am    1  UNL1       -0.2969
     25 H           7.9586   -4.2246   29.4260 H       1  UNL1        0.1501
     26 C           6.8575   -1.0361   33.4118 C.ar    1  UNL1        0.1347
     27 C           8.1868   -1.5343   32.9274 C.ar    1  UNL1        0.0367
     28 C           8.2802   -2.8520   32.2168 C.ar    1  UNL1        0.0076
     29 C           7.0444   -3.6715   31.9907 C.ar    1  UNL1        0.0532
     30 C           5.7151   -3.1733   32.4751 C.ar    1  UNL1        0.0032
     31 C           5.6217   -1.8556   33.1857 C.ar    1  UNL1        0.0123
     32 C           4.2923   -1.3574   33.6702 C.3     1  UNL1        0.0342
     33 C           7.0847    0.3694   35.5851 C.3     1  UNL1        0.2525
     34 O           6.7640    0.2816   34.1224 O.3     1  UNL1       -0.4717
@<TRIPOS>BOND
     1    33    34    1
     2    34    26    1
     3    26    27   ar
     4    27    28   ar
     5    28    29   ar
     6    29    22    1
     7    22    23    2
     8    22    24   am
     9    24    21    1
    10    21     1    1
    11     1     2   ar
    12     2     3   ar
    13     3     4   ar
    14     4     5   ar
    15     5     7    1
    16     7     8    2
    17     7     9   am
    18     9    11    1
    19    11    12   ar
    20    12    13   ar
    21    13    14   ar
    22    14    17    1
    23    17    18    1
    24    18    19    1
    25    18    20    1
    26    14    15   ar
    27    15    16   ar
    28     5     6   ar
    29    29    30   ar
    30    30    31   ar
    31    31    32    1
    32    31    26   ar
    33     6     1   ar
    34    16    11   ar
    35    24    25    1
    36     9    10    1
