@<TRIPOS>MOLECULE
*****
 30 32 0 0 0
SMALL
GASTEIGER

@<TRIPOS>ATOM
      1 C          -3.8714  -18.3241   23.0396 C.3     1  UNL1        0.0175
      2 C          -4.3440  -19.6194   22.4489 C.3     1  UNL1        0.0031
      3 C          -5.7740  -19.7715   22.0221 C.3     1  UNL1        0.0196
      4 C          -6.7314  -18.6285   22.1862 C.3     1  UNL1        0.0716
      5 C          -6.2587  -17.3332   22.7770 C.3     1  UNL1        0.0196
      6 C          -4.8288  -17.1811   23.2036 C.3     1  UNL1        0.0031
      7 N          -8.1613  -18.7807   21.7595 N.am    1  UNL1       -0.3046
      8 C          -8.4908  -19.0353   20.3185 C.2     1  UNL1        0.2427
      9 O          -7.3904  -19.1378   19.3042 O.2     1  UNL1       -0.2732
     10 H          -8.8835  -18.7135   22.4252 H       1  UNL1        0.1494
     11 C          -9.9208  -19.1876   19.8916 C.3     1  UNL1        0.1770
     12 N         -10.9855  -18.3379   20.5197 N.pl3   1  UNL1       -0.2997
     13 C         -11.6390  -17.1400   19.8969 C.3     1  UNL1        0.0959
     14 C         -12.6409  -16.5987   20.8732 C.3     1  UNL1        0.0490
     15 C         -12.6067  -17.4620   22.0993 C.ar    1  UNL1       -0.0063
     16 C         -13.3749  -17.4083   23.3865 C.ar    1  UNL1        0.0084
     17 C         -13.1200  -18.4294   24.4552 C.ar    1  UNL1        0.0574
     18 CL        -13.8882  -18.3757   25.7425 Cl      1  UNL1       -0.0823
     19 C         -12.0968  -19.5043   24.2368 C.ar    1  UNL1        0.0126
     20 C         -11.3286  -19.5581   22.9496 C.ar    1  UNL1        0.0151
     21 C         -11.5835  -18.5369   21.8809 C.ar    1  UNL1        0.0442
     22 C          -2.4415  -18.1719   23.4663 C.3     1  UNL1        0.0910
     23 N          -1.3486  -18.1681   22.4389 N.3     1  UNL1       -0.1834
     24 H          -0.7643  -17.3550   22.6336 H       1  UNL1        0.1484
     25 S          -1.6914  -18.1155   20.9795 S.O2    1  UNL1        0.0390
     26 O          -1.4541  -19.5925   20.8706 O.2     1  UNL1       -0.1576
     27 O          -1.9287  -16.6384   21.0884 O.2     1  UNL1       -0.1576
     28 C          -0.9726  -17.7365   18.5118 C.3     1  UNL1        0.0270
     29 C          -2.0341  -18.0629   19.5202 C.3     1  UNL1        0.1457
     30 C          -3.4382  -18.3366   19.0691 C.3     1  UNL1        0.0270
@<TRIPOS>BOND
     1    28    29    1
     2    29    30    1
     3    29    25    1
     4    25    26    2
     5    25    27    2
     6    25    23    1
     7    23    22    1
     8     1    22    1
     9     1     2    1
    10     2     3    1
    11     3     4    1
    12     4     7    1
    13     7     8   am
    14     8     9    2
    15     8    11    1
    16    11    12    1
    17    12    13    1
    18    13    14    1
    19    14    15    1
    20    15    16   ar
    21    16    17   ar
    22    17    18    1
    23    17    19   ar
    24    19    20   ar
    25    20    21   ar
    26     4     5    1
    27     5     6    1
    28     6     1    1
    29    21    12    1
    30    21    15   ar
    31    23    24    1
    32     7    10    1
@<TRIPOS>MOLECULE
*****
 30 32 0 0 0
SMALL
GASTEIGER

@<TRIPOS>ATOM
      1 C          -4.7692  -19.8911   20.6449 C.3     1  UNL1        0.0175
      2 C          -6.1618  -20.2490   20.2177 C.3     1  UNL1        0.0031
      3 C          -7.3346  -19.8226   21.0502 C.3     1  UNL1        0.0196
      4 C          -7.1147  -19.0384   22.3098 C.3     1  UNL1        0.0716
      5 C          -5.7221  -18.6805   22.7370 C.3     1  UNL1        0.0196
      6 C          -4.5494  -19.1068   21.9045 C.3     1  UNL1        0.0031
      7 N          -8.2874  -18.6122   23.1422 N.am    1  UNL1       -0.3046
      8 C          -9.0665  -19.6323   23.9184 C.2     1  UNL1        0.2427
      9 O          -8.6727  -21.0786   23.8622 O.2     1  UNL1       -0.2732
     10 H          -8.5459  -17.6629   23.1791 H       1  UNL1        0.1494
     11 C         -10.2393  -19.2060   24.7509 C.3     1  UNL1        0.1770
     12 N         -11.4350  -18.5795   24.0969 N.pl3   1  UNL1       -0.2997
     13 C         -12.8393  -18.5985   24.6239 C.3     1  UNL1        0.0959
     14 C         -13.7085  -17.8547   23.6538 C.3     1  UNL1        0.0490
     15 C         -12.8415  -17.3760   22.5272 C.ar    1  UNL1       -0.0063
     16 C         -13.1500  -16.5901   21.2874 C.ar    1  UNL1        0.0084
     17 C         -12.0533  -16.2521   20.3215 C.ar    1  UNL1        0.0574
     18 CL        -12.3617  -15.4661   19.0816 Cl      1  UNL1       -0.0823
     19 C         -10.6482  -16.7001   20.5954 C.ar    1  UNL1        0.0126
     20 C         -10.3397  -17.4860   21.8352 C.ar    1  UNL1        0.0151
     21 C         -11.4364  -17.8239   22.8011 C.ar    1  UNL1        0.0442
     22 C          -3.5965  -20.3173   19.8125 C.3     1  UNL1        0.0910
     23 N          -2.8392  -19.3025   19.0083 N.3     1  UNL1       -0.1834
     24 H          -2.1994  -19.8214   18.4068 H       1  UNL1        0.1484
     25 S          -2.0247  -18.2515   19.7025 S.O2    1  UNL1        0.0390
     26 O          -1.1630  -19.3195   20.3082 O.2     1  UNL1       -0.1576
     27 O          -2.8863  -17.1835   19.0969 O.2     1  UNL1       -0.1576
     28 C          -1.8534  -16.3014   21.4106 C.3     1  UNL1        0.0270
     29 C          -1.2101  -17.2006   20.3968 C.3     1  UNL1        0.1457
     30 C           0.2475  -17.0488   20.0773 C.3     1  UNL1        0.0270
@<TRIPOS>BOND
     1    28    29    1
     2    29    30    1
     3    29    25    1
     4    25    26    2
     5    25    27    2
     6    25    23    1
     7    23    22    1
     8     1    22    1
     9     1     2    1
    10     2     3    1
    11     3     4    1
    12     4     7    1
    13     7     8   am
    14     8     9    2
    15     8    11    1
    16    11    12    1
    17    12    13    1
    18    13    14    1
    19    14    15    1
    20    15    16   ar
    21    16    17   ar
    22    17    18    1
    23    17    19   ar
    24    19    20   ar
    25    20    21   ar
    26     4     5    1
    27     5     6    1
    28     6     1    1
    29    21    12    1
    30    21    15   ar
    31    23    24    1
    32     7    10    1
@<TRIPOS>MOLECULE
*****
 30 32 0 0 0
SMALL
GASTEIGER

@<TRIPOS>ATOM
      1 C           3.1182   -0.7881   18.4226 C.3     1  UNL1        0.0175
      2 C           2.4164    0.4203   17.8774 C.3     1  UNL1        0.0031
      3 C           1.3089    1.0613   18.6602 C.3     1  UNL1        0.0196
      4 C           0.9032    0.4938   19.9881 C.3     1  UNL1        0.0716
      5 C           1.6050   -0.7146   20.5333 C.3     1  UNL1        0.0196
      6 C           2.7125   -1.3555   19.7506 C.3     1  UNL1        0.0031
      7 N          -0.2043    1.1348   20.7707 N.am    1  UNL1       -0.3046
      8 C           0.0251    2.4493   21.4560 C.2     1  UNL1        0.2427
      9 O           1.3619    3.1226   21.3587 O.2     1  UNL1       -0.2732
     10 H          -1.0817    0.6928   20.8346 H       1  UNL1        0.1494
     11 C          -1.0824    3.0904   22.2388 C.3     1  UNL1        0.1770
     12 N          -2.3986    3.3771   21.5789 N.pl3   1  UNL1       -0.2997
     13 C          -2.6398    3.4839   20.1023 C.3     1  UNL1        0.0959
     14 C          -4.0950    3.7803   19.8906 C.3     1  UNL1        0.0490
     15 C          -4.7530    3.8567   21.2364 C.ar    1  UNL1       -0.0063
     16 C          -6.1715    4.1209   21.6465 C.ar    1  UNL1        0.0084
     17 C          -6.5414    4.1360   23.1000 C.ar    1  UNL1        0.0574
     18 CL         -7.9599    4.4003   23.5102 Cl      1  UNL1       -0.0823
     19 C          -5.4930    3.8869   24.1434 C.ar    1  UNL1        0.0126
     20 C          -4.0746    3.6226   23.7333 C.ar    1  UNL1        0.0151
     21 C          -3.7046    3.6075   22.2798 C.ar    1  UNL1        0.0442
     22 C           4.2257   -1.4291   17.6400 C.3     1  UNL1        0.0910
     23 N           4.8437   -2.7073   18.1241 N.3     1  UNL1       -0.1834
     24 H           4.1835   -3.1233   18.7809 H       1  UNL1        0.1484
     25 S           6.1782   -2.6830   18.8085 S.O2    1  UNL1        0.0390
     26 O           6.8279   -2.2535   17.5265 O.2     1  UNL1       -0.1576
     27 O           5.5287   -3.1125   20.0905 O.2     1  UNL1       -0.1576
     28 C           8.5288   -1.6206   19.1185 C.3     1  UNL1        0.0270
     29 C           7.5128   -2.6587   19.4928 C.3     1  UNL1        0.1457
     30 C           7.8314   -3.6725   20.5514 C.3     1  UNL1        0.0270
@<TRIPOS>BOND
     1    28    29    1
     2    29    30    1
     3    29    25    1
     4    25    26    2
     5    25    27    2
     6    25    23    1
     7    23    22    1
     8     1    22    1
     9     1     2    1
    10     2     3    1
    11     3     4    1
    12     4     7    1
    13     7     8   am
    14     8     9    2
    15     8    11    1
    16    11    12    1
    17    12    13    1
    18    13    14    1
    19    14    15    1
    20    15    16   ar
    21    16    17   ar
    22    17    18    1
    23    17    19   ar
    24    19    20   ar
    25    20    21   ar
    26     4     5    1
    27     5     6    1
    28     6     1    1
    29    21    12    1
    30    21    15   ar
    31    23    24    1
    32     7    10    1
@<TRIPOS>MOLECULE
*****
 30 32 0 0 0
SMALL
GASTEIGER

@<TRIPOS>ATOM
      1 C         -11.2900  -18.7010   23.5142 C.3     1  UNL1        0.0175
      2 C         -11.0467  -19.9313   22.6912 C.3     1  UNL1        0.0031
      3 C          -9.6460  -20.3238   22.3250 C.3     1  UNL1        0.0196
      4 C          -8.4886  -19.4860   22.7818 C.3     1  UNL1        0.0716
      5 C          -8.7319  -18.2558   23.6048 C.3     1  UNL1        0.0196
      6 C         -10.1326  -17.8633   23.9710 C.3     1  UNL1        0.0031
      7 N          -7.0880  -19.8785   22.4156 N.am    1  UNL1       -0.3046
      8 C          -6.5476  -19.5475   21.0561 C.2     1  UNL1        0.2427
      9 O          -7.4078  -18.8239   20.0628 O.2     1  UNL1       -0.2732
     10 H          -6.5234  -20.3534   23.0675 H       1  UNL1        0.1494
     11 C          -5.1469  -19.9400   20.6897 C.3     1  UNL1        0.1770
     12 N          -3.9816  -19.2526   21.3375 N.pl3   1  UNL1       -0.2997
     13 C          -3.8146  -18.9955   22.8058 C.3     1  UNL1        0.0959
     14 C          -2.5085  -18.2855   23.0064 C.3     1  UNL1        0.0490
     15 C          -1.8684  -18.1039   21.6620 C.ar    1  UNL1       -0.0063
     16 C          -0.5742  -17.4714   21.2439 C.ar    1  UNL1        0.0084
     17 C          -0.1903  -17.4367   19.7943 C.ar    1  UNL1        0.0574
     18 CL          1.1040  -16.8042   19.3761 Cl      1  UNL1       -0.0823
     19 C          -1.1008  -18.0343   18.7628 C.ar    1  UNL1        0.0126
     20 C          -2.3950  -18.6668   19.1810 C.ar    1  UNL1        0.0151
     21 C          -2.7788  -18.7015   20.6306 C.ar    1  UNL1        0.0442
     22 C         -12.6906  -18.3085   23.8805 C.3     1  UNL1        0.0910
     23 N         -13.4138  -17.2710   23.0739 N.3     1  UNL1       -0.1834
     24 H         -14.2672  -17.7094   22.7276 H       1  UNL1        0.1484
     25 S         -12.7421  -16.6372   21.8920 S.O2    1  UNL1        0.0390
     26 O         -13.2320  -17.7518   21.0159 O.2     1  UNL1       -0.1576
     27 O         -12.2521  -15.5226   22.7680 O.2     1  UNL1       -0.1576
     28 C         -10.6215  -15.6223   20.7860 C.3     1  UNL1        0.0270
     29 C         -12.0704  -16.0035   20.7100 C.3     1  UNL1        0.1457
     30 C         -12.8472  -15.7508   19.4520 C.3     1  UNL1        0.0270
@<TRIPOS>BOND
     1    28    29    1
     2    29    30    1
     3    29    25    1
     4    25    26    2
     5    25    27    2
     6    25    23    1
     7    23    22    1
     8     1    22    1
     9     1     2    1
    10     2     3    1
    11     3     4    1
    12     4     7    1
    13     7     8   am
    14     8     9    2
    15     8    11    1
    16    11    12    1
    17    12    13    1
    18    13    14    1
    19    14    15    1
    20    15    16   ar
    21    16    17   ar
    22    17    18    1
    23    17    19   ar
    24    19    20   ar
    25    20    21   ar
    26     4     5    1
    27     5     6    1
    28     6     1    1
    29    21    12    1
    30    21    15   ar
    31    23    24    1
    32     7    10    1
@<TRIPOS>MOLECULE
*****
 30 32 0 0 0
SMALL
GASTEIGER

@<TRIPOS>ATOM
      1 C           3.4316    0.7963   18.0967 C.3     1  UNL1        0.0175
      2 C           3.6978    2.2523   18.3399 C.3     1  UNL1        0.0031
      3 C           2.5779    3.1607   18.7532 C.3     1  UNL1        0.0196
      4 C           1.1918    2.6130   18.9231 C.3     1  UNL1        0.0716
      5 C           0.9256    1.1570   18.6799 C.3     1  UNL1        0.0196
      6 C           2.0455    0.2487   18.2666 C.3     1  UNL1        0.0031
      7 N           0.0720    3.5214   19.3364 N.am    1  UNL1       -0.3046
      8 C          -0.9014    4.0256   18.3124 C.2     1  UNL1        0.2427
      9 O          -0.7549    3.6213   16.8754 O.2     1  UNL1       -0.2732
     10 H          -0.0241    3.7868   20.2795 H       1  UNL1        0.1494
     11 C          -2.0213    4.9341   18.7256 C.3     1  UNL1        0.1770
     12 N          -3.2472    4.3652   19.3764 N.pl3   1  UNL1       -0.2997
     13 C          -4.4591    3.8392   18.6659 C.3     1  UNL1        0.0959
     14 C          -5.4373    3.3714   19.7023 C.3     1  UNL1        0.0490
     15 C          -4.8301    3.6083   21.0533 C.ar    1  UNL1       -0.0063
     16 C          -5.3348    3.3441   22.4409 C.ar    1  UNL1        0.0084
     17 C          -4.4860    3.6940   23.6270 C.ar    1  UNL1        0.0574
     18 CL         -4.9907    3.4298   25.0147 Cl      1  UNL1       -0.0823
     19 C          -3.1324    4.3082   23.4256 C.ar    1  UNL1        0.0126
     20 C          -2.6276    4.5724   22.0380 C.ar    1  UNL1        0.0151
     21 C          -3.4765    4.2225   20.8519 C.ar    1  UNL1        0.0442
     22 C           4.5514   -0.1121   17.6834 C.3     1  UNL1        0.0910
     23 N           4.2637   -1.5372   17.3143 N.3     1  UNL1       -0.1834
     24 H           3.2492   -1.6283   17.2603 H       1  UNL1        0.1484
     25 S           4.7524   -2.6523   18.1905 S.O2    1  UNL1        0.0390
     26 O           6.1004   -2.5749   17.5370 O.2     1  UNL1       -0.1576
     27 O           3.4046   -2.7298   18.8440 O.2     1  UNL1       -0.1576
     28 C           4.7123   -5.1580   18.8759 C.3     1  UNL1        0.0270
     29 C           5.2412   -3.7673   19.0667 C.3     1  UNL1        0.1457
     30 C           6.2589   -3.4919   20.1337 C.3     1  UNL1        0.0270
@<TRIPOS>BOND
     1    28    29    1
     2    29    30    1
     3    29    25    1
     4    25    26    2
     5    25    27    2
     6    25    23    1
     7    23    22    1
     8     1    22    1
     9     1     2    1
    10     2     3    1
    11     3     4    1
    12     4     7    1
    13     7     8   am
    14     8     9    2
    15     8    11    1
    16    11    12    1
    17    12    13    1
    18    13    14    1
    19    14    15    1
    20    15    16   ar
    21    16    17   ar
    22    17    18    1
    23    17    19   ar
    24    19    20   ar
    25    20    21   ar
    26     4     5    1
    27     5     6    1
    28     6     1    1
    29    21    12    1
    30    21    15   ar
    31    23    24    1
    32     7    10    1
@<TRIPOS>MOLECULE
*****
 30 32 0 0 0
SMALL
GASTEIGER

@<TRIPOS>ATOM
      1 C           3.5385   -1.6734   19.1319 C.3     1  UNL1        0.0175
      2 C           3.2385   -1.5409   20.5956 C.3     1  UNL1        0.0031
      3 C           2.6558   -0.2658   21.1294 C.3     1  UNL1        0.0196
      4 C           2.3733    0.8767   20.1994 C.3     1  UNL1        0.0716
      5 C           2.6734    0.7443   18.7357 C.3     1  UNL1        0.0196
      6 C           3.2560   -0.5308   18.2020 C.3     1  UNL1        0.0031
      7 N           1.7907    2.1517   20.7332 N.am    1  UNL1       -0.3046
      8 C           0.3152    2.2555   20.9821 C.2     1  UNL1        0.2427
      9 O          -0.5777    1.0844   20.6971 O.2     1  UNL1       -0.2732
     10 H           2.3768    2.9203   20.9202 H       1  UNL1        0.1494
     11 C          -0.2675    3.5306   21.5159 C.3     1  UNL1        0.1770
     12 N          -1.2934    3.4863   22.6094 N.pl3   1  UNL1       -0.2997
     13 C          -1.0213    3.2432   24.0643 C.3     1  UNL1        0.0959
     14 C          -2.3312    3.2840   24.7940 C.3     1  UNL1        0.0490
     15 C          -3.4129    3.5522   23.7900 C.ar    1  UNL1       -0.0063
     16 C          -4.8991    3.6988   23.9308 C.ar    1  UNL1        0.0084
     17 C          -5.7438    3.9704   22.7214 C.ar    1  UNL1        0.0574
     18 CL         -7.2300    4.1169   22.8622 Cl      1  UNL1       -0.0823
     19 C          -5.1024    4.0954   21.3713 C.ar    1  UNL1        0.0126
     20 C          -3.6162    3.9488   21.2305 C.ar    1  UNL1        0.0151
     21 C          -2.7715    3.6772   22.4398 C.ar    1  UNL1        0.0442
     22 C           4.1211   -2.9483   18.5981 C.3     1  UNL1        0.0910
     23 N           5.3691   -2.9122   17.7667 N.3     1  UNL1       -0.1834
     24 H           5.6350   -3.8814   17.5925 H       1  UNL1        0.1484
     25 S           6.5927   -2.2132   18.2806 S.O2    1  UNL1        0.0390
     26 O           6.5352   -1.2613   17.1228 O.2     1  UNL1       -0.1576
     27 O           6.6503   -3.1651   19.4384 O.2     1  UNL1       -0.1576
     28 C           8.9389   -2.3096   19.3924 C.3     1  UNL1        0.0270
     29 C           7.8163   -1.5142   18.7945 C.3     1  UNL1        0.1457
     30 C           7.9175   -0.0200   18.7107 C.3     1  UNL1        0.0270
@<TRIPOS>BOND
     1    28    29    1
     2    29    30    1
     3    29    25    1
     4    25    26    2
     5    25    27    2
     6    25    23    1
     7    23    22    1
     8     1    22    1
     9     1     2    1
    10     2     3    1
    11     3     4    1
    12     4     7    1
    13     7     8   am
    14     8     9    2
    15     8    11    1
    16    11    12    1
    17    12    13    1
    18    13    14    1
    19    14    15    1
    20    15    16   ar
    21    16    17   ar
    22    17    18    1
    23    17    19   ar
    24    19    20   ar
    25    20    21   ar
    26     4     5    1
    27     5     6    1
    28     6     1    1
    29    21    12    1
    30    21    15   ar
    31    23    24    1
    32     7    10    1
@<TRIPOS>MOLECULE
*****
 30 32 0 0 0
SMALL
GASTEIGER

@<TRIPOS>ATOM
      1 C           4.7909    0.9704   36.0443 C.3     1  UNL1        0.0175
      2 C           4.3905    1.7281   34.8133 C.3     1  UNL1        0.0031
      3 C           4.3792    1.0407   33.4800 C.3     1  UNL1        0.0196
      4 C           4.7683   -0.4043   33.3779 C.3     1  UNL1        0.0716
      5 C           5.1687   -1.1620   34.6090 C.3     1  UNL1        0.0196
      6 C           5.1800   -0.4747   35.9421 C.3     1  UNL1        0.0031
      7 N           4.7569   -1.0916   32.0447 N.am    1  UNL1       -0.3046
      8 C           5.9597   -1.0158   31.1516 C.2     1  UNL1        0.2427
      9 O           7.1738   -0.2528   31.5918 O.2     1  UNL1       -0.2732
     10 H           3.9600   -1.5924   31.7558 H       1  UNL1        0.1494
     11 C           5.9484   -1.7031   29.8183 C.3     1  UNL1        0.1770
     12 N           6.3859   -3.1337   29.7082 N.pl3   1  UNL1       -0.2997
     13 C           6.6461   -4.0667   30.8536 C.3     1  UNL1        0.0959
     14 C           7.0611   -5.3920   30.2866 C.3     1  UNL1        0.0490
     15 C           7.0574   -5.2781   28.7910 C.ar    1  UNL1       -0.0063
     16 C           7.3800   -6.2649   27.7084 C.ar    1  UNL1        0.0084
     17 C           7.2854   -5.8559   26.2683 C.ar    1  UNL1        0.0574
     18 CL          7.6081   -6.8428   25.1857 Cl      1  UNL1       -0.0823
     19 C           6.8682   -4.4602   25.9109 C.ar    1  UNL1        0.0126
     20 C           6.5455   -3.4734   26.9935 C.ar    1  UNL1        0.0151
     21 C           6.6401   -3.8823   28.4335 C.ar    1  UNL1        0.0442
     22 C           4.8023    1.6577   37.3775 C.3     1  UNL1        0.0910
     23 N           3.6698    2.5618   37.7648 N.3     1  UNL1       -0.1834
     24 H           4.0604    3.2767   38.3786 H       1  UNL1        0.1484
     25 S           2.4675    2.0004   38.4643 S.O2    1  UNL1        0.0390
     26 O           1.5743    2.8562   37.6159 O.2     1  UNL1       -0.1576
     27 O           3.3605    1.1446   39.3128 O.2     1  UNL1       -0.1576
     28 C           1.2353   -0.0075   39.5598 C.3     1  UNL1        0.0270
     29 C           1.2651    1.4390   39.1638 C.3     1  UNL1        0.1457
     30 C           0.0927    2.3239   39.4672 C.3     1  UNL1        0.0270
@<TRIPOS>BOND
     1    28    29    1
     2    29    30    1
     3    29    25    1
     4    25    26    2
     5    25    27    2
     6    25    23    1
     7    23    22    1
     8     1    22    1
     9     1     2    1
    10     2     3    1
    11     3     4    1
    12     4     7    1
    13     7     8   am
    14     8     9    2
    15     8    11    1
    16    11    12    1
    17    12    13    1
    18    13    14    1
    19    14    15    1
    20    15    16   ar
    21    16    17   ar
    22    17    18    1
    23    17    19   ar
    24    19    20   ar
    25    20    21   ar
    26     4     5    1
    27     5     6    1
    28     6     1    1
    29    21    12    1
    30    21    15   ar
    31    23    24    1
    32     7    10    1
@<TRIPOS>MOLECULE
*****
 30 32 0 0 0
SMALL
GASTEIGER

@<TRIPOS>ATOM
      1 C           3.3719   -1.5695   19.3574 C.3     1  UNL1        0.0175
      2 C           2.1772   -1.2860   20.2189 C.3     1  UNL1        0.0031
      3 C           1.2401   -0.1714   19.8586 C.3     1  UNL1        0.0196
      4 C           1.4978    0.6595   18.6366 C.3     1  UNL1        0.0716
      5 C           2.6926    0.3760   17.7751 C.3     1  UNL1        0.0196
      6 C           3.6296   -0.7385   18.1355 C.3     1  UNL1        0.0031
      7 N           0.5608    1.7740   18.2763 N.am    1  UNL1       -0.3046
      8 C           0.8797    3.1825   18.6818 C.2     1  UNL1        0.2427
      9 O           2.1356    3.4765   19.4474 O.2     1  UNL1       -0.2732
     10 H          -0.2635    1.5810   17.7738 H       1  UNL1        0.1494
     11 C          -0.0573    4.2971   18.3215 C.3     1  UNL1        0.1770
     12 N          -1.5395    4.0981   18.4380 N.pl3   1  UNL1       -0.2997
     13 C          -2.5193    4.0848   17.3022 C.3     1  UNL1        0.0959
     14 C          -3.8874    3.8559   17.8730 C.3     1  UNL1        0.0490
     15 C          -3.7532    3.7277   19.3615 C.ar    1  UNL1       -0.0063
     16 C          -4.7648    3.4940   20.4440 C.ar    1  UNL1        0.0084
     17 C          -4.3254    3.4100   21.8757 C.ar    1  UNL1        0.0574
     18 CL         -5.3370    3.1762   22.9584 Cl      1  UNL1       -0.0823
     19 C          -2.8743    3.5597   22.2249 C.ar    1  UNL1        0.0126
     20 C          -1.8626    3.7934   21.1423 C.ar    1  UNL1        0.0151
     21 C          -2.3021    3.8774   19.7107 C.ar    1  UNL1        0.0442
     22 C           4.3089   -2.6840   19.7177 C.3     1  UNL1        0.0910
     23 N           5.4177   -3.0638   18.7815 N.3     1  UNL1       -0.1834
     24 H           5.5791   -4.0631   18.9063 H       1  UNL1        0.1484
     25 S           6.7545   -2.3923   18.8907 S.O2    1  UNL1        0.0390
     26 O           6.7910   -2.2225   17.4008 O.2     1  UNL1       -0.1576
     27 O           6.7182   -2.5620   20.3806 O.2     1  UNL1       -0.1576
     28 C           8.2070   -0.2407   18.7848 C.3     1  UNL1        0.0270
     29 C           8.0914   -1.7208   18.9999 C.3     1  UNL1        0.1457
     30 C           9.3125   -2.5291   19.3242 C.3     1  UNL1        0.0270
@<TRIPOS>BOND
     1    28    29    1
     2    29    30    1
     3    29    25    1
     4    25    26    2
     5    25    27    2
     6    25    23    1
     7    23    22    1
     8     1    22    1
     9     1     2    1
    10     2     3    1
    11     3     4    1
    12     4     7    1
    13     7     8   am
    14     8     9    2
    15     8    11    1
    16    11    12    1
    17    12    13    1
    18    13    14    1
    19    14    15    1
    20    15    16   ar
    21    16    17   ar
    22    17    18    1
    23    17    19   ar
    24    19    20   ar
    25    20    21   ar
    26     4     5    1
    27     5     6    1
    28     6     1    1
    29    21    12    1
    30    21    15   ar
    31    23    24    1
    32     7    10    1
@<TRIPOS>MOLECULE
*****
 30 32 0 0 0
SMALL
GASTEIGER

@<TRIPOS>ATOM
      1 C           7.0977   -4.7439   25.0871 C.3     1  UNL1        0.0175
      2 C           7.9119   -5.3537   23.9848 C.3     1  UNL1        0.0031
      3 C           7.7922   -4.8281   22.5850 C.3     1  UNL1        0.0196
      4 C           6.8581   -3.6927   22.2875 C.3     1  UNL1        0.0716
      5 C           6.0438   -3.0829   23.3897 C.3     1  UNL1        0.0196
      6 C           6.1636   -3.6085   24.7895 C.3     1  UNL1        0.0031
      7 N           6.7384   -3.1673   20.8877 N.am    1  UNL1       -0.3046
      8 C           5.6177   -3.6318   20.0055 C.2     1  UNL1        0.2427
      9 O           4.6167   -4.6217   20.5232 O.2     1  UNL1       -0.2732
     10 H           7.3954   -2.5175   20.5479 H       1  UNL1        0.1494
     11 C           5.4979   -3.1063   18.6056 C.3     1  UNL1        0.1770
     12 N           4.9924   -1.7142   18.3677 N.pl3   1  UNL1       -0.2997
     13 C           5.6707   -0.6582   17.5463 C.3     1  UNL1        0.0959
     14 C           4.8173    0.5749   17.5805 C.3     1  UNL1        0.0490
     15 C           3.6115    0.2810   18.4230 C.ar    1  UNL1       -0.0063
     16 C           2.4291    1.1188   18.8100 C.ar    1  UNL1        0.0084
     17 C           1.3549    0.5419   19.6835 C.ar    1  UNL1        0.0574
     18 CL          0.1723    1.3797   20.0706 Cl      1  UNL1       -0.0823
     19 C           1.4631   -0.8729   20.1701 C.ar    1  UNL1        0.0126
     20 C           2.6455   -1.7107   19.7831 C.ar    1  UNL1        0.0151
     21 C           3.7198   -1.1338   18.9096 C.ar    1  UNL1        0.0442
     22 C           7.2174   -5.2694   26.4869 C.3     1  UNL1        0.0910
     23 N           6.1778   -4.9204   27.5104 N.3     1  UNL1       -0.1834
     24 H           5.6936   -4.0908   27.1673 H       1  UNL1        0.1484
     25 S           6.5852   -4.6302   28.9245 S.O2    1  UNL1        0.0390
     26 O           6.1463   -3.2055   28.7586 O.2     1  UNL1       -0.1576
     27 O           7.0242   -6.0548   29.0905 O.2     1  UNL1       -0.1576
     28 C           7.2269   -2.9244   30.7761 C.3     1  UNL1        0.0270
     29 C           6.9926   -4.3400   30.3386 C.3     1  UNL1        0.1457
     30 C           7.1658   -5.4651   31.3153 C.3     1  UNL1        0.0270
@<TRIPOS>BOND
     1    28    29    1
     2    29    30    1
     3    29    25    1
     4    25    26    2
     5    25    27    2
     6    25    23    1
     7    23    22    1
     8     1    22    1
     9     1     2    1
    10     2     3    1
    11     3     4    1
    12     4     7    1
    13     7     8   am
    14     8     9    2
    15     8    11    1
    16    11    12    1
    17    12    13    1
    18    13    14    1
    19    14    15    1
    20    15    16   ar
    21    16    17   ar
    22    17    18    1
    23    17    19   ar
    24    19    20   ar
    25    20    21   ar
    26     4     5    1
    27     5     6    1
    28     6     1    1
    29    21    12    1
    30    21    15   ar
    31    23    24    1
    32     7    10    1
