@<TRIPOS>MOLECULE
*****
 35 37 0 0 0
SMALL
GASTEIGER

@<TRIPOS>ATOM
      1 C           6.8297   -4.5529   25.7999 C.ar    1  UNL1        0.0505
      2 C           7.6836   -5.7825   25.7061 C.ar    1  UNL1        0.0170
      3 C           8.2522   -6.2016   24.3829 C.ar    1  UNL1        0.0307
      4 C           7.9667   -5.3912   23.1534 C.ar    1  UNL1        0.1402
      5 F           8.5353   -5.8103   21.8301 F       1  UNL1       -0.2044
      6 C           7.1128   -4.1616   23.2472 C.ar    1  UNL1        0.0528
      7 C           6.5443   -3.7424   24.5704 C.ar    1  UNL1        0.0167
      8 C           6.8274   -3.3511   22.0176 C.3     1  UNL1        0.2223
      9 C           8.0426   -2.6337   22.5262 C.3     1  UNL1        0.0607
     10 C           5.7113   -4.3499   21.9361 C.3     1  UNL1        0.1959
     11 O           4.7319   -4.2892   20.8016 O.3     1  UNL1       -0.3357
     12 C           4.8685   -3.2295   19.7487 C.3     1  UNL1        0.2740
     13 C           4.5832   -2.4191   18.5192 C.3     1  UNL1        0.0512
     14 C           5.9846   -2.2307   19.8303 C.2     1  UNL1        0.3217
     15 N           6.1213   -1.1711   18.7774 N.pl3   1  UNL1       -0.2480
     16 N           6.9641   -2.2915   20.9648 N.2     1  UNL1       -0.0692
     17 H           5.4785   -1.1312   18.0328 H       1  UNL1        0.2882
     18 H           6.8539   -0.5156   18.8310 H       1  UNL1        0.2882
     19 C           3.6533   -3.9469   19.2401 C.3     1  UNL1        0.4305
     20 F           2.4381   -4.6643   18.7315 F       1  UNL1       -0.1670
     21 F           4.5207   -5.0676   18.7483 F       1  UNL1       -0.1670
     22 F           2.7860   -2.8263   19.7320 F       1  UNL1       -0.1670
     23 C           7.1286   -3.4269   28.1222 C.2     1  UNL1        0.2669
     24 O           8.5646   -3.1392   27.7979 O.2     1  UNL1       -0.2682
     25 N           6.2612   -4.1337   27.1233 N.am    1  UNL1       -0.2792
     26 H           5.3187   -4.3225   27.3361 H       1  UNL1        0.1552
     27 C           7.4675   -5.1891   30.5263 C.3     1  UNL1        0.0328
     28 C           6.7295   -3.8888   30.6476 C.ar    1  UNL1        0.0010
     29 C           6.1610   -3.4696   31.9708 C.ar    1  UNL1        0.0092
     30 C           5.4230   -2.1694   32.0920 C.ar    1  UNL1        0.0873
     31 C           5.2536   -1.2883   30.8900 C.ar    1  UNL1        0.1092
     32 N           5.8221   -1.7075   29.5668 N.ar    1  UNL1       -0.2389
     33 C           6.5601   -3.0077   29.4455 C.ar    1  UNL1        0.1308
     34 C           4.8545   -1.7502   33.4154 C.1     1  UNL1        0.1020
     35 N           4.2860   -1.3311   34.7387 N.1     1  UNL1       -0.1908
@<TRIPOS>BOND
     1    27    28    1
     2    28    29   ar
     3    29    30   ar
     4    30    34    1
     5    34    35    3
     6    30    31   ar
     7    31    32   ar
     8    32    33   ar
     9    33    23    1
    10    23    24    2
    11    23    25   am
    12    25     1    1
    13     1     2   ar
    14     2     3   ar
    15     3     4   ar
    16     4     5    1
    17     4     6   ar
    18     6     8    1
    19     8     9    1
    20     8    10    1
    21    10    11    1
    22    11    12    1
    23    12    13    1
    24    12    19    1
    25    19    20    1
    26    19    21    1
    27    19    22    1
    28    12    14    1
    29    14    15    1
    30    14    16    2
    31     6     7   ar
    32    33    28   ar
    33     7     1   ar
    34    16     8    1
    35    25    26    1
    36    15    17    1
    37    15    18    1
@<TRIPOS>MOLECULE
*****
 35 37 0 0 0
SMALL
GASTEIGER

@<TRIPOS>ATOM
      1 C          -0.2276    1.9856   20.3013 C.ar    1  UNL1        0.0505
      2 C           0.3762    2.8080   19.2018 C.ar    1  UNL1        0.0170
      3 C           1.7868    2.5510   18.7611 C.ar    1  UNL1        0.0307
      4 C           2.5934    1.4715   19.4199 C.ar    1  UNL1        0.1402
      5 F           4.0041    1.2145   18.9791 F       1  UNL1       -0.2044
      6 C           1.9896    0.6491   20.5194 C.ar    1  UNL1        0.0528
      7 C           0.5791    0.9061   20.9601 C.ar    1  UNL1        0.0167
      8 C           2.7963   -0.4304   21.1782 C.3     1  UNL1        0.2223
      9 C           2.6072    0.4993   22.3401 C.3     1  UNL1        0.0607
     10 C           2.7053   -0.9851   19.7876 C.3     1  UNL1        0.1959
     11 O           3.3553   -2.2965   19.4592 O.3     1  UNL1       -0.3357
     12 C           4.0964   -3.0531   20.5216 C.3     1  UNL1        0.2740
     13 C           4.9031   -4.1325   21.1804 C.3     1  UNL1        0.0512
     14 C           4.1874   -2.4983   21.9122 C.2     1  UNL1        0.3217
     15 N           4.9284   -3.2548   22.9745 N.pl3   1  UNL1       -0.2480
     16 N           3.5373   -1.1868   22.2406 N.2     1  UNL1       -0.0692
     17 H           5.3550   -4.1155   22.7591 H       1  UNL1        0.2882
     18 H           4.9881   -2.8906   23.8873 H       1  UNL1        0.2882
     19 C           4.2856   -3.9828   19.3597 C.3     1  UNL1        0.4305
     20 F           4.4747   -4.9125   18.1978 F       1  UNL1       -0.1670
     21 F           2.8053   -4.2205   19.3089 F       1  UNL1       -0.1670
     22 F           5.7657   -3.7450   19.4105 F       1  UNL1       -0.1670
     23 C          -1.9419    3.3982   21.6489 C.2     1  UNL1        0.2669
     24 O          -0.8349    4.2968   22.1150 O.2     1  UNL1       -0.2682
     25 N          -1.6382    2.2426   20.7421 N.am    1  UNL1       -0.2792
     26 H          -2.3647    1.6529   20.4361 H       1  UNL1        0.1552
     27 C          -2.6353    3.3434   24.5671 C.3     1  UNL1        0.0328
     28 C          -3.6991    3.6279   23.5487 C.ar    1  UNL1        0.0010
     29 C          -5.1097    3.8849   23.9893 C.ar    1  UNL1        0.0092
     30 C          -6.1736    4.1694   22.9709 C.ar    1  UNL1        0.0873
     31 C          -5.8269    4.1968   21.5118 C.ar    1  UNL1        0.1092
     32 N          -4.4164    3.9398   21.0711 N.ar    1  UNL1       -0.2389
     33 C          -3.3525    3.6553   22.0896 C.ar    1  UNL1        0.1308
     34 C          -7.5842    4.4265   23.4116 C.1     1  UNL1        0.1020
     35 N          -8.9947    4.6835   23.8523 N.1     1  UNL1       -0.1908
@<TRIPOS>BOND
     1    27    28    1
     2    28    29   ar
     3    29    30   ar
     4    30    34    1
     5    34    35    3
     6    30    31   ar
     7    31    32   ar
     8    32    33   ar
     9    33    23    1
    10    23    24    2
    11    23    25   am
    12    25     1    1
    13     1     2   ar
    14     2     3   ar
    15     3     4   ar
    16     4     5    1
    17     4     6   ar
    18     6     8    1
    19     8     9    1
    20     8    10    1
    21    10    11    1
    22    11    12    1
    23    12    13    1
    24    12    19    1
    25    19    20    1
    26    19    21    1
    27    19    22    1
    28    12    14    1
    29    14    15    1
    30    14    16    2
    31     6     7   ar
    32    33    28   ar
    33     7     1   ar
    34    16     8    1
    35    25    26    1
    36    15    17    1
    37    15    18    1
@<TRIPOS>MOLECULE
*****
 35 37 0 0 0
SMALL
GASTEIGER

@<TRIPOS>ATOM
      1 C           1.5004    2.6267   18.5717 C.ar    1  UNL1        0.0505
      2 C           2.5712    3.6553   18.3589 C.ar    1  UNL1        0.0170
      3 C           4.0004    3.2285   18.2005 C.ar    1  UNL1        0.0307
      4 C           4.3588    1.7730   18.2550 C.ar    1  UNL1        0.1402
      5 F           5.7881    1.3461   18.0966 F       1  UNL1       -0.2044
      6 C           3.2880    0.7443   18.4678 C.ar    1  UNL1        0.0528
      7 C           1.8588    1.1712   18.6262 C.ar    1  UNL1        0.0167
      8 C           3.6465   -0.7112   18.5222 C.3     1  UNL1        0.2223
      9 C           3.5215   -0.5290   17.0386 C.3     1  UNL1        0.0607
     10 C           3.6470   -0.3879   19.9869 C.3     1  UNL1        0.1959
     11 O           3.9625   -1.4568   20.9908 O.3     1  UNL1       -0.3357
     12 C           4.2776   -2.8491   20.5299 C.3     1  UNL1        0.2740
     13 C           4.6361   -4.3046   20.5843 C.3     1  UNL1        0.0512
     14 C           4.2771   -3.1724   19.0653 C.2     1  UNL1        0.3217
     15 N           4.5922   -4.5646   18.6043 N.pl3   1  UNL1       -0.2480
     16 N           3.9615   -2.1034   18.0613 N.2     1  UNL1       -0.0692
     17 H           4.7993   -5.2662   19.2632 H       1  UNL1        0.2882
     18 H           4.5918   -4.7768   17.6429 H       1  UNL1        0.2882
     19 C           4.4026   -3.0313   22.0136 C.3     1  UNL1        0.4305
     20 F           4.5275   -3.2135   23.4973 F       1  UNL1       -0.1670
     21 F           5.5452   -3.9796   21.8009 F       1  UNL1       -0.1670
     22 F           3.2600   -2.0831   22.2263 F       1  UNL1       -0.1670
     23 C          -0.4563    3.4201   20.0856 C.2     1  UNL1        0.2669
     24 O           0.4454    3.3598   21.2828 O.2     1  UNL1       -0.2682
     25 N           0.0711    3.0536   18.7301 N.am    1  UNL1       -0.2792
     26 H          -0.5207    3.0932   17.9444 H       1  UNL1        0.1552
     27 C          -1.2361    6.2710   19.5715 C.3     1  UNL1        0.0328
     28 C          -2.2755    5.2725   19.9870 C.ar    1  UNL1        0.0010
     29 C          -3.7047    5.6993   20.1453 C.ar    1  UNL1        0.0092
     30 C          -4.7440    4.7007   20.5608 C.ar    1  UNL1        0.0873
     31 C          -4.3542    3.2753   20.8178 C.ar    1  UNL1        0.1092
     32 N          -2.9250    2.8485   20.6595 N.ar    1  UNL1       -0.2389
     33 C          -1.8856    3.8470   20.2440 C.ar    1  UNL1        0.1308
     34 C          -6.1733    5.1276   20.7192 C.1     1  UNL1        0.1020
     35 N          -7.6025    5.5545   20.8776 N.1     1  UNL1       -0.1908
@<TRIPOS>BOND
     1    27    28    1
     2    28    29   ar
     3    29    30   ar
     4    30    34    1
     5    34    35    3
     6    30    31   ar
     7    31    32   ar
     8    32    33   ar
     9    33    23    1
    10    23    24    2
    11    23    25   am
    12    25     1    1
    13     1     2   ar
    14     2     3   ar
    15     3     4   ar
    16     4     5    1
    17     4     6   ar
    18     6     8    1
    19     8     9    1
    20     8    10    1
    21    10    11    1
    22    11    12    1
    23    12    13    1
    24    12    19    1
    25    19    20    1
    26    19    21    1
    27    19    22    1
    28    12    14    1
    29    14    15    1
    30    14    16    2
    31     6     7   ar
    32    33    28   ar
    33     7     1   ar
    34    16     8    1
    35    25    26    1
    36    15    17    1
    37    15    18    1
@<TRIPOS>MOLECULE
*****
 35 37 0 0 0
SMALL
GASTEIGER

@<TRIPOS>ATOM
      1 C           3.1884    0.6111   31.6334 C.ar    1  UNL1        0.0505
      2 C           3.5702   -0.8340   31.7594 C.ar    1  UNL1        0.0170
      3 C           4.2124   -1.3330   33.0197 C.ar    1  UNL1        0.0307
      4 C           4.4729   -0.3868   34.1541 C.ar    1  UNL1        0.1402
      5 F           5.1152   -0.8857   35.4145 F       1  UNL1       -0.2044
      6 C           4.0911    1.0583   34.0281 C.ar    1  UNL1        0.0528
      7 C           3.4488    1.5573   32.7678 C.ar    1  UNL1        0.0167
      8 C           4.3516    2.0045   35.1626 C.3     1  UNL1        0.2223
      9 C           5.6594    2.1043   34.4346 C.3     1  UNL1        0.0607
     10 C           2.9535    1.5762   35.4966 C.3     1  UNL1        0.1959
     11 O           2.2700    2.1286   36.7121 O.3     1  UNL1       -0.3357
     12 C           2.9847    3.1094   37.5937 C.3     1  UNL1        0.2740
     13 C           3.2453    4.0556   38.7281 C.3     1  UNL1        0.0512
     14 C           4.3829    3.5378   37.2597 C.2     1  UNL1        0.3217
     15 N           5.0976    4.5186   38.1413 N.pl3   1  UNL1       -0.2480
     16 N           5.0664    2.9853   36.0441 N.2     1  UNL1       -0.0692
     17 H           4.6491    4.8812   38.9391 H       1  UNL1        0.2882
     18 H           6.0153    4.7997   37.9220 H       1  UNL1        0.2882
     19 C           1.6770    3.0096   38.3217 C.3     1  UNL1        0.4305
     20 F           0.3692    2.9099   39.0497 F       1  UNL1       -0.1670
     21 F           1.0666    3.9845   37.3589 F       1  UNL1       -0.1670
     22 F           2.2874    2.0348   39.2845 F       1  UNL1       -0.1670
     23 C           1.1303    1.6050   30.3978 C.2     1  UNL1        0.2669
     24 O           0.3569    1.6012   31.6830 O.2     1  UNL1       -0.2682
     25 N           2.5460    1.1100   30.3730 N.am    1  UNL1       -0.2792
     26 H           3.0537    1.1125   29.5295 H       1  UNL1        0.1552
     27 C          -0.6127   -0.2218   28.7777 C.3     1  UNL1        0.0328
     28 C          -0.3835    1.1906   28.3274 C.ar    1  UNL1        0.0010
     29 C          -1.0257    1.6895   27.0670 C.ar    1  UNL1        0.0092
     30 C          -0.7965    3.1018   26.6167 C.ar    1  UNL1        0.0873
     31 C           0.0750    4.0152   27.4267 C.ar    1  UNL1        0.1092
     32 N           0.7172    3.5163   28.6871 N.ar    1  UNL1       -0.2389
     33 C           0.4880    2.1040   29.1374 C.ar    1  UNL1        0.1308
     34 C          -1.4388    3.6007   25.3563 C.1     1  UNL1        0.1020
     35 N          -2.0811    4.0996   24.0959 N.1     1  UNL1       -0.1908
@<TRIPOS>BOND
     1    27    28    1
     2    28    29   ar
     3    29    30   ar
     4    30    34    1
     5    34    35    3
     6    30    31   ar
     7    31    32   ar
     8    32    33   ar
     9    33    23    1
    10    23    24    2
    11    23    25   am
    12    25     1    1
    13     1     2   ar
    14     2     3   ar
    15     3     4   ar
    16     4     5    1
    17     4     6   ar
    18     6     8    1
    19     8     9    1
    20     8    10    1
    21    10    11    1
    22    11    12    1
    23    12    13    1
    24    12    19    1
    25    19    20    1
    26    19    21    1
    27    19    22    1
    28    12    14    1
    29    14    15    1
    30    14    16    2
    31     6     7   ar
    32    33    28   ar
    33     7     1   ar
    34    16     8    1
    35    25    26    1
    36    15    17    1
    37    15    18    1
@<TRIPOS>MOLECULE
*****
 35 37 0 0 0
SMALL
GASTEIGER

@<TRIPOS>ATOM
      1 C           2.2981    2.6976   20.6522 C.ar    1  UNL1        0.0505
      2 C           2.2792    3.3706   19.3118 C.ar    1  UNL1        0.0170
      3 C           3.2187    2.9196   18.2329 C.ar    1  UNL1        0.0307
      4 C           4.1769    1.7956   18.4944 C.ar    1  UNL1        0.1402
      5 F           5.1164    1.3445   17.4155 F       1  UNL1       -0.2044
      6 C           4.1957    1.1226   19.8348 C.ar    1  UNL1        0.0528
      7 C           3.2563    1.5736   20.9137 C.ar    1  UNL1        0.0167
      8 C           5.1540   -0.0014   20.0964 C.3     1  UNL1        0.2223
      9 C           6.0311    1.1703   20.4246 C.3     1  UNL1        0.0607
     10 C           3.9441   -0.7828   19.6773 C.3     1  UNL1        0.1959
     11 O           3.9971   -2.2812   19.6338 O.3     1  UNL1       -0.3357
     12 C           5.2600   -2.9983   20.0093 C.3     1  UNL1        0.2740
     13 C           6.2183   -4.1222   20.2708 C.3     1  UNL1        0.0512
     14 C           6.4699   -2.2169   20.4283 C.2     1  UNL1        0.3217
     15 N           7.7328   -2.9338   20.8038 N.pl3   1  UNL1       -0.2480
     16 N           6.4169   -0.7184   20.4718 N.2     1  UNL1       -0.0692
     17 H           7.7676   -3.9173   20.7752 H       1  UNL1        0.2882
     18 H           8.5268   -2.4209   21.0788 H       1  UNL1        0.2882
     19 C           4.3829   -4.1700   19.6811 C.3     1  UNL1        0.4305
     20 F           3.5058   -5.3418   19.3529 F       1  UNL1       -0.1670
     21 F           4.0032   -4.2909   21.1272 F       1  UNL1       -0.1670
     22 F           4.7626   -4.0492   18.2350 F       1  UNL1       -0.1670
     23 C           0.0964    2.3824   21.9952 C.2     1  UNL1        0.2669
     24 O          -0.2263    1.1650   21.1804 O.2     1  UNL1       -0.2682
     25 N           1.3586    3.1486   21.7311 N.am    1  UNL1       -0.2792
     26 H           1.5704    3.9476   22.2659 H       1  UNL1        0.1552
     27 C           0.5344    1.5030   24.8298 C.3     1  UNL1        0.0328
     28 C          -0.6240    2.3937   24.4914 C.ar    1  UNL1        0.0010
     29 C          -1.5635    2.8448   25.5702 C.ar    1  UNL1        0.0092
     30 C          -2.7219    3.7355   25.2318 C.ar    1  UNL1        0.0873
     31 C          -2.9410    4.1752   23.8145 C.ar    1  UNL1        0.1092
     32 N          -2.0015    3.7242   22.7357 N.ar    1  UNL1       -0.2389
     33 C          -0.8430    2.8334   23.0741 C.ar    1  UNL1        0.1308
     34 C          -3.6614    4.1866   26.3107 C.1     1  UNL1        0.1020
     35 N          -4.6009    4.6377   27.3896 N.1     1  UNL1       -0.1908
@<TRIPOS>BOND
     1    27    28    1
     2    28    29   ar
     3    29    30   ar
     4    30    34    1
     5    34    35    3
     6    30    31   ar
     7    31    32   ar
     8    32    33   ar
     9    33    23    1
    10    23    24    2
    11    23    25   am
    12    25     1    1
    13     1     2   ar
    14     2     3   ar
    15     3     4   ar
    16     4     5    1
    17     4     6   ar
    18     6     8    1
    19     8     9    1
    20     8    10    1
    21    10    11    1
    22    11    12    1
    23    12    13    1
    24    12    19    1
    25    19    20    1
    26    19    21    1
    27    19    22    1
    28    12    14    1
    29    14    15    1
    30    14    16    2
    31     6     7   ar
    32    33    28   ar
    33     7     1   ar
    34    16     8    1
    35    25    26    1
    36    15    17    1
    37    15    18    1
@<TRIPOS>MOLECULE
*****
 35 37 0 0 0
SMALL
GASTEIGER

@<TRIPOS>ATOM
      1 C           2.1925    0.2749   24.3678 C.ar    1  UNL1        0.0505
      2 C           1.0136    1.1320   24.0134 C.ar    1  UNL1        0.0170
      3 C           0.8141    1.5846   22.5973 C.ar    1  UNL1        0.0307
      4 C           1.7935    1.1801   21.5357 C.ar    1  UNL1        0.1402
      5 F           1.5941    1.6327   20.1195 F       1  UNL1       -0.2044
      6 C           2.9724    0.3231   21.8901 C.ar    1  UNL1        0.0528
      7 C           3.1719   -0.1295   23.3062 C.ar    1  UNL1        0.0167
      8 C           3.9519   -0.0814   20.8284 C.3     1  UNL1        0.2223
      9 C           4.2797    1.3779   20.9430 C.3     1  UNL1        0.0607
     10 C           3.2839   -1.4001   21.0825 C.3     1  UNL1        0.1959
     11 O           3.7091   -2.6165   20.3147 O.3     1  UNL1       -0.3357
     12 C           4.8025   -2.5141   19.2928 C.3     1  UNL1        0.2740
     13 C           5.7819   -2.9185   18.2312 C.3     1  UNL1        0.0512
     14 C           5.4705   -1.1954   19.0387 C.2     1  UNL1        0.3217
     15 N           6.5637   -1.0929   18.0169 N.pl3   1  UNL1       -0.2480
     16 N           5.0452    0.0211   19.8065 N.2     1  UNL1       -0.0692
     17 H           6.8429   -1.8913   17.5129 H       1  UNL1        0.2882
     18 H           7.0021   -0.2273   17.8501 H       1  UNL1        0.2882
     19 C           4.4746   -3.9734   19.1782 C.3     1  UNL1        0.4305
     20 F           4.1467   -5.4327   19.0636 F       1  UNL1       -0.1670
     21 F           3.0926   -3.6261   18.7095 F       1  UNL1       -0.1670
     22 F           5.8565   -4.3206   19.6468 F       1  UNL1       -0.1670
     23 C           3.0925    0.7149   26.7650 C.2     1  UNL1        0.2669
     24 O           3.5937    2.0601   26.3299 O.2     1  UNL1       -0.2682
     25 N           2.3920   -0.1777   25.7840 N.am    1  UNL1       -0.2792
     26 H           2.0630   -1.0606   26.0695 H       1  UNL1        0.1552
     27 C           0.9537    1.2032   28.8112 C.3     1  UNL1        0.0328
     28 C           2.2226    0.5065   29.2042 C.ar    1  UNL1        0.0010
     29 C           2.4221    0.0539   30.6203 C.ar    1  UNL1        0.0092
     30 C           3.6910   -0.6429   31.0133 C.ar    1  UNL1        0.0873
     31 C           4.7604   -0.8870   29.9902 C.ar    1  UNL1        0.1092
     32 N           4.5609   -0.4344   28.5742 N.ar    1  UNL1       -0.2389
     33 C           3.2920    0.2623   28.1812 C.ar    1  UNL1        0.1308
     34 C           3.8904   -1.0955   32.4295 C.1     1  UNL1        0.1020
     35 N           4.0899   -1.5481   33.8455 N.1     1  UNL1       -0.1908
@<TRIPOS>BOND
     1    27    28    1
     2    28    29   ar
     3    29    30   ar
     4    30    34    1
     5    34    35    3
     6    30    31   ar
     7    31    32   ar
     8    32    33   ar
     9    33    23    1
    10    23    24    2
    11    23    25   am
    12    25     1    1
    13     1     2   ar
    14     2     3   ar
    15     3     4   ar
    16     4     5    1
    17     4     6   ar
    18     6     8    1
    19     8     9    1
    20     8    10    1
    21    10    11    1
    22    11    12    1
    23    12    13    1
    24    12    19    1
    25    19    20    1
    26    19    21    1
    27    19    22    1
    28    12    14    1
    29    14    15    1
    30    14    16    2
    31     6     7   ar
    32    33    28   ar
    33     7     1   ar
    34    16     8    1
    35    25    26    1
    36    15    17    1
    37    15    18    1
@<TRIPOS>MOLECULE
*****
 35 37 0 0 0
SMALL
GASTEIGER

@<TRIPOS>ATOM
      1 C           6.2649   -3.7250   22.4388 C.ar    1  UNL1        0.0505
      2 C           7.4490   -4.0909   21.5938 C.ar    1  UNL1        0.0170
      3 C           7.5322   -3.6159   20.1734 C.ar    1  UNL1        0.0307
      4 C           6.4313   -2.7751   19.5981 C.ar    1  UNL1        0.1402
      5 F           6.5145   -2.3001   18.1777 F       1  UNL1       -0.2044
      6 C           5.2472   -2.4092   20.4432 C.ar    1  UNL1        0.0528
      7 C           5.1640   -2.8842   21.8635 C.ar    1  UNL1        0.0167
      8 C           4.1463   -1.5683   19.8678 C.3     1  UNL1        0.2223
      9 C           3.5755   -2.9366   19.6395 C.3     1  UNL1        0.0607
     10 C           5.0995   -0.4922   20.2958 C.3     1  UNL1        0.1959
     11 O           4.7536    0.9497   20.0692 O.3     1  UNL1       -0.3357
     12 C           3.4544    1.3154   19.4146 C.3     1  UNL1        0.2740
     13 C           2.3535    2.1562   18.8392 C.3     1  UNL1        0.0512
     14 C           2.5012    0.2392   18.9865 C.2     1  UNL1        0.3217
     15 N           1.2021    0.6048   18.3319 N.pl3   1  UNL1       -0.2480
     16 N           2.8472   -1.2028   19.2131 N.2     1  UNL1       -0.0692
     17 H           0.9750    1.5511   18.1832 H       1  UNL1        0.2882
     18 H           0.5765   -0.1016   18.0510 H       1  UNL1        0.2882
     19 C           4.0253    2.6836   19.6428 C.3     1  UNL1        0.4305
     20 F           4.5961    4.0519   19.8710 F       1  UNL1       -0.1670
     21 F           3.2734    2.7814   20.9371 F       1  UNL1       -0.1670
     22 F           4.7770    2.5858   18.3485 F       1  UNL1       -0.1670
     23 C           7.2434   -3.8092   24.8441 C.2     1  UNL1        0.2669
     24 O           8.3883   -2.9434   24.4087 O.2     1  UNL1       -0.2682
     25 N           6.1817   -4.2000   23.8592 N.am    1  UNL1       -0.2792
     26 H           5.4303   -4.7683   24.1451 H       1  UNL1        0.1552
     27 C           8.1860   -6.5654   25.5618 C.3     1  UNL1        0.0328
     28 C           7.6315   -5.6623   26.6234 C.ar    1  UNL1        0.0010
     29 C           7.5483   -6.1373   28.0437 C.ar    1  UNL1        0.0092
     30 C           6.9938   -5.2341   29.1053 C.ar    1  UNL1        0.0873
     31 C           6.5225   -3.8561   28.7465 C.ar    1  UNL1        0.1092
     32 N           6.6057   -3.3811   27.3261 N.ar    1  UNL1       -0.2389
     33 C           7.1602   -4.2843   26.2646 C.ar    1  UNL1        0.1308
     34 C           6.9106   -5.7092   30.5257 C.1     1  UNL1        0.1020
     35 N           6.8274   -6.1841   31.9460 N.1     1  UNL1       -0.1908
@<TRIPOS>BOND
     1    27    28    1
     2    28    29   ar
     3    29    30   ar
     4    30    34    1
     5    34    35    3
     6    30    31   ar
     7    31    32   ar
     8    32    33   ar
     9    33    23    1
    10    23    24    2
    11    23    25   am
    12    25     1    1
    13     1     2   ar
    14     2     3   ar
    15     3     4   ar
    16     4     5    1
    17     4     6   ar
    18     6     8    1
    19     8     9    1
    20     8    10    1
    21    10    11    1
    22    11    12    1
    23    12    13    1
    24    12    19    1
    25    19    20    1
    26    19    21    1
    27    19    22    1
    28    12    14    1
    29    14    15    1
    30    14    16    2
    31     6     7   ar
    32    33    28   ar
    33     7     1   ar
    34    16     8    1
    35    25    26    1
    36    15    17    1
    37    15    18    1
@<TRIPOS>MOLECULE
*****
 35 37 0 0 0
SMALL
GASTEIGER

@<TRIPOS>ATOM
      1 C           1.4727    2.0761   22.4153 C.ar    1  UNL1        0.0505
      2 C           0.1889    2.3775   21.7005 C.ar    1  UNL1        0.0170
      3 C          -0.0359    1.8581   20.3113 C.ar    1  UNL1        0.0307
      4 C           1.0232    1.0373   19.6371 C.ar    1  UNL1        0.1402
      5 F           0.7985    0.5179   18.2479 F       1  UNL1       -0.2044
      6 C           2.3070    0.7359   20.3519 C.ar    1  UNL1        0.0528
      7 C           2.5318    1.2553   21.7410 C.ar    1  UNL1        0.0167
      8 C           3.3661   -0.0849   19.6775 C.3     1  UNL1        0.2223
      9 C           3.8012    1.2905   19.2662 C.3     1  UNL1        0.0607
     10 C           2.5632   -1.1751   20.3230 C.3     1  UNL1        0.1959
     11 O           2.9705   -2.6085   20.1513 O.3     1  UNL1       -0.3357
     12 C           4.1807   -2.9516   19.3341 C.3     1  UNL1        0.2740
     13 C           5.2397   -3.7724   18.6598 C.3     1  UNL1        0.0512
     14 C           4.9835   -1.8614   18.6886 C.2     1  UNL1        0.3217
     15 N           6.1937   -2.2044   17.8715 N.pl3   1  UNL1       -0.2480
     16 N           4.5762   -0.4279   18.8604 N.2     1  UNL1       -0.0692
     17 H           6.4610   -3.1452   17.7587 H       1  UNL1        0.2882
     18 H           6.7206   -1.4888   17.4478 H       1  UNL1        0.2882
     19 C           3.7456   -4.3270   19.7454 C.3     1  UNL1        0.4305
     20 F           3.3105   -5.7024   20.1567 F       1  UNL1       -0.1670
     21 F           2.6998   -4.3177   18.6701 F       1  UNL1       -0.1670
     22 F           4.7914   -4.3362   20.8207 F       1  UNL1       -0.1670
     23 C           1.0339    1.9267   24.9717 C.2     1  UNL1        0.2669
     24 O           0.1457    0.7386   24.7498 O.2     1  UNL1       -0.2682
     25 N           1.6974    2.5955   23.8045 N.am    1  UNL1       -0.2792
     26 H           2.2804    3.3753   23.9501 H       1  UNL1        0.1552
     27 C          -1.1445    3.4334   26.3806 C.3     1  UNL1        0.0328
     28 C           0.1695    3.1995   27.0653 C.ar    1  UNL1        0.0010
     29 C           0.3942    3.7188   28.4544 C.ar    1  UNL1        0.0092
     30 C           1.7082    3.4849   29.1391 C.ar    1  UNL1        0.0873
     31 C           2.7973    2.7316   28.4348 C.ar    1  UNL1        0.1092
     32 N           2.5726    2.2122   27.0457 N.ar    1  UNL1       -0.2389
     33 C           1.2586    2.4462   26.3609 C.ar    1  UNL1        0.1308
     34 C           1.9329    4.0043   30.5283 C.1     1  UNL1        0.1020
     35 N           2.1576    4.5236   31.9175 N.1     1  UNL1       -0.1908
@<TRIPOS>BOND
     1    27    28    1
     2    28    29   ar
     3    29    30   ar
     4    30    34    1
     5    34    35    3
     6    30    31   ar
     7    31    32   ar
     8    32    33   ar
     9    33    23    1
    10    23    24    2
    11    23    25   am
    12    25     1    1
    13     1     2   ar
    14     2     3   ar
    15     3     4   ar
    16     4     5    1
    17     4     6   ar
    18     6     8    1
    19     8     9    1
    20     8    10    1
    21    10    11    1
    22    11    12    1
    23    12    13    1
    24    12    19    1
    25    19    20    1
    26    19    21    1
    27    19    22    1
    28    12    14    1
    29    14    15    1
    30    14    16    2
    31     6     7   ar
    32    33    28   ar
    33     7     1   ar
    34    16     8    1
    35    25    26    1
    36    15    17    1
    37    15    18    1
@<TRIPOS>MOLECULE
*****
 35 37 0 0 0
SMALL
GASTEIGER

@<TRIPOS>ATOM
      1 C           2.4798    2.0321   23.1056 C.ar    1  UNL1        0.0505
      2 C           2.2184    3.2503   22.2704 C.ar    1  UNL1        0.0170
      3 C           2.1974    3.1436   20.7744 C.ar    1  UNL1        0.0307
      4 C           2.4377    1.8187   20.1136 C.ar    1  UNL1        0.1402
      5 F           2.4167    1.7119   18.6175 F       1  UNL1       -0.2044
      6 C           2.6991    0.6005   20.9488 C.ar    1  UNL1        0.0528
      7 C           2.7201    0.7072   22.4448 C.ar    1  UNL1        0.0167
      8 C           2.9394   -0.7245   20.2879 C.3     1  UNL1        0.2223
      9 C           1.4490   -0.7799   20.4481 C.3     1  UNL1        0.0607
     10 C           4.3463   -0.2090   20.3572 C.3     1  UNL1        0.1959
     11 O           5.4759   -1.0377   19.8212 O.3     1  UNL1       -0.3357
     12 C           5.1986   -2.3819   19.2160 C.3     1  UNL1        0.2740
     13 C           5.4389   -3.7069   18.5551 C.3     1  UNL1        0.0512
     14 C           3.7917   -2.8974   19.1467 C.2     1  UNL1        0.3217
     15 N           3.5143   -4.2416   18.5415 N.pl3   1  UNL1       -0.2480
     16 N           2.6620   -2.0687   19.6827 N.2     1  UNL1       -0.0692
     17 H           4.2557   -4.7855   18.1898 H       1  UNL1        0.2882
     18 H           2.5909   -4.5798   18.4961 H       1  UNL1        0.2882
     19 C           6.6890   -2.3266   19.0557 C.3     1  UNL1        0.4305
     20 F           8.1795   -2.2712   18.8955 F       1  UNL1       -0.1670
     21 F           6.8581   -2.7107   20.4959 F       1  UNL1       -0.1670
     22 F           6.5199   -1.9424   17.6157 F       1  UNL1       -0.1670
     23 C           1.3617    1.5905   25.4088 C.2     1  UNL1        0.2669
     24 O           0.2014    0.9354   24.7199 O.2     1  UNL1       -0.2682
     25 N           2.5008    2.1389   24.6017 N.am    1  UNL1       -0.2792
     26 H           3.2624    2.5688   25.0539 H       1  UNL1        0.1552
     27 C          -0.2160    3.7415   26.7816 C.3     1  UNL1        0.0328
     28 C           0.5939    2.7727   27.5913 C.ar    1  UNL1        0.0010
     29 C           0.6149    2.8794   29.0873 C.ar    1  UNL1        0.0092
     30 C           1.4248    1.9107   29.8970 C.ar    1  UNL1        0.0873
     31 C           2.2137    0.8352   29.2106 C.ar    1  UNL1        0.1092
     32 N           2.1926    0.7285   27.7146 N.ar    1  UNL1       -0.2389
     33 C           1.3827    1.6973   26.9049 C.ar    1  UNL1        0.1308
     34 C           1.4459    2.0175   31.3931 C.1     1  UNL1        0.1020
     35 N           1.4669    2.1242   32.8891 N.1     1  UNL1       -0.1908
@<TRIPOS>BOND
     1    27    28    1
     2    28    29   ar
     3    29    30   ar
     4    30    34    1
     5    34    35    3
     6    30    31   ar
     7    31    32   ar
     8    32    33   ar
     9    33    23    1
    10    23    24    2
    11    23    25   am
    12    25     1    1
    13     1     2   ar
    14     2     3   ar
    15     3     4   ar
    16     4     5    1
    17     4     6   ar
    18     6     8    1
    19     8     9    1
    20     8    10    1
    21    10    11    1
    22    11    12    1
    23    12    13    1
    24    12    19    1
    25    19    20    1
    26    19    21    1
    27    19    22    1
    28    12    14    1
    29    14    15    1
    30    14    16    2
    31     6     7   ar
    32    33    28   ar
    33     7     1   ar
    34    16     8    1
    35    25    26    1
    36    15    17    1
    37    15    18    1
