@<TRIPOS>MOLECULE
*****
 31 36 0 0 0
SMALL
GASTEIGER

@<TRIPOS>ATOM
      1 N          -0.7588    2.6927   20.7385 N.pl3   1  UNL1       -0.3075
      2 C          -0.5306    2.8378   19.2631 C.3     1  UNL1        0.0908
      3 C           0.7561    2.3662   18.6532 C.3     1  UNL1        0.0237
      4 C           1.8146    1.7495   19.5187 C.3     1  UNL1        0.0285
      5 C           1.5865    1.6044   20.9942 C.3     1  UNL1        0.0237
      6 C           0.2998    2.0761   21.6041 C.3     1  UNL1        0.0908
      7 C           3.1014    1.2779   18.9089 C.3     1  UNL1        0.1117
      8 C           3.5863   -0.1408   18.8605 C.ar    1  UNL1        0.0272
      9 C           2.9907   -1.4227   19.3623 C.ar    1  UNL1        0.1379
     10 F           1.6633   -1.4102   20.0607 F       1  UNL1       -0.2044
     11 C           3.7225   -2.7173   19.1655 C.ar    1  UNL1        0.0294
     12 C           5.0498   -2.7297   18.4670 C.ar    1  UNL1        0.0023
     13 C           5.6455   -1.4478   17.9653 C.ar    1  UNL1        0.0014
     14 C           4.9137   -0.1533   18.1620 C.ar    1  UNL1        0.0173
     15 C           5.2492    1.2576   17.7787 C.ar    1  UNL1        0.0804
     16 C           6.2769    2.1218   17.1102 C.ar    1  UNL1        0.1178
     17 N           5.7919    3.5404   17.1585 N.ar    1  UNL1       -0.2223
     18 C           4.4645    3.5530   17.8570 C.ar    1  UNL1        0.1788
     19 N           4.1291    2.1421   18.2403 N.ar    1  UNL1       -0.3069
     20 C          -4.6190    4.1076   22.5680 C.ar    1  UNL1        0.0031
     21 C          -3.3696    4.0594   23.3966 C.ar    1  UNL1        0.0014
     22 C          -2.0828    3.5878   22.7868 C.ar    1  UNL1        0.0145
     23 C          -2.0455    3.1643   21.3483 C.ar    1  UNL1        0.0478
     24 C          -3.2950    3.2125   20.5196 C.ar    1  UNL1        0.0145
     25 C          -4.5817    3.6841   21.1295 C.ar    1  UNL1        0.0014
     26 C          -8.0940    6.3843   25.8271 C.3     1  UNL1        0.1538
     27 N          -7.5029    5.6257   24.6759 N.ar    1  UNL1       -0.2473
     28 C          -6.0426    5.3754   24.4417 C.ar    1  UNL1        0.0967
     29 C          -5.9057    4.5792   23.1779 C.ar    1  UNL1        0.0396
     30 C          -7.2813    4.3373   22.6309 C.ar    1  UNL1        0.1216
     31 N          -8.2685    4.9841   23.5568 N.ar    1  UNL1       -0.1676
@<TRIPOS>BOND
     1    26    27    1
     2    27    28   ar
     3    28    29   ar
     4    29    20    1
     5    20    21   ar
     6    21    22   ar
     7    22    23   ar
     8    23     1    1
     9     1     2    1
    10     2     3    1
    11     3     4    1
    12     7     4    1
    13     7     8    1
    14     8     9   ar
    15     9    10    1
    16     9    11   ar
    17    11    12   ar
    18    12    13   ar
    19    13    14   ar
    20    14    15    1
    21    15    16   ar
    22    16    17   ar
    23    17    18   ar
    24    18    19   ar
    25     4     5    1
    26     5     6    1
    27    23    24   ar
    28    24    25   ar
    29    29    30   ar
    30    30    31   ar
    31    31    27   ar
    32    25    20   ar
    33     6     1    1
    34    19     7    1
    35    14     8   ar
    36    19    15   ar
@<TRIPOS>MOLECULE
*****
 31 36 0 0 0
SMALL
GASTEIGER

@<TRIPOS>ATOM
      1 N           0.2453    1.7831   23.5339 N.pl3   1  UNL1       -0.3075
      2 C          -0.3207    3.0339   22.9295 C.3     1  UNL1        0.0908
      3 C          -1.1878    3.9391   23.7533 C.3     1  UNL1        0.0237
      4 C          -1.4890    3.5935   25.1815 C.3     1  UNL1        0.0285
      5 C          -0.9231    2.3427   25.7860 C.3     1  UNL1        0.0237
      6 C          -0.0559    1.4375   24.9621 C.3     1  UNL1        0.0908
      7 C          -2.3562    4.4987   26.0054 C.3     1  UNL1        0.1117
      8 C          -3.8263    4.7266   25.8129 C.ar    1  UNL1        0.0272
      9 C          -4.8071    4.1706   24.8236 C.ar    1  UNL1        0.1379
     10 F          -4.3493    3.1936   23.7817 F       1  UNL1       -0.2044
     11 C          -6.2459    4.5917   24.8762 C.ar    1  UNL1        0.0294
     12 C          -6.7037    5.5687   25.9181 C.ar    1  UNL1        0.0023
     13 C          -5.7229    6.1247   26.9075 C.ar    1  UNL1        0.0014
     14 C          -4.2841    5.7036   26.8549 C.ar    1  UNL1        0.0173
     15 C          -3.0971    6.0796   27.6913 C.ar    1  UNL1        0.0804
     16 C          -2.6465    6.9159   28.8522 C.ar    1  UNL1        0.1178
     17 N          -1.1764    6.6880   29.0445 N.ar    1  UNL1       -0.2223
     18 C          -0.7185    5.7109   28.0026 C.ar    1  UNL1        0.1788
     19 N          -1.9056    5.3349   27.1662 N.ar    1  UNL1       -0.3069
     20 C           2.8467   -0.9324   21.0624 C.ar    1  UNL1        0.0031
     21 C           3.2092   -0.6400   22.4882 C.ar    1  UNL1        0.0014
     22 C           2.3421    0.2652   23.3120 C.ar    1  UNL1        0.0145
     23 C           1.1124    0.8780   22.7100 C.ar    1  UNL1        0.0478
     24 C           0.7498    0.5855   21.2841 C.ar    1  UNL1        0.0145
     25 C           1.6170   -0.3196   20.4603 C.ar    1  UNL1        0.0014
     26 C           4.7566   -5.2146   18.6342 C.3     1  UNL1        0.1538
     27 N           4.5917   -3.8059   19.1225 N.ar    1  UNL1       -0.2473
     28 C           3.4848   -3.3006   19.9997 C.ar    1  UNL1        0.0967
     29 C           3.7139   -1.8376   20.2385 C.ar    1  UNL1        0.0396
     30 C           4.9623   -1.4385   19.5089 C.ar    1  UNL1        0.1216
     31 N           5.5048   -2.6551   18.8192 N.ar    1  UNL1       -0.1676
@<TRIPOS>BOND
     1    26    27    1
     2    27    28   ar
     3    28    29   ar
     4    29    20    1
     5    20    21   ar
     6    21    22   ar
     7    22    23   ar
     8    23     1    1
     9     1     2    1
    10     2     3    1
    11     3     4    1
    12     7     4    1
    13     7     8    1
    14     8     9   ar
    15     9    10    1
    16     9    11   ar
    17    11    12   ar
    18    12    13   ar
    19    13    14   ar
    20    14    15    1
    21    15    16   ar
    22    16    17   ar
    23    17    18   ar
    24    18    19   ar
    25     4     5    1
    26     5     6    1
    27    23    24   ar
    28    24    25   ar
    29    29    30   ar
    30    30    31   ar
    31    31    27   ar
    32    25    20   ar
    33     6     1    1
    34    19     7    1
    35    14     8   ar
    36    19    15   ar
@<TRIPOS>MOLECULE
*****
 31 36 0 0 0
SMALL
GASTEIGER

@<TRIPOS>ATOM
      1 N           0.5468    2.0107   28.4029 N.pl3   1  UNL1       -0.3075
      2 C           0.1312    3.4390   28.2104 C.3     1  UNL1        0.0908
      3 C          -0.6108    3.8436   26.9712 C.3     1  UNL1        0.0237
      4 C          -0.9372    2.8200   25.9245 C.3     1  UNL1        0.0285
      5 C          -0.5216    1.3916   26.1170 C.3     1  UNL1        0.0237
      6 C           0.2204    0.9869   27.3563 C.3     1  UNL1        0.0908
      7 C          -1.6792    3.2246   24.6853 C.3     1  UNL1        0.1117
      8 C          -3.1184    3.6421   24.6161 C.ar    1  UNL1        0.0272
      9 C          -4.1767    3.7752   25.6707 C.ar    1  UNL1        0.1379
     10 F          -3.8541    3.4590   27.1010 F       1  UNL1       -0.2044
     11 C          -5.5576    4.2245   25.2950 C.ar    1  UNL1        0.0294
     12 C          -5.8801    4.5407   23.8646 C.ar    1  UNL1        0.0023
     13 C          -4.8219    4.4077   22.8100 C.ar    1  UNL1        0.0014
     14 C          -3.4409    3.9584   23.1857 C.ar    1  UNL1        0.0173
     15 C          -2.2013    3.7363   22.3709 C.ar    1  UNL1        0.0804
     16 C          -1.6345    3.7945   20.9833 C.ar    1  UNL1        0.1178
     17 N          -0.1955    3.3770   21.0525 N.ar    1  UNL1       -0.2223
     18 C           0.1272    3.0608   22.4829 C.ar    1  UNL1        0.1788
     19 N          -1.1125    3.2828   23.2977 N.ar    1  UNL1       -0.3069
     20 C           2.7728    0.7967   32.1206 C.ar    1  UNL1        0.0031
     21 C           1.9501    2.0509   32.1150 C.ar    1  UNL1        0.0014
     22 C           1.2081    2.4556   30.8757 C.ar    1  UNL1        0.0145
     23 C           1.2888    1.6060   29.6422 C.ar    1  UNL1        0.0478
     24 C           2.1116    0.3518   29.6478 C.ar    1  UNL1        0.0145
     25 C           2.8536   -0.0529   30.8870 C.ar    1  UNL1        0.0014
     26 C           4.9257    0.8917   36.9411 C.3     1  UNL1        0.1538
     27 N           4.5044    0.4357   35.5755 N.ar    1  UNL1       -0.2473
     28 C           3.7046    1.2324   34.5878 C.ar    1  UNL1        0.0967
     29 C           3.5149    0.3921   33.3598 C.ar    1  UNL1        0.0396
     30 C           4.1974   -0.9239   33.5886 C.ar    1  UNL1        0.1216
     31 N           4.8089   -0.8969   34.9580 N.ar    1  UNL1       -0.1676
@<TRIPOS>BOND
     1    26    27    1
     2    27    28   ar
     3    28    29   ar
     4    29    20    1
     5    20    21   ar
     6    21    22   ar
     7    22    23   ar
     8    23     1    1
     9     1     2    1
    10     2     3    1
    11     3     4    1
    12     7     4    1
    13     7     8    1
    14     8     9   ar
    15     9    10    1
    16     9    11   ar
    17    11    12   ar
    18    12    13   ar
    19    13    14   ar
    20    14    15    1
    21    15    16   ar
    22    16    17   ar
    23    17    18   ar
    24    18    19   ar
    25     4     5    1
    26     5     6    1
    27    23    24   ar
    28    24    25   ar
    29    29    30   ar
    30    30    31   ar
    31    31    27   ar
    32    25    20   ar
    33     6     1    1
    34    19     7    1
    35    14     8   ar
    36    19    15   ar
@<TRIPOS>MOLECULE
*****
 31 36 0 0 0
SMALL
GASTEIGER

@<TRIPOS>ATOM
      1 N           0.3562    2.3793   21.9578 N.pl3   1  UNL1       -0.3075
      2 C           0.0748    2.0905   20.5131 C.3     1  UNL1        0.0908
      3 C           1.1628    1.5568   19.6291 C.3     1  UNL1        0.0237
      4 C           2.5322    1.3117   20.1900 C.3     1  UNL1        0.0285
      5 C           2.8137    1.6004   21.6348 C.3     1  UNL1        0.0237
      6 C           1.7257    2.1342   22.5187 C.3     1  UNL1        0.0908
      7 C           3.6202    0.7779   19.3060 C.3     1  UNL1        0.1117
      8 C           4.0070   -0.6637   19.1564 C.ar    1  UNL1        0.0272
      9 C           3.4752   -1.9162   19.7875 C.ar    1  UNL1        0.1379
     10 F           2.3440   -1.8394   20.7694 F       1  UNL1       -0.2044
     11 C           4.0747   -3.2457   19.4365 C.ar    1  UNL1        0.0294
     12 C           5.2060   -3.3225   18.4546 C.ar    1  UNL1        0.0023
     13 C           5.7378   -2.0700   17.8235 C.ar    1  UNL1        0.0014
     14 C           5.1383   -0.7405   18.1744 C.ar    1  UNL1        0.0173
     15 C           5.4507    0.6535   17.7172 C.ar    1  UNL1        0.0804
     16 C           6.3430    1.4675   16.8277 C.ar    1  UNL1        0.1178
     17 N           5.9562    2.9091   16.9773 N.ar    1  UNL1       -0.2223
     18 C           4.8249    2.9860   17.9593 C.ar    1  UNL1        0.1788
     19 N           4.5125    1.5919   18.4165 N.ar    1  UNL1       -0.3069
     20 C          -2.9078    3.9806   24.6096 C.ar    1  UNL1        0.0031
     21 C          -1.7366    3.2627   25.2120 C.ar    1  UNL1        0.0014
     22 C          -0.6486    2.7289   24.3280 C.ar    1  UNL1        0.0145
     23 C          -0.7318    2.9130   22.8417 C.ar    1  UNL1        0.0478
     24 C          -1.9030    3.6309   22.2393 C.ar    1  UNL1        0.0145
     25 C          -2.9910    4.1647   23.1232 C.ar    1  UNL1        0.0014
     26 C          -7.3879    6.2420   26.2514 C.3     1  UNL1        0.1538
     27 N          -6.0550    5.5538   26.2481 N.ar    1  UNL1       -0.2473
     28 C          -5.2582    5.1809   25.0332 C.ar    1  UNL1        0.0967
     29 C          -3.9958    4.5144   25.4935 C.ar    1  UNL1        0.0396
     30 C          -4.0123    4.4752   26.9929 C.ar    1  UNL1        0.1216
     31 N          -5.2850    5.1177   27.4593 N.ar    1  UNL1       -0.1676
@<TRIPOS>BOND
     1    26    27    1
     2    27    28   ar
     3    28    29   ar
     4    29    20    1
     5    20    21   ar
     6    21    22   ar
     7    22    23   ar
     8    23     1    1
     9     1     2    1
    10     2     3    1
    11     3     4    1
    12     7     4    1
    13     7     8    1
    14     8     9   ar
    15     9    10    1
    16     9    11   ar
    17    11    12   ar
    18    12    13   ar
    19    13    14   ar
    20    14    15    1
    21    15    16   ar
    22    16    17   ar
    23    17    18   ar
    24    18    19   ar
    25     4     5    1
    26     5     6    1
    27    23    24   ar
    28    24    25   ar
    29    29    30   ar
    30    30    31   ar
    31    31    27   ar
    32    25    20   ar
    33     6     1    1
    34    19     7    1
    35    14     8   ar
    36    19    15   ar
@<TRIPOS>MOLECULE
*****
 31 36 0 0 0
SMALL
GASTEIGER

@<TRIPOS>ATOM
      1 N           5.5258   -1.7904   32.1383 N.pl3   1  UNL1       -0.3075
      2 C           4.5910   -2.1471   33.2559 C.3     1  UNL1        0.0908
      3 C           3.9175   -1.0636   34.0449 C.3     1  UNL1        0.0237
      4 C           4.1788    0.3764   33.7164 C.3     1  UNL1        0.0285
      5 C           5.1136    0.7331   32.5988 C.3     1  UNL1        0.0237
      6 C           5.7871   -0.3503   31.8097 C.3     1  UNL1        0.0908
      7 C           3.5053    1.4598   34.5055 C.3     1  UNL1        0.1117
      8 C           3.5969    1.6564   35.9898 C.ar    1  UNL1        0.0272
      9 C           4.3262    0.8990   37.0594 C.ar    1  UNL1        0.1379
     10 F           5.1529   -0.2995   36.6988 F       1  UNL1       -0.2044
     11 C           4.2289    1.3401   38.4899 C.ar    1  UNL1        0.0294
     12 C           3.4021    2.5386   38.8504 C.ar    1  UNL1        0.0023
     13 C           2.6728    3.2961   37.7807 C.ar    1  UNL1        0.0014
     14 C           2.7701    2.8550   36.3504 C.ar    1  UNL1        0.0173
     15 C           2.1676    3.3991   35.0890 C.ar    1  UNL1        0.0804
     16 C           1.2843    4.4761   34.5324 C.ar    1  UNL1        0.1178
     17 N           1.1927    4.2794   33.0482 N.ar    1  UNL1       -0.2223
     18 C           2.0194    3.0809   32.6875 C.ar    1  UNL1        0.1788
     19 N           2.6220    2.5368   33.9489 N.ar    1  UNL1       -0.3069
     20 C           7.5463   -5.0407   29.7711 C.ar    1  UNL1        0.0031
     21 C           7.1352   -3.7660   29.0958 C.ar    1  UNL1        0.0014
     22 C           6.4617   -2.6825   29.8848 C.ar    1  UNL1        0.0145
     23 C           6.1993   -2.8738   31.3492 C.ar    1  UNL1        0.0478
     24 C           6.6103   -4.1486   32.0246 C.ar    1  UNL1        0.0145
     25 C           7.2838   -5.2320   31.2356 C.ar    1  UNL1        0.0014
     26 C           9.1973   -8.0386   25.7503 C.3     1  UNL1        0.1538
     27 N           8.9787   -7.5020   27.1339 N.ar    1  UNL1       -0.2473
     28 C           8.1666   -6.2929   27.4926 C.ar    1  UNL1        0.0967
     29 C           8.2198   -6.1241   28.9820 C.ar    1  UNL1        0.0396
     30 C           9.0646   -7.2288   29.5441 C.ar    1  UNL1        0.1216
     31 N           9.5336   -8.0804   28.4018 N.ar    1  UNL1       -0.1676
@<TRIPOS>BOND
     1    26    27    1
     2    27    28   ar
     3    28    29   ar
     4    29    20    1
     5    20    21   ar
     6    21    22   ar
     7    22    23   ar
     8    23     1    1
     9     1     2    1
    10     2     3    1
    11     3     4    1
    12     7     4    1
    13     7     8    1
    14     8     9   ar
    15     9    10    1
    16     9    11   ar
    17    11    12   ar
    18    12    13   ar
    19    13    14   ar
    20    14    15    1
    21    15    16   ar
    22    16    17   ar
    23    17    18   ar
    24    18    19   ar
    25     4     5    1
    26     5     6    1
    27    23    24   ar
    28    24    25   ar
    29    29    30   ar
    30    30    31   ar
    31    31    27   ar
    32    25    20   ar
    33     6     1    1
    34    19     7    1
    35    14     8   ar
    36    19    15   ar
@<TRIPOS>MOLECULE
*****
 31 36 0 0 0
SMALL
GASTEIGER

@<TRIPOS>ATOM
      1 N           1.4574    2.0661   27.5218 N.pl3   1  UNL1       -0.3075
      2 C           2.6353    2.3666   26.6431 C.3     1  UNL1        0.0908
      3 C           2.5680    2.0758   25.1731 C.3     1  UNL1        0.0237
      4 C           1.3228    1.4845   24.5818 C.3     1  UNL1        0.0285
      5 C           0.1447    1.1840   25.4605 C.3     1  UNL1        0.0237
      6 C           0.2121    1.4748   26.9305 C.3     1  UNL1        0.0908
      7 C           1.2555    1.1937   23.1118 C.3     1  UNL1        0.1117
      8 C           2.0376    0.1403   22.3847 C.ar    1  UNL1        0.0272
      9 C           3.0451   -0.8662   22.8559 C.ar    1  UNL1        0.1379
     10 F           3.4229   -0.9267   24.3062 F       1  UNL1       -0.2044
     11 C           3.6747   -1.8122   21.8766 C.ar    1  UNL1        0.0294
     12 C           3.2968   -1.7516   20.4264 C.ar    1  UNL1        0.0023
     13 C           2.2893   -0.7451   19.9551 C.ar    1  UNL1        0.0014
     14 C           1.6597    0.2008   20.9343 C.ar    1  UNL1        0.0173
     15 C           0.6440    1.2916   20.7650 C.ar    1  UNL1        0.0804
     16 C          -0.2172    2.0031   19.7640 C.ar    1  UNL1        0.1178
     17 N          -0.9993    3.0565   20.4911 N.ar    1  UNL1       -0.2223
     18 C          -0.6214    2.9960   21.9415 C.ar    1  UNL1        0.1788
     19 N           0.3942    1.9052   22.1108 N.ar    1  UNL1       -0.3069
     20 C           1.6593    2.9385   31.9318 C.ar    1  UNL1        0.0031
     21 C           0.4993    2.1701   31.3716 C.ar    1  UNL1        0.0014
     22 C           0.4320    1.8793   29.9016 C.ar    1  UNL1        0.0145
     23 C           1.5247    2.3569   28.9918 C.ar    1  UNL1        0.0478
     24 C           2.6848    3.1253   29.5519 C.ar    1  UNL1        0.0145
     25 C           2.7521    3.4161   31.0219 C.ar    1  UNL1        0.0014
     26 C           1.1433    5.3440   36.6038 C.3     1  UNL1        0.1538
     27 N           1.4894    4.3350   35.5492 N.ar    1  UNL1       -0.2473
     28 C           1.2148    4.4652   34.0803 C.ar    1  UNL1        0.0967
     29 C           1.7266    3.2293   33.4018 C.ar    1  UNL1        0.0396
     30 C           2.3176    2.3351   34.4512 C.ar    1  UNL1        0.1216
     31 N           2.1710    3.0185   35.7784 N.ar    1  UNL1       -0.1676
@<TRIPOS>BOND
     1    26    27    1
     2    27    28   ar
     3    28    29   ar
     4    29    20    1
     5    20    21   ar
     6    21    22   ar
     7    22    23   ar
     8    23     1    1
     9     1     2    1
    10     2     3    1
    11     3     4    1
    12     7     4    1
    13     7     8    1
    14     8     9   ar
    15     9    10    1
    16     9    11   ar
    17    11    12   ar
    18    12    13   ar
    19    13    14   ar
    20    14    15    1
    21    15    16   ar
    22    16    17   ar
    23    17    18   ar
    24    18    19   ar
    25     4     5    1
    26     5     6    1
    27    23    24   ar
    28    24    25   ar
    29    29    30   ar
    30    30    31   ar
    31    31    27   ar
    32    25    20   ar
    33     6     1    1
    34    19     7    1
    35    14     8   ar
    36    19    15   ar
@<TRIPOS>MOLECULE
*****
 31 36 0 0 0
SMALL
GASTEIGER

@<TRIPOS>ATOM
      1 N          -0.6577    2.7668   26.8769 N.pl3   1  UNL1       -0.3075
      2 C           0.2993    3.7809   27.4299 C.3     1  UNL1        0.0908
      3 C           0.9619    3.5428   28.7544 C.3     1  UNL1        0.0237
      4 C           0.6676    2.2906   29.5259 C.3     1  UNL1        0.0285
      5 C          -0.2894    1.2764   28.9729 C.3     1  UNL1        0.0237
      6 C          -0.9520    1.5145   27.6484 C.3     1  UNL1        0.0908
      7 C           1.3302    2.0525   30.8503 C.3     1  UNL1        0.1117
      8 C           1.2572    2.9536   32.0474 C.ar    1  UNL1        0.0272
      9 C           0.5603    4.2616   32.2780 C.ar    1  UNL1        0.1379
     10 F          -0.2465    4.8857   31.1783 F       1  UNL1       -0.2044
     11 C           0.6703    4.9457   33.6085 C.ar    1  UNL1        0.0294
     12 C           1.4771    4.3215   34.7082 C.ar    1  UNL1        0.0023
     13 C           2.1740    3.0134   34.4776 C.ar    1  UNL1        0.0014
     14 C           2.0641    2.3294   33.1472 C.ar    1  UNL1        0.0173
     15 C           2.6357    1.0427   32.6299 C.ar    1  UNL1        0.0804
     16 C           3.4876   -0.1382   32.9899 C.ar    1  UNL1        0.1178
     17 N           3.5606   -1.0392   31.7929 N.ar    1  UNL1       -0.2223
     18 C           2.7538   -0.4151   30.6931 C.ar    1  UNL1        0.1788
     19 N           2.1821    0.8716   31.2104 N.ar    1  UNL1       -0.3069
     20 C          -2.6455    3.4812   22.9035 C.ar    1  UNL1        0.0031
     21 C          -1.1774    3.1796   22.9642 C.ar    1  UNL1        0.0014
     22 C          -0.5148    2.9415   24.2887 C.ar    1  UNL1        0.0145
     23 C          -1.3203    3.0049   25.5524 C.ar    1  UNL1        0.0478
     24 C          -2.7885    3.3065   25.4918 C.ar    1  UNL1        0.0145
     25 C          -3.4511    3.5446   24.1673 C.ar    1  UNL1        0.0014
     26 C          -6.1081    3.3237   18.9202 C.3     1  UNL1        0.1538
     27 N          -4.8997    3.6469   19.7481 N.ar    1  UNL1       -0.2473
     28 C          -4.6229    3.1493   21.1359 C.ar    1  UNL1        0.0967
     29 C          -3.3082    3.7193   21.5790 C.ar    1  UNL1        0.0396
     30 C          -2.7722    4.5692   20.4653 C.ar    1  UNL1        0.1216
     31 N          -3.7559    4.5245   19.3337 N.ar    1  UNL1       -0.1676
@<TRIPOS>BOND
     1    26    27    1
     2    27    28   ar
     3    28    29   ar
     4    29    20    1
     5    20    21   ar
     6    21    22   ar
     7    22    23   ar
     8    23     1    1
     9     1     2    1
    10     2     3    1
    11     3     4    1
    12     7     4    1
    13     7     8    1
    14     8     9   ar
    15     9    10    1
    16     9    11   ar
    17    11    12   ar
    18    12    13   ar
    19    13    14   ar
    20    14    15    1
    21    15    16   ar
    22    16    17   ar
    23    17    18   ar
    24    18    19   ar
    25     4     5    1
    26     5     6    1
    27    23    24   ar
    28    24    25   ar
    29    29    30   ar
    30    30    31   ar
    31    31    27   ar
    32    25    20   ar
    33     6     1    1
    34    19     7    1
    35    14     8   ar
    36    19    15   ar
@<TRIPOS>MOLECULE
*****
 31 36 0 0 0
SMALL
GASTEIGER

@<TRIPOS>ATOM
      1 N           0.4799    1.9309   21.9698 N.pl3   1  UNL1       -0.3075
      2 C           0.1209    1.3787   20.6222 C.3     1  UNL1        0.0908
      3 C           1.1834    0.7776   19.7506 C.3     1  UNL1        0.0237
      4 C           2.6050    0.7287   20.2267 C.3     1  UNL1        0.0285
      5 C           2.9641    1.2810   21.5743 C.3     1  UNL1        0.0237
      6 C           1.9015    1.8821   22.4459 C.3     1  UNL1        0.0908
      7 C           3.6676    0.1276   19.3551 C.3     1  UNL1        0.1117
      8 C           4.6083    0.8829   18.4636 C.ar    1  UNL1        0.0272
      9 C           4.7695    2.3482   18.1863 C.ar    1  UNL1        0.1379
     10 F           3.8797    3.3433   18.8704 F       1  UNL1       -0.2044
     11 C           5.8206    2.8184   17.2250 C.ar    1  UNL1        0.0294
     12 C           6.7104    1.8232   16.5410 C.ar    1  UNL1        0.0023
     13 C           6.5492    0.3579   16.8182 C.ar    1  UNL1        0.0014
     14 C           5.4981   -0.1123   17.7795 C.ar    1  UNL1        0.0173
     15 C           5.1074   -1.4825   18.2483 C.ar    1  UNL1        0.0804
     16 C           5.4159   -2.9444   18.1151 C.ar    1  UNL1        0.1178
     17 N           4.4752   -3.6996   19.0066 N.ar    1  UNL1       -0.2223
     18 C           3.5854   -2.7045   19.6907 C.ar    1  UNL1        0.1788
     19 N           3.9761   -1.3343   19.2220 N.ar    1  UNL1       -0.3069
     20 C          -2.7079    3.7342   24.5845 C.ar    1  UNL1        0.0031
     21 C          -1.5547    3.0023   25.2044 C.ar    1  UNL1        0.0014
     22 C          -0.4921    2.4012   24.3329 C.ar    1  UNL1        0.0145
     23 C          -0.5827    2.5320   22.8414 C.ar    1  UNL1        0.0478
     24 C          -1.7359    3.2640   22.2213 C.ar    1  UNL1        0.0145
     25 C          -2.7985    3.8651   23.0929 C.ar    1  UNL1        0.0014
     26 C          -7.0005    6.3615   26.1819 C.3     1  UNL1        0.1538
     27 N          -5.7435    5.5429   26.1902 N.ar    1  UNL1       -0.2473
     28 C          -4.9418    5.1459   24.9862 C.ar    1  UNL1        0.0967
     29 C          -3.7704    4.3353   25.4560 C.ar    1  UNL1        0.0396
     30 C          -3.8481    4.2313   26.9504 C.ar    1  UNL1        0.1216
     31 N          -5.0675    4.9777   27.4042 N.ar    1  UNL1       -0.1676
@<TRIPOS>BOND
     1    26    27    1
     2    27    28   ar
     3    28    29   ar
     4    29    20    1
     5    20    21   ar
     6    21    22   ar
     7    22    23   ar
     8    23     1    1
     9     1     2    1
    10     2     3    1
    11     3     4    1
    12     7     4    1
    13     7     8    1
    14     8     9   ar
    15     9    10    1
    16     9    11   ar
    17    11    12   ar
    18    12    13   ar
    19    13    14   ar
    20    14    15    1
    21    15    16   ar
    22    16    17   ar
    23    17    18   ar
    24    18    19   ar
    25     4     5    1
    26     5     6    1
    27    23    24   ar
    28    24    25   ar
    29    29    30   ar
    30    30    31   ar
    31    31    27   ar
    32    25    20   ar
    33     6     1    1
    34    19     7    1
    35    14     8   ar
    36    19    15   ar
@<TRIPOS>MOLECULE
*****
 31 36 0 0 0
SMALL
GASTEIGER

@<TRIPOS>ATOM
      1 N           3.1328    0.2454   27.8065 N.pl3   1  UNL1       -0.3075
      2 C           3.9799    1.3807   28.3000 C.3     1  UNL1        0.0908
      3 C           3.9432    1.7695   29.7482 C.3     1  UNL1        0.0237
      4 C           3.0594    1.0230   30.7030 C.3     1  UNL1        0.0285
      5 C           2.2122   -0.1123   30.2095 C.3     1  UNL1        0.0237
      6 C           2.2490   -0.5011   28.7613 C.3     1  UNL1        0.0908
      7 C           3.0226    1.4118   32.1513 C.3     1  UNL1        0.1117
      8 C           3.7346    0.7115   33.2706 C.ar    1  UNL1        0.0272
      9 C           4.6291   -0.4924   33.2934 C.ar    1  UNL1        0.1379
     10 F           4.9443   -1.2169   32.0184 F       1  UNL1       -0.2044
     11 C           5.2086   -0.9716   34.5914 C.ar    1  UNL1        0.0294
     12 C           4.8934   -0.2470   35.8663 C.ar    1  UNL1        0.0023
     13 C           3.9988    0.9568   35.8435 C.ar    1  UNL1        0.0014
     14 C           3.4194    1.4361   34.5456 C.ar    1  UNL1        0.0173
     15 C           2.5127    2.5842   34.2144 C.ar    1  UNL1        0.0804
     16 C           1.7576    3.7416   34.7977 C.ar    1  UNL1        0.1178
     17 N           1.0456    4.4418   33.6784 N.ar    1  UNL1       -0.2223
     18 C           1.3608    3.7173   32.4034 C.ar    1  UNL1        0.1788
     19 N           2.2675    2.5692   32.7346 N.ar    1  UNL1       -0.3069
     20 C           3.2431   -0.9210   23.4617 C.ar    1  UNL1        0.0031
     21 C           2.3921    0.2309   23.9076 C.ar    1  UNL1        0.0014
     22 C           2.3553    0.6197   25.3559 C.ar    1  UNL1        0.0145
     23 C           3.1696   -0.1434   26.3582 C.ar    1  UNL1        0.0478
     24 C           4.0206   -1.2954   25.9123 C.ar    1  UNL1        0.0145
     25 C           4.0574   -1.6842   24.4640 C.ar    1  UNL1        0.0014
     26 C           4.6485   -3.1884   18.9049 C.3     1  UNL1        0.1538
     27 N           3.9258   -2.3520   19.9189 N.ar    1  UNL1       -0.2473
     28 C           4.2552   -2.2566   21.3792 C.ar    1  UNL1        0.0967
     29 C           3.2798   -1.3098   22.0134 C.ar    1  UNL1        0.0396
     30 C           2.3476   -0.8201   20.9452 C.ar    1  UNL1        0.1216
     31 N           2.7469   -1.4642   19.6507 N.ar    1  UNL1       -0.1676
@<TRIPOS>BOND
     1    26    27    1
     2    27    28   ar
     3    28    29   ar
     4    29    20    1
     5    20    21   ar
     6    21    22   ar
     7    22    23   ar
     8    23     1    1
     9     1     2    1
    10     2     3    1
    11     3     4    1
    12     7     4    1
    13     7     8    1
    14     8     9   ar
    15     9    10    1
    16     9    11   ar
    17    11    12   ar
    18    12    13   ar
    19    13    14   ar
    20    14    15    1
    21    15    16   ar
    22    16    17   ar
    23    17    18   ar
    24    18    19   ar
    25     4     5    1
    26     5     6    1
    27    23    24   ar
    28    24    25   ar
    29    29    30   ar
    30    30    31   ar
    31    31    27   ar
    32    25    20   ar
    33     6     1    1
    34    19     7    1
    35    14     8   ar
    36    19    15   ar
