@<TRIPOS>MOLECULE
*****
 34 37 0 0 0
SMALL
GASTEIGER

@<TRIPOS>ATOM
      1 C          -5.1641  -19.7299   19.9302 C.2     1  UNL1        0.2470
      2 O          -4.4733  -21.0483   20.1168 O.2     1  UNL1       -0.2701
      3 N          -4.4031  -18.5537   19.3942 N.am    1  UNL1       -0.3008
      4 H          -4.8564  -17.6885   19.2717 H       1  UNL1        0.1497
      5 C          -7.6529  -19.7155   17.8194 C.3     1  UNL1        0.0502
      6 C          -7.7598  -19.5811   19.3096 C.ar    1  UNL1        0.0418
      7 C          -6.6159  -19.5878   20.2798 C.ar    1  UNL1        0.0664
      8 C          -7.1786  -19.4273   21.6610 C.ar    1  UNL1        0.0228
      9 C          -8.6703  -19.3215   21.5444 C.ar    1  UNL1        0.0598
     10 N          -9.0295  -19.4166   20.0911 N.ar    1  UNL1       -0.3285
     11 C         -10.4152  -19.3575   19.5197 C.3     1  UNL1        0.1301
     12 C          -9.6337  -19.1507   22.6814 C.ar    1  UNL1        0.0158
     13 C          -9.4198  -19.8979   23.9643 C.ar    1  UNL1        0.0014
     14 C         -10.3831  -19.7270   25.1013 C.ar    1  UNL1        0.0000
     15 C         -11.5603  -18.8089   24.9553 C.ar    1  UNL1        0.0000
     16 C         -11.7743  -18.0617   23.6724 C.ar    1  UNL1        0.0000
     17 C         -10.8109  -18.2326   22.5354 C.ar    1  UNL1        0.0014
     18 C          -2.9514  -18.6959   19.0447 C.3     1  UNL1        0.0911
     19 C          -1.9766  -17.6263   19.4396 C.3     1  UNL1        0.0386
     20 C          -1.6198  -17.4328   20.8836 C.3     1  UNL1        0.0739
     21 N          -2.6840  -17.0713   21.8771 N.3     1  UNL1       -0.2697
     22 C          -3.0708  -15.6354   22.0727 C.3     1  UNL1        0.0938
     23 C          -4.1349  -15.2740   23.0662 C.3     1  UNL1        0.1081
     24 N          -4.8121  -16.3486   23.8641 N.pl3   1  UNL1       -0.3040
     25 C          -4.4252  -17.7845   23.6686 C.3     1  UNL1        0.1081
     26 C          -3.3612  -18.1459   22.6751 C.3     1  UNL1        0.0938
     27 C          -5.8762  -15.9871   24.8577 C.ar    1  UNL1        0.0594
     28 C          -5.5105  -15.7370   26.2907 C.ar    1  UNL1        0.0154
     29 C          -6.5747  -15.3755   27.2843 C.ar    1  UNL1        0.0022
     30 C          -8.0045  -15.2642   26.8447 C.ar    1  UNL1        0.0123
     31 C          -8.3702  -15.5143   25.4115 C.ar    1  UNL1        0.0694
     32 CL         -9.8000  -15.4030   24.9719 Cl      1  UNL1       -0.0813
     33 C          -7.3061  -15.8758   24.4181 C.ar    1  UNL1        0.0815
     34 CL         -7.6717  -16.1259   22.9850 Cl      1  UNL1       -0.0801
@<TRIPOS>BOND
     1     5     6    1
     2     6     7   ar
     3     7     1    1
     4     1     2    2
     5     1     3   am
     6     3    18    1
     7    18    19    1
     8    19    20    1
     9    20    21    1
    10    21    22    1
    11    22    23    1
    12    23    24    1
    13    24    27    1
    14    27    28   ar
    15    28    29   ar
    16    29    30   ar
    17    30    31   ar
    18    31    32    1
    19    31    33   ar
    20    33    34    1
    21    24    25    1
    22    25    26    1
    23     7     8   ar
    24     8     9   ar
    25     9    12    1
    26    12    13   ar
    27    13    14   ar
    28    14    15   ar
    29    15    16   ar
    30    16    17   ar
    31     9    10   ar
    32    10    11    1
    33    10     6   ar
    34    26    21    1
    35    17    12   ar
    36    33    27   ar
    37     3     4    1
@<TRIPOS>MOLECULE
*****
 34 37 0 0 0
SMALL
GASTEIGER

@<TRIPOS>ATOM
      1 C          -4.9868  -19.6693   20.0370 C.2     1  UNL1        0.2470
      2 O          -4.4305  -21.0344   19.7593 O.2     1  UNL1       -0.2701
      3 N          -4.2159  -18.4484   19.6311 N.am    1  UNL1       -0.3008
      4 H          -4.5810  -17.5524   19.8134 H       1  UNL1        0.1497
      5 C          -5.9458  -21.2615   22.7194 C.3     1  UNL1        0.0502
      6 C          -6.7550  -20.2571   21.9536 C.ar    1  UNL1        0.0418
      7 C          -6.3142  -19.5253   20.7207 C.ar    1  UNL1        0.0664
      8 C          -7.4339  -18.6241   20.2915 C.ar    1  UNL1        0.0228
      9 C          -8.5666  -18.7989   21.2591 C.ar    1  UNL1        0.0598
     10 N          -8.1470  -19.8083   22.2864 N.ar    1  UNL1       -0.3285
     11 C          -8.9742  -20.2850   23.4433 C.3     1  UNL1        0.1301
     12 C          -9.8871  -18.0892   21.2083 C.ar    1  UNL1        0.0158
     13 C         -10.4823  -17.7061   19.8859 C.ar    1  UNL1        0.0014
     14 C         -11.8028  -16.9964   19.8351 C.ar    1  UNL1        0.0000
     15 C         -12.5280  -16.6696   21.1069 C.ar    1  UNL1        0.0000
     16 C         -11.9328  -17.0527   22.4294 C.ar    1  UNL1        0.0000
     17 C         -10.6123  -17.7624   22.4801 C.ar    1  UNL1        0.0014
     18 C          -2.8886  -18.5924   18.9474 C.3     1  UNL1        0.0911
     19 C          -1.7046  -17.8115   19.4359 C.3     1  UNL1        0.0386
     20 C          -1.3979  -17.7536   20.9030 C.3     1  UNL1        0.0739
     21 N          -2.4602  -17.3341   21.8754 N.3     1  UNL1       -0.2697
     22 C          -2.8515  -15.8900   21.9820 C.3     1  UNL1        0.0938
     23 C          -3.9138  -15.4707   22.9544 C.3     1  UNL1        0.1081
     24 N          -4.5849  -16.4955   23.8201 N.pl3   1  UNL1       -0.3040
     25 C          -4.1936  -17.9396   23.7135 C.3     1  UNL1        0.1081
     26 C          -3.1313  -18.3589   22.7412 C.3     1  UNL1        0.0938
     27 C          -5.6473  -16.0761   24.7926 C.ar    1  UNL1        0.0594
     28 C          -5.2976  -15.8481   26.2332 C.ar    1  UNL1        0.0154
     29 C          -6.3600  -15.4287   27.2057 C.ar    1  UNL1        0.0022
     30 C          -7.7720  -15.2373   26.7373 C.ar    1  UNL1        0.0123
     31 C          -8.1217  -15.4653   25.2965 C.ar    1  UNL1        0.0694
     32 CL         -9.5338  -15.2739   24.8281 Cl      1  UNL1       -0.0813
     33 C          -7.0594  -15.8847   24.3242 C.ar    1  UNL1        0.0815
     34 CL         -7.4091  -16.1127   22.8834 Cl      1  UNL1       -0.0801
@<TRIPOS>BOND
     1     5     6    1
     2     6     7   ar
     3     7     1    1
     4     1     2    2
     5     1     3   am
     6     3    18    1
     7    18    19    1
     8    19    20    1
     9    20    21    1
    10    21    22    1
    11    22    23    1
    12    23    24    1
    13    24    27    1
    14    27    28   ar
    15    28    29   ar
    16    29    30   ar
    17    30    31   ar
    18    31    32    1
    19    31    33   ar
    20    33    34    1
    21    24    25    1
    22    25    26    1
    23     7     8   ar
    24     8     9   ar
    25     9    12    1
    26    12    13   ar
    27    13    14   ar
    28    14    15   ar
    29    15    16   ar
    30    16    17   ar
    31     9    10   ar
    32    10    11    1
    33    10     6   ar
    34    26    21    1
    35    17    12   ar
    36    33    27   ar
    37     3     4    1
@<TRIPOS>MOLECULE
*****
 34 37 0 0 0
SMALL
GASTEIGER

@<TRIPOS>ATOM
      1 C          -7.5367  -19.8086   19.7991 C.2     1  UNL1        0.2470
      2 O          -7.5124  -21.0403   18.9434 O.2     1  UNL1       -0.2701
      3 N          -8.8210  -19.0600   19.9998 N.am    1  UNL1       -0.3008
      4 H          -8.8370  -18.2516   20.5614 H       1  UNL1        0.1497
      5 C          -7.0877  -19.3644   23.0008 C.3     1  UNL1        0.0502
      6 C          -6.0704  -19.1212   21.9257 C.ar    1  UNL1        0.0418
      7 C          -6.2767  -19.3253   20.4541 C.ar    1  UNL1        0.0664
      8 C          -5.0019  -18.9614   19.7524 C.ar    1  UNL1        0.0228
      9 C          -4.0076  -18.5324   20.7903 C.ar    1  UNL1        0.0598
     10 N          -4.6680  -18.6311   22.1336 N.ar    1  UNL1       -0.3285
     11 C          -4.0368  -18.2982   23.4530 C.3     1  UNL1        0.1301
     12 C          -2.6001  -18.0835   20.5307 C.ar    1  UNL1        0.0158
     13 C          -2.1395  -16.7411   21.0163 C.ar    1  UNL1        0.0014
     14 C          -0.7320  -16.2922   20.7567 C.ar    1  UNL1        0.0000
     15 C           0.2148  -17.1856   20.0114 C.ar    1  UNL1        0.0000
     16 C          -0.2459  -18.5279   19.5258 C.ar    1  UNL1        0.0000
     17 C          -1.6533  -18.9769   19.7854 C.ar    1  UNL1        0.0014
     18 C         -10.0809  -19.5433   19.3448 C.3     1  UNL1        0.0911
     19 C         -11.3139  -18.6893   19.3689 C.3     1  UNL1        0.0386
     20 C         -11.9317  -18.3009   20.6794 C.3     1  UNL1        0.0739
     21 N         -11.0636  -17.8232   21.8056 N.3     1  UNL1       -0.2697
     22 C         -10.8865  -18.6733   23.0287 C.3     1  UNL1        0.0938
     23 C         -10.0184  -18.1955   24.1547 C.3     1  UNL1        0.1081
     24 N          -9.3273  -16.8677   24.0577 N.pl3   1  UNL1       -0.3040
     25 C          -9.5044  -16.0176   22.8346 C.3     1  UNL1        0.1081
     26 C         -10.3726  -16.4954   21.7086 C.3     1  UNL1        0.0938
     27 C          -8.4592  -16.3899   25.1839 C.ar    1  UNL1        0.0594
     28 C          -8.9566  -16.4625   26.5971 C.ar    1  UNL1        0.0154
     29 C          -8.0884  -15.9847   27.7233 C.ar    1  UNL1        0.0022
     30 C          -6.7229  -15.4345   27.4361 C.ar    1  UNL1        0.0123
     31 C          -6.2255  -15.3620   26.0228 C.ar    1  UNL1        0.0694
     32 CL         -4.8599  -14.8117   25.7356 Cl      1  UNL1       -0.0813
     33 C          -7.0936  -15.8397   24.8967 C.ar    1  UNL1        0.0815
     34 CL         -6.5962  -15.7672   23.4834 Cl      1  UNL1       -0.0801
@<TRIPOS>BOND
     1     5     6    1
     2     6     7   ar
     3     7     1    1
     4     1     2    2
     5     1     3   am
     6     3    18    1
     7    18    19    1
     8    19    20    1
     9    20    21    1
    10    21    22    1
    11    22    23    1
    12    23    24    1
    13    24    27    1
    14    27    28   ar
    15    28    29   ar
    16    29    30   ar
    17    30    31   ar
    18    31    32    1
    19    31    33   ar
    20    33    34    1
    21    24    25    1
    22    25    26    1
    23     7     8   ar
    24     8     9   ar
    25     9    12    1
    26    12    13   ar
    27    13    14   ar
    28    14    15   ar
    29    15    16   ar
    30    16    17   ar
    31     9    10   ar
    32    10    11    1
    33    10     6   ar
    34    26    21    1
    35    17    12   ar
    36    33    27   ar
    37     3     4    1
@<TRIPOS>MOLECULE
*****
 34 37 0 0 0
SMALL
GASTEIGER

@<TRIPOS>ATOM
      1 C          -9.3330  -17.1182   24.8483 C.2     1  UNL1        0.2470
      2 O          -9.5805  -18.0921   25.9620 O.2     1  UNL1       -0.2701
      3 N          -8.8850  -15.7209   25.1596 N.am    1  UNL1       -0.3008
      4 H          -8.7226  -15.0817   24.4286 H       1  UNL1        0.1497
      5 C         -11.5386  -15.8968   22.7763 C.3     1  UNL1        0.0502
      6 C         -10.5472  -16.9802   22.4710 C.ar    1  UNL1        0.0418
      7 C          -9.5334  -17.5417   23.4233 C.ar    1  UNL1        0.0664
      8 C          -8.7552  -18.6009   22.7005 C.ar    1  UNL1        0.0228
      9 C          -9.2881  -18.6942   21.3015 C.ar    1  UNL1        0.0598
     10 N         -10.3956  -17.6925   21.1596 N.ar    1  UNL1       -0.3285
     11 C         -11.2088  -17.4463   19.9234 C.3     1  UNL1        0.1301
     12 C          -8.7993  -19.6255   20.2321 C.ar    1  UNL1        0.0158
     13 C          -7.4055  -20.1761   20.2967 C.ar    1  UNL1        0.0014
     14 C          -6.9166  -21.1074   19.2273 C.ar    1  UNL1        0.0000
     15 C          -7.8216  -21.4882   18.0933 C.ar    1  UNL1        0.0000
     16 C          -9.2154  -20.9376   18.0286 C.ar    1  UNL1        0.0000
     17 C          -9.7042  -20.0063   19.0980 C.ar    1  UNL1        0.0014
     18 C          -8.6846  -15.2975   26.5845 C.3     1  UNL1        0.0911
     19 C          -7.4850  -15.7761   27.3475 C.3     1  UNL1        0.0386
     20 C          -6.1209  -15.2554   27.0039 C.3     1  UNL1        0.0739
     21 N          -5.3910  -15.7950   25.8096 N.3     1  UNL1       -0.2697
     22 C          -4.4742  -16.9726   25.9600 C.3     1  UNL1        0.0938
     23 C          -3.7444  -17.5121   24.7657 C.3     1  UNL1        0.1081
     24 N          -3.9314  -16.8741   23.4211 N.pl3   1  UNL1       -0.3040
     25 C          -4.8483  -15.6965   23.2708 C.3     1  UNL1        0.1081
     26 C          -5.5781  -15.1570   24.4650 C.3     1  UNL1        0.0938
     27 C          -3.2015  -17.4137   22.2269 C.ar    1  UNL1        0.0594
     28 C          -2.0443  -16.6542   21.6489 C.ar    1  UNL1        0.0154
     29 C          -1.3145  -17.1938   20.4547 C.ar    1  UNL1        0.0022
     30 C          -1.7419  -18.4929   19.8384 C.ar    1  UNL1        0.0123
     31 C          -2.8991  -19.2524   20.4164 C.ar    1  UNL1        0.0694
     32 CL         -3.3265  -20.5514   19.8002 Cl      1  UNL1       -0.0813
     33 C          -3.6289  -18.7127   21.6106 C.ar    1  UNL1        0.0815
     34 CL         -4.7862  -19.4722   22.1886 Cl      1  UNL1       -0.0801
@<TRIPOS>BOND
     1     5     6    1
     2     6     7   ar
     3     7     1    1
     4     1     2    2
     5     1     3   am
     6     3    18    1
     7    18    19    1
     8    19    20    1
     9    20    21    1
    10    21    22    1
    11    22    23    1
    12    23    24    1
    13    24    27    1
    14    27    28   ar
    15    28    29   ar
    16    29    30   ar
    17    30    31   ar
    18    31    32    1
    19    31    33   ar
    20    33    34    1
    21    24    25    1
    22    25    26    1
    23     7     8   ar
    24     8     9   ar
    25     9    12    1
    26    12    13   ar
    27    13    14   ar
    28    14    15   ar
    29    15    16   ar
    30    16    17   ar
    31     9    10   ar
    32    10    11    1
    33    10     6   ar
    34    26    21    1
    35    17    12   ar
    36    33    27   ar
    37     3     4    1
@<TRIPOS>MOLECULE
*****
 34 37 0 0 0
SMALL
GASTEIGER

@<TRIPOS>ATOM
      1 C          -5.3374  -16.3058   23.8951 C.2     1  UNL1        0.2470
      2 O          -5.1295  -14.8874   23.4535 O.2     1  UNL1       -0.2701
      3 N          -5.1859  -16.6706   25.3421 N.am    1  UNL1       -0.3008
      4 H          -5.3223  -17.6015   25.6320 H       1  UNL1        0.1497
      5 C          -3.3173  -18.5576   22.6708 C.3     1  UNL1        0.0502
      6 C          -4.7682  -18.3944   22.3269 C.ar    1  UNL1        0.0418
      7 C          -5.6967  -17.3594   22.8896 C.ar    1  UNL1        0.0664
      8 C          -7.0477  -17.5629   22.2704 C.ar    1  UNL1        0.0228
      9 C          -6.9542  -18.7236   21.3249 C.ar    1  UNL1        0.0598
     10 N          -5.5453  -19.2375   21.3599 N.ar    1  UNL1       -0.3285
     11 C          -5.0080  -20.3919   20.5670 C.3     1  UNL1        0.1301
     12 C          -8.0730  -19.2739   20.4910 C.ar    1  UNL1        0.0158
     13 C          -7.8080  -19.7280   19.0862 C.ar    1  UNL1        0.0014
     14 C          -8.9268  -20.2782   18.2522 C.ar    1  UNL1        0.0000
     15 C         -10.3106  -20.3744   18.8231 C.ar    1  UNL1        0.0000
     16 C         -10.5756  -19.9203   20.2279 C.ar    1  UNL1        0.0000
     17 C          -9.4568  -19.3700   21.0619 C.ar    1  UNL1        0.0014
     18 C          -4.8265  -15.6171   26.3475 C.3     1  UNL1        0.0911
     19 C          -5.8699  -15.0911   27.2882 C.3     1  UNL1        0.0386
     20 C          -7.1291  -15.8713   27.5239 C.3     1  UNL1        0.0739
     21 N          -8.0875  -16.1076   26.3944 N.3     1  UNL1       -0.2697
     22 C          -8.3778  -15.0093   25.4149 C.3     1  UNL1        0.0938
     23 C          -9.3361  -15.2456   24.2854 C.3     1  UNL1        0.1081
     24 N         -10.0042  -16.5802   24.1355 N.pl3   1  UNL1       -0.3040
     25 C          -9.7139  -17.6785   25.1150 C.3     1  UNL1        0.1081
     26 C          -8.7556  -17.4422   26.2444 C.3     1  UNL1        0.0938
     27 C         -10.9626  -16.8165   23.0060 C.ar    1  UNL1        0.0594
     28 C         -12.1508  -17.7100   23.2051 C.ar    1  UNL1        0.0154
     29 C         -13.1092  -17.9463   22.0756 C.ar    1  UNL1        0.0022
     30 C         -12.8793  -17.2891   20.7470 C.ar    1  UNL1        0.0123
     31 C         -11.6910  -16.3955   20.5479 C.ar    1  UNL1        0.0694
     32 CL        -11.4611  -15.7382   19.2193 Cl      1  UNL1       -0.0813
     33 C         -10.7327  -16.1593   21.6774 C.ar    1  UNL1        0.0815
     34 CL         -9.5443  -15.2657   21.4783 Cl      1  UNL1       -0.0801
@<TRIPOS>BOND
     1     5     6    1
     2     6     7   ar
     3     7     1    1
     4     1     2    2
     5     1     3   am
     6     3    18    1
     7    18    19    1
     8    19    20    1
     9    20    21    1
    10    21    22    1
    11    22    23    1
    12    23    24    1
    13    24    27    1
    14    27    28   ar
    15    28    29   ar
    16    29    30   ar
    17    30    31   ar
    18    31    32    1
    19    31    33   ar
    20    33    34    1
    21    24    25    1
    22    25    26    1
    23     7     8   ar
    24     8     9   ar
    25     9    12    1
    26    12    13   ar
    27    13    14   ar
    28    14    15   ar
    29    15    16   ar
    30    16    17   ar
    31     9    10   ar
    32    10    11    1
    33    10     6   ar
    34    26    21    1
    35    17    12   ar
    36    33    27   ar
    37     3     4    1
@<TRIPOS>MOLECULE
*****
 34 37 0 0 0
SMALL
GASTEIGER

@<TRIPOS>ATOM
      1 C           4.9787   -1.5917   26.4752 C.2     1  UNL1        0.2470
      2 O           5.9783   -0.7620   27.2251 O.2     1  UNL1       -0.2701
      3 N           3.5580   -1.6658   26.9507 N.am    1  UNL1       -0.3008
      4 H           2.9019   -2.2103   26.4585 H       1  UNL1        0.1497
      5 C           7.4188   -3.7512   26.2971 C.3     1  UNL1        0.0502
      6 C           6.5214   -3.3399   25.1678 C.ar    1  UNL1        0.0418
      7 C           5.3998   -2.3472   25.2496 C.ar    1  UNL1        0.0664
      8 C           4.7731   -2.2428   23.8908 C.ar    1  UNL1        0.0228
      9 C           5.5074   -3.1709   22.9691 C.ar    1  UNL1        0.0598
     10 N           6.5879   -3.8489   23.7584 N.ar    1  UNL1       -0.3285
     11 C           7.5637   -4.8587   23.2309 C.3     1  UNL1        0.1301
     12 C           5.2130   -3.3836   21.5138 C.ar    1  UNL1        0.0158
     13 C           6.0472   -2.6990   20.4720 C.ar    1  UNL1        0.0014
     14 C           5.7527   -2.9117   19.0166 C.ar    1  UNL1        0.0000
     15 C           4.6241   -3.8091   18.6031 C.ar    1  UNL1        0.0000
     16 C           3.7899   -4.4937   19.6449 C.ar    1  UNL1        0.0000
     17 C           4.0844   -4.2810   21.1003 C.ar    1  UNL1        0.0014
     18 C           3.1370   -0.9102   28.1762 C.3     1  UNL1        0.0911
     19 C           2.4941    0.4384   28.0418 C.3     1  UNL1        0.0386
     20 C           3.0667    1.4514   27.0953 C.3     1  UNL1        0.0739
     21 N           2.8856    1.2820   25.6159 N.3     1  UNL1       -0.2697
     22 C           1.5368    0.9327   25.0605 C.3     1  UNL1        0.0938
     23 C           1.3558    0.7633   23.5812 C.3     1  UNL1        0.1081
     24 N           2.5236    0.9432   22.6572 N.pl3   1  UNL1       -0.3040
     25 C           3.8725    1.2925   23.2126 C.3     1  UNL1        0.1081
     26 C           4.0535    1.4619   24.6919 C.3     1  UNL1        0.0938
     27 C           2.3426    0.7738   21.1778 C.ar    1  UNL1        0.0594
     28 C           2.9749   -0.3896   20.4732 C.ar    1  UNL1        0.0154
     29 C           2.7939   -0.5590   18.9937 C.ar    1  UNL1        0.0022
     30 C           1.9804    0.4351   18.2190 C.ar    1  UNL1        0.0123
     31 C           1.3480    1.5985   18.9238 C.ar    1  UNL1        0.0694
     32 CL          0.5345    2.5925   18.1491 Cl      1  UNL1       -0.0813
     33 C           1.5291    1.7679   20.4031 C.ar    1  UNL1        0.0815
     34 CL          0.8967    2.9313   21.1078 Cl      1  UNL1       -0.0801
@<TRIPOS>BOND
     1     5     6    1
     2     6     7   ar
     3     7     1    1
     4     1     2    2
     5     1     3   am
     6     3    18    1
     7    18    19    1
     8    19    20    1
     9    20    21    1
    10    21    22    1
    11    22    23    1
    12    23    24    1
    13    24    27    1
    14    27    28   ar
    15    28    29   ar
    16    29    30   ar
    17    30    31   ar
    18    31    32    1
    19    31    33   ar
    20    33    34    1
    21    24    25    1
    22    25    26    1
    23     7     8   ar
    24     8     9   ar
    25     9    12    1
    26    12    13   ar
    27    13    14   ar
    28    14    15   ar
    29    15    16   ar
    30    16    17   ar
    31     9    10   ar
    32    10    11    1
    33    10     6   ar
    34    26    21    1
    35    17    12   ar
    36    33    27   ar
    37     3     4    1
@<TRIPOS>MOLECULE
*****
 34 37 0 0 0
SMALL
GASTEIGER

@<TRIPOS>ATOM
      1 C           6.7613   -4.3405   23.2415 C.2     1  UNL1        0.2470
      2 O           7.5331   -5.4559   22.6011 O.2     1  UNL1       -0.2701
      3 N           6.7281   -4.2127   24.7356 N.am    1  UNL1       -0.3008
      4 H           6.2215   -3.4806   25.1559 H       1  UNL1        0.1497
      5 C           7.8054   -3.0915   20.4131 C.3     1  UNL1        0.0502
      6 C           6.5027   -2.7787   21.0876 C.ar    1  UNL1        0.0418
      7 C           6.0228   -3.3528   22.3876 C.ar    1  UNL1        0.0664
      8 C           4.6745   -2.7657   22.6840 C.ar    1  UNL1        0.0228
      9 C           4.3212   -1.8289   21.5671 C.ar    1  UNL1        0.0598
     10 N           5.4511   -1.8369   20.5805 N.ar    1  UNL1       -0.3285
     11 C           5.5177   -1.0425   19.3098 C.3     1  UNL1        0.1301
     12 C           3.0596   -1.0251   21.4563 C.ar    1  UNL1        0.0158
     13 C           2.6973   -0.0458   22.5331 C.ar    1  UNL1        0.0014
     14 C           1.4357    0.7580   22.4222 C.ar    1  UNL1        0.0000
     15 C           0.5364    0.5823   21.2346 C.ar    1  UNL1        0.0000
     16 C           0.8987   -0.3970   20.1578 C.ar    1  UNL1        0.0000
     17 C           2.1603   -1.2008   20.2686 C.ar    1  UNL1        0.0014
     18 C           7.4666   -5.2004   25.5894 C.3     1  UNL1        0.0911
     19 C           6.7274   -6.0013   26.6200 C.3     1  UNL1        0.0386
     20 C           7.3316   -6.2193   27.9755 C.3     1  UNL1        0.0739
     21 N           7.0214   -5.2716   29.0962 N.3     1  UNL1       -0.2697
     22 C           6.5876   -3.8681   28.7931 C.3     1  UNL1        0.0938
     23 C           6.2774   -2.9205   29.9137 C.3     1  UNL1        0.1081
     24 N           6.4012   -3.3764   31.3374 N.pl3   1  UNL1       -0.3040
     25 C           6.8350   -4.7799   31.6404 C.3     1  UNL1        0.1081
     26 C           7.1451   -5.7275   30.5199 C.3     1  UNL1        0.0938
     27 C           6.0910   -2.4286   32.4580 C.ar    1  UNL1        0.0594
     28 C           4.7169   -2.4018   33.0589 C.ar    1  UNL1        0.0154
     29 C           4.4068   -1.4541   34.1795 C.ar    1  UNL1        0.0022
     30 C           5.4707   -0.5333   34.6992 C.ar    1  UNL1        0.0123
     31 C           6.8449   -0.5601   34.0982 C.ar    1  UNL1        0.0694
     32 CL          7.9089    0.3607   34.6178 Cl      1  UNL1       -0.0813
     33 C           7.1550   -1.5078   32.9776 C.ar    1  UNL1        0.0815
     34 CL          8.5291   -1.5347   32.3766 Cl      1  UNL1       -0.0801
@<TRIPOS>BOND
     1     5     6    1
     2     6     7   ar
     3     7     1    1
     4     1     2    2
     5     1     3   am
     6     3    18    1
     7    18    19    1
     8    19    20    1
     9    20    21    1
    10    21    22    1
    11    22    23    1
    12    23    24    1
    13    24    27    1
    14    27    28   ar
    15    28    29   ar
    16    29    30   ar
    17    30    31   ar
    18    31    32    1
    19    31    33   ar
    20    33    34    1
    21    24    25    1
    22    25    26    1
    23     7     8   ar
    24     8     9   ar
    25     9    12    1
    26    12    13   ar
    27    13    14   ar
    28    14    15   ar
    29    15    16   ar
    30    16    17   ar
    31     9    10   ar
    32    10    11    1
    33    10     6   ar
    34    26    21    1
    35    17    12   ar
    36    33    27   ar
    37     3     4    1
@<TRIPOS>MOLECULE
*****
 34 37 0 0 0
SMALL
GASTEIGER

@<TRIPOS>ATOM
      1 C           3.9637   -1.6641   20.7018 C.2     1  UNL1        0.2470
      2 O           3.0462   -2.5843   19.9524 O.2     1  UNL1       -0.2701
      3 N           5.3085   -1.3198   20.1337 N.am    1  UNL1       -0.3008
      4 H           5.9107   -0.7158   20.6255 H       1  UNL1        0.1497
      5 C           4.9326   -2.6843   23.6463 C.3     1  UNL1        0.0502
      6 C           3.9815   -1.5571   23.3726 C.ar    1  UNL1        0.0418
      7 C           3.5362   -1.0882   22.0192 C.ar    1  UNL1        0.0664
      8 C           2.5882    0.0578   22.2146 C.ar    1  UNL1        0.0228
      9 C           2.4477    0.2971   23.6887 C.ar    1  UNL1        0.0598
     10 N           3.3089   -0.7010   24.4044 N.ar    1  UNL1       -0.3285
     11 C           3.4692   -0.8217   25.8909 C.3     1  UNL1        0.1301
     12 C           1.5957    1.3497   24.3338 C.ar    1  UNL1        0.0158
     13 C           0.2476    0.9898   24.8842 C.ar    1  UNL1        0.0014
     14 C          -0.6044    2.0424   25.5293 C.ar    1  UNL1        0.0000
     15 C          -0.1083    3.4548   25.6240 C.ar    1  UNL1        0.0000
     16 C           1.2398    3.8147   25.0735 C.ar    1  UNL1        0.0000
     17 C           2.0918    2.7621   24.4284 C.ar    1  UNL1        0.0014
     18 C           5.7359   -1.8957   18.8163 C.3     1  UNL1        0.0911
     19 C           5.3763   -1.1953   17.5395 C.3     1  UNL1        0.0386
     20 C           5.1816    0.2920   17.5290 C.3     1  UNL1        0.0739
     21 N           3.9373    0.8897   18.1159 N.3     1  UNL1       -0.2697
     22 C           2.6167    0.2023   17.9330 C.3     1  UNL1        0.0938
     23 C           1.3724    0.8000   18.5199 C.3     1  UNL1        0.1081
     24 N           1.4488    2.0851   19.2898 N.pl3   1  UNL1       -0.3040
     25 C           2.7693    2.7725   19.4727 C.3     1  UNL1        0.1081
     26 C           4.0136    2.1748   18.8858 C.3     1  UNL1        0.0938
     27 C           0.2044    2.6828   19.8767 C.ar    1  UNL1        0.0594
     28 C          -0.0613    2.5667   21.3484 C.ar    1  UNL1        0.0154
     29 C          -1.3056    3.1644   21.9353 C.ar    1  UNL1        0.0022
     30 C          -2.2842    3.8782   21.0505 C.ar    1  UNL1        0.0123
     31 C          -2.0185    3.9942   19.5788 C.ar    1  UNL1        0.0694
     32 CL         -2.9971    4.7080   18.6939 Cl      1  UNL1       -0.0813
     33 C          -0.7742    3.3965   18.9919 C.ar    1  UNL1        0.0815
     34 CL         -0.5084    3.5126   17.5201 Cl      1  UNL1       -0.0801
@<TRIPOS>BOND
     1     5     6    1
     2     6     7   ar
     3     7     1    1
     4     1     2    2
     5     1     3   am
     6     3    18    1
     7    18    19    1
     8    19    20    1
     9    20    21    1
    10    21    22    1
    11    22    23    1
    12    23    24    1
    13    24    27    1
    14    27    28   ar
    15    28    29   ar
    16    29    30   ar
    17    30    31   ar
    18    31    32    1
    19    31    33   ar
    20    33    34    1
    21    24    25    1
    22    25    26    1
    23     7     8   ar
    24     8     9   ar
    25     9    12    1
    26    12    13   ar
    27    13    14   ar
    28    14    15   ar
    29    15    16   ar
    30    16    17   ar
    31     9    10   ar
    32    10    11    1
    33    10     6   ar
    34    26    21    1
    35    17    12   ar
    36    33    27   ar
    37     3     4    1
@<TRIPOS>MOLECULE
*****
 34 37 0 0 0
SMALL
GASTEIGER

@<TRIPOS>ATOM
      1 C           5.3612   -1.1251   26.6278 C.2     1  UNL1        0.2470
      2 O           6.3398   -0.1693   27.2431 O.2     1  UNL1       -0.2701
      3 N           5.2831   -2.5396   27.1208 N.am    1  UNL1       -0.3008
      4 H           4.6408   -3.1670   26.7170 H       1  UNL1        0.1497
      5 C           2.5581    0.5073   26.9848 C.3     1  UNL1        0.0502
      6 C           3.1722    0.0839   25.6834 C.ar    1  UNL1        0.0418
      7 C           4.4606   -0.6665   25.5193 C.ar    1  UNL1        0.0664
      8 C           4.6904   -0.8776   24.0521 C.ar    1  UNL1        0.0228
      9 C           3.5440   -0.2578   23.3094 C.ar    1  UNL1        0.0598
     10 N           2.6057    0.3365   24.3177 N.ar    1  UNL1       -0.3285
     11 C           1.3256    1.0568   24.0135 C.3     1  UNL1        0.1301
     12 C           3.3670   -0.2360   21.8201 C.ar    1  UNL1        0.0158
     13 C           2.1282   -0.8150   21.2036 C.ar    1  UNL1        0.0014
     14 C           1.9511   -0.7933   19.7142 C.ar    1  UNL1        0.0000
     15 C           3.0129   -0.1925   18.8414 C.ar    1  UNL1        0.0000
     16 C           4.2517    0.3865   19.4580 C.ar    1  UNL1        0.0000
     17 C           4.4287    0.3648   20.9473 C.ar    1  UNL1        0.0014
     18 C           6.1837   -2.9982   28.2293 C.3     1  UNL1        0.0911
     19 C           7.4387   -3.7557   27.9111 C.3     1  UNL1        0.0386
     20 C           8.3817   -3.2393   26.8652 C.3     1  UNL1        0.0739
     21 N           7.9447   -3.1651   25.4322 N.3     1  UNL1       -0.2697
     22 C           7.1598   -4.2916   24.8281 C.3     1  UNL1        0.0938
     23 C           6.7228   -4.2173   23.3952 C.3     1  UNL1        0.1081
     24 N           7.0707   -3.0165   22.5662 N.pl3   1  UNL1       -0.3040
     25 C           7.8555   -1.8900   23.1703 C.3     1  UNL1        0.1081
     26 C           8.2925   -1.9643   24.6032 C.3     1  UNL1        0.0938
     27 C           6.6336   -2.9423   21.1332 C.ar    1  UNL1        0.0594
     28 C           7.5583   -2.3787   20.0953 C.ar    1  UNL1        0.0154
     29 C           7.1213   -2.3045   18.6622 C.ar    1  UNL1        0.0022
     30 C           5.7595   -2.7939   18.2672 C.ar    1  UNL1        0.0123
     31 C           4.8348   -3.3575   19.3051 C.ar    1  UNL1        0.0694
     32 CL          3.4730   -3.8469   18.9101 Cl      1  UNL1       -0.0813
     33 C           5.2719   -3.4317   20.7381 C.ar    1  UNL1        0.0815
     34 CL          4.3472   -3.9953   21.7761 Cl      1  UNL1       -0.0801
@<TRIPOS>BOND
     1     5     6    1
     2     6     7   ar
     3     7     1    1
     4     1     2    2
     5     1     3   am
     6     3    18    1
     7    18    19    1
     8    19    20    1
     9    20    21    1
    10    21    22    1
    11    22    23    1
    12    23    24    1
    13    24    27    1
    14    27    28   ar
    15    28    29   ar
    16    29    30   ar
    17    30    31   ar
    18    31    32    1
    19    31    33   ar
    20    33    34    1
    21    24    25    1
    22    25    26    1
    23     7     8   ar
    24     8     9   ar
    25     9    12    1
    26    12    13   ar
    27    13    14   ar
    28    14    15   ar
    29    15    16   ar
    30    16    17   ar
    31     9    10   ar
    32    10    11    1
    33    10     6   ar
    34    26    21    1
    35    17    12   ar
    36    33    27   ar
    37     3     4    1
