@<TRIPOS>MOLECULE
*****
 39 42 0 0 0
SMALL
GASTEIGER

@<TRIPOS>ATOM
      1 C           3.6057    0.4012   26.9453 C.3     1  UNL1        0.0942
      2 C           2.1376    0.6650   27.1037 C.3     1  UNL1        0.1129
      3 N           1.4510    0.3327   28.3952 N.am    1  UNL1       -0.2778
      4 C          -0.0172    0.5965   28.5536 C.2     1  UNL1        0.2262
      5 C          -0.7986    1.1926   27.4205 C.3     1  UNL1        0.0948
      6 O          -0.7038    0.2642   29.8451 O.2     1  UNL1       -0.2749
      7 C           2.2324   -0.2634   29.5283 C.3     1  UNL1        0.0936
      8 C           3.7005   -0.5273   29.3699 C.3     1  UNL1        0.0246
      9 C           4.3871   -0.1949   28.0784 C.3     1  UNL1        0.0374
     10 N           5.2301   -0.0102   23.3478 N.am    1  UNL1       -0.2485
     11 C           4.5434   -0.3424   24.6393 C.2     1  UNL1        0.3059
     12 O           4.1077   -1.7508   24.9164 O.2     1  UNL1       -0.2524
     13 N           4.2924    0.7336   25.6538 N.am    1  UNL1       -0.2885
     14 H           5.5160    0.9142   23.1660 H       1  UNL1        0.1583
     15 H           4.5784    1.6579   25.4719 H       1  UNL1        0.1510
     16 C           5.2637   -2.5195   20.3868 C.ar    1  UNL1        0.0803
     17 S           4.6519   -1.3586   21.1134 S.2     1  UNL1       -0.0488
     18 C           5.4811   -1.0862   22.3333 C.ar    1  UNL1        0.1664
     19 N           6.6054   -2.0788   22.3606 N.ar    1  UNL1       -0.2282
     20 C           6.4710   -2.9646   21.1576 C.ar    1  UNL1        0.0701
     21 C           7.3837   -4.0968   20.7900 C.3     1  UNL1        0.0528
     22 C           3.7238   -4.2147   19.1600 C.3     1  UNL1        0.0779
     23 C           4.7570   -3.1284   19.1129 C.2     1  UNL1        0.1807
     24 O           5.2836   -2.6509   17.7922 O.2     1  UNL1       -0.2908
     25 C           5.8553   -0.4587   27.9200 C.3     1  UNL1        0.0738
     26 N           6.4516   -1.7263   28.4562 N.3     1  UNL1       -0.2726
     27 C           7.4157   -1.6746   29.6043 C.3     1  UNL1        0.0721
     28 C           8.0120   -2.9422   30.1405 C.3     1  UNL1        0.0174
     29 C           7.6444   -4.2615   29.5287 C.3     1  UNL1        0.0031
     30 C           6.6804   -4.3132   28.3807 C.3     1  UNL1        0.0204
     31 C           6.0840   -3.0456   27.8444 C.3     1  UNL1        0.0724
     32 C           6.3127   -5.6325   27.7688 C.3     1  UNL1        0.0277
     33 C           6.9753   -6.0816   26.5002 C.ar    1  UNL1       -0.0220
     34 C           7.4761   -7.4899   26.3735 C.ar    1  UNL1       -0.0020
     35 C           8.1387   -7.9389   25.1050 C.ar    1  UNL1        0.0293
     36 C           8.3007   -6.9797   23.9631 C.ar    1  UNL1        0.1401
     37 F           8.9633   -7.4287   22.6946 F       1  UNL1       -0.2042
     38 C           7.7999   -5.5715   24.0899 C.ar    1  UNL1        0.0293
     39 C           7.1373   -5.1224   25.3584 C.ar    1  UNL1       -0.0020
@<TRIPOS>BOND
     1    22    23    1
     2    23    24    2
     3    23    16    1
     4    16    17   ar
     5    17    18   ar
     6    18    10    1
     7    10    11   am
     8    11    12    2
     9    11    13   am
    10     1    13    1
    11     1     2    1
    12     2     3    1
    13     3     4   am
    14     4     5    1
    15     4     6    2
    16     3     7    1
    17     7     8    1
    18     8     9    1
    19     9    25    1
    20    25    26    1
    21    26    27    1
    22    27    28    1
    23    28    29    1
    24    29    30    1
    25    30    32    1
    26    32    33    1
    27    33    34   ar
    28    34    35   ar
    29    35    36   ar
    30    36    37    1
    31    36    38   ar
    32    38    39   ar
    33    30    31    1
    34    18    19   ar
    35    19    20   ar
    36    20    21    1
    37    20    16   ar
    38     9     1    1
    39    31    26    1
    40    39    33   ar
    41    10    14    1
    42    13    15    1
@<TRIPOS>MOLECULE
*****
 39 42 0 0 0
SMALL
GASTEIGER

@<TRIPOS>ATOM
      1 C          -4.9758    4.7111   24.0415 C.3     1  UNL1        0.0942
      2 C          -5.6699    5.7110   24.9182 C.3     1  UNL1        0.1129
      3 N          -7.1594    5.8702   24.8405 N.am    1  UNL1       -0.2778
      4 C          -7.8535    6.8701   25.7171 C.2     1  UNL1        0.2262
      5 C          -7.0581    7.7107   26.6714 C.3     1  UNL1        0.0948
      6 O          -9.3430    7.0293   25.6394 O.2     1  UNL1       -0.2749
      7 C          -7.9547    5.0296   23.8862 C.3     1  UNL1        0.0936
      8 C          -7.2607    4.0297   23.0095 C.3     1  UNL1        0.0246
      9 C          -5.7712    3.8705   23.0872 C.3     1  UNL1        0.0374
     10 N          -1.3716    3.7663   25.4081 N.am    1  UNL1       -0.2485
     11 C          -2.8611    3.9256   25.3304 C.2     1  UNL1        0.3059
     12 O          -3.7255    3.4585   26.4639 O.2     1  UNL1       -0.2524
     13 N          -3.4863    4.5519   24.1192 N.am    1  UNL1       -0.2885
     14 H          -0.8043    4.0728   24.6641 H       1  UNL1        0.1583
     15 H          -2.9190    4.8584   23.3752 H       1  UNL1        0.1510
     16 C           0.0427    1.4953   28.2202 C.ar    1  UNL1        0.0803
     17 S          -0.6587    1.6702   26.9059 S.2     1  UNL1       -0.0488
     18 C          -0.7465    3.1400   26.6192 C.ar    1  UNL1        0.1664
     19 N          -0.0993    3.8734   27.7564 N.ar    1  UNL1       -0.2282
     20 C           0.3884    2.8570   28.7459 C.ar    1  UNL1        0.0701
     21 C           1.0974    3.1507   30.0347 C.3     1  UNL1        0.0528
     22 C           1.7582   -0.3105   28.9589 C.3     1  UNL1        0.0779
     23 C           0.3452    0.1883   28.8910 C.2     1  UNL1        0.1807
     24 O          -0.7652   -0.6200   29.4940 O.2     1  UNL1       -0.2908
     25 C          -5.0770    2.8706   22.2106 C.3     1  UNL1        0.0738
     26 N          -4.3326    3.3305   20.9922 N.3     1  UNL1       -0.2726
     27 C          -5.0875    3.8315   19.7967 C.3     1  UNL1        0.0721
     28 C          -4.3431    4.2914   18.5784 C.3     1  UNL1        0.0174
     29 C          -2.8437    4.2502   18.5556 C.3     1  UNL1        0.0031
     30 C          -2.0889    3.7492   19.7510 C.3     1  UNL1        0.0204
     31 C          -2.8334    3.2893   20.9694 C.3     1  UNL1        0.0724
     32 C          -0.5896    3.7080   19.7282 C.3     1  UNL1        0.0277
     33 C           0.1244    2.3888   19.7237 C.ar    1  UNL1       -0.0220
     34 C           0.1832    1.5636   20.9750 C.ar    1  UNL1       -0.0020
     35 C           0.8972    0.2444   20.9705 C.ar    1  UNL1        0.0293
     36 C           1.5525   -0.2495   19.7147 C.ar    1  UNL1        0.1401
     37 F           2.2665   -1.5686   19.7102 F       1  UNL1       -0.2042
     38 C           1.4936    0.5758   18.4636 C.ar    1  UNL1        0.0293
     39 C           0.7796    1.8949   18.4681 C.ar    1  UNL1       -0.0020
@<TRIPOS>BOND
     1    22    23    1
     2    23    24    2
     3    23    16    1
     4    16    17   ar
     5    17    18   ar
     6    18    10    1
     7    10    11   am
     8    11    12    2
     9    11    13   am
    10     1    13    1
    11     1     2    1
    12     2     3    1
    13     3     4   am
    14     4     5    1
    15     4     6    2
    16     3     7    1
    17     7     8    1
    18     8     9    1
    19     9    25    1
    20    25    26    1
    21    26    27    1
    22    27    28    1
    23    28    29    1
    24    29    30    1
    25    30    32    1
    26    32    33    1
    27    33    34   ar
    28    34    35   ar
    29    35    36   ar
    30    36    37    1
    31    36    38   ar
    32    38    39   ar
    33    30    31    1
    34    18    19   ar
    35    19    20   ar
    36    20    21    1
    37    20    16   ar
    38     9     1    1
    39    31    26    1
    40    39    33   ar
    41    10    14    1
    42    13    15    1
@<TRIPOS>MOLECULE
*****
 39 42 0 0 0
SMALL
GASTEIGER

@<TRIPOS>ATOM
      1 C           3.6444    0.6388   26.9274 C.3     1  UNL1        0.0942
      2 C           2.4872    0.9397   27.8330 C.3     1  UNL1        0.1129
      3 N           1.1452    1.2707   27.2503 N.am    1  UNL1       -0.2778
      4 C          -0.0121    1.5716   28.1560 C.2     1  UNL1        0.2262
      5 C           0.1726    1.5415   29.6442 C.3     1  UNL1        0.0948
      6 O          -1.3541    1.9026   27.5733 O.2     1  UNL1       -0.2749
      7 C           0.9605    1.3008   25.7621 C.3     1  UNL1        0.0936
      8 C           2.1178    0.9999   24.8565 C.3     1  UNL1        0.0246
      9 C           3.4597    0.6689   25.4391 C.3     1  UNL1        0.0374
     10 N           6.6648   -1.4426   28.4425 N.am    1  UNL1       -0.2485
     11 C           5.3228   -1.1116   27.8598 C.2     1  UNL1        0.3059
     12 O           4.3171   -2.1999   27.6269 O.2     1  UNL1       -0.2524
     13 N           4.9865    0.3078   27.5101 N.am    1  UNL1       -0.2885
     14 H           7.3248   -0.7283   28.5953 H       1  UNL1        0.1583
     15 H           5.6465    1.0221   27.6629 H       1  UNL1        0.1510
     16 C           7.5284   -4.8645   30.0581 C.ar    1  UNL1        0.0803
     17 S           7.2146   -3.4024   30.1751 S.2     1  UNL1       -0.0488
     18 C           7.0011   -2.8620   28.7922 C.ar    1  UNL1        0.1664
     19 N           7.1830   -3.9901   27.8206 N.ar    1  UNL1       -0.2282
     20 C           7.5089   -5.2278   28.6029 C.ar    1  UNL1        0.0701
     21 C           7.7695   -6.5895   28.0304 C.3     1  UNL1        0.0528
     22 C           9.2252   -6.1926   31.5096 C.3     1  UNL1        0.0779
     23 C           7.8120   -5.7993   31.1964 C.2     1  UNL1        0.1807
     24 O           6.6824   -6.3407   32.0215 O.2     1  UNL1       -0.2908
     25 C           4.6171    0.3680   24.5335 C.3     1  UNL1        0.0738
     26 N           4.6482   -0.9152   23.7574 N.3     1  UNL1       -0.2726
     27 C           5.3152   -2.1269   24.3381 C.3     1  UNL1        0.0721
     28 C           5.3463   -3.4101   23.5620 C.3     1  UNL1        0.0174
     29 C           4.7105   -3.4817   22.2052 C.3     1  UNL1        0.0031
     30 C           4.0436   -2.2700   21.6246 C.3     1  UNL1        0.0204
     31 C           4.0125   -0.9868   22.4007 C.3     1  UNL1        0.0724
     32 C           3.4078   -2.3415   20.2678 C.3     1  UNL1        0.0277
     33 C           2.6821   -1.1504   19.7159 C.ar    1  UNL1       -0.0220
     34 C           3.3358   -0.2897   18.6757 C.ar    1  UNL1       -0.0020
     35 C           2.6101    0.9014   18.1238 C.ar    1  UNL1        0.0293
     36 C           1.2308    1.2318   18.6121 C.ar    1  UNL1        0.1401
     37 F           0.5051    2.4229   18.0602 F       1  UNL1       -0.2042
     38 C           0.5772    0.3711   19.6523 C.ar    1  UNL1        0.0293
     39 C           1.3029   -0.8200   20.2042 C.ar    1  UNL1       -0.0020
@<TRIPOS>BOND
     1    22    23    1
     2    23    24    2
     3    23    16    1
     4    16    17   ar
     5    17    18   ar
     6    18    10    1
     7    10    11   am
     8    11    12    2
     9    11    13   am
    10     1    13    1
    11     1     2    1
    12     2     3    1
    13     3     4   am
    14     4     5    1
    15     4     6    2
    16     3     7    1
    17     7     8    1
    18     8     9    1
    19     9    25    1
    20    25    26    1
    21    26    27    1
    22    27    28    1
    23    28    29    1
    24    29    30    1
    25    30    32    1
    26    32    33    1
    27    33    34   ar
    28    34    35   ar
    29    35    36   ar
    30    36    37    1
    31    36    38   ar
    32    38    39   ar
    33    30    31    1
    34    18    19   ar
    35    19    20   ar
    36    20    21    1
    37    20    16   ar
    38     9     1    1
    39    31    26    1
    40    39    33   ar
    41    10    14    1
    42    13    15    1
@<TRIPOS>MOLECULE
*****
 39 42 0 0 0
SMALL
GASTEIGER

@<TRIPOS>ATOM
      1 C           2.0317    1.6059   24.8737 C.3     1  UNL1        0.0942
      2 C           2.0726    0.9385   26.2164 C.3     1  UNL1        0.1129
      3 N           0.8389    0.8914   27.0683 N.am    1  UNL1       -0.2778
      4 C           0.8797    0.2241   28.4111 C.2     1  UNL1        0.2262
      5 C           2.1543   -0.3961   28.9019 C.3     1  UNL1        0.0948
      6 O          -0.3539    0.1769   29.2630 O.2     1  UNL1       -0.2749
      7 C          -0.4357    1.5116   26.5775 C.3     1  UNL1        0.0936
      8 C          -0.4765    2.1789   25.2348 C.3     1  UNL1        0.0246
      9 C           0.7571    2.2260   24.3828 C.3     1  UNL1        0.0374
     10 N           4.9165    0.4907   22.3869 N.am    1  UNL1       -0.2485
     11 C           3.6829    0.4435   23.2388 C.2     1  UNL1        0.3059
     12 O           2.8667   -0.8131   23.3080 O.2     1  UNL1       -0.2524
     13 N           3.2654    1.6530   24.0217 N.am    1  UNL1       -0.2885
     14 H           5.4522    1.3154   22.3415 H       1  UNL1        0.1583
     15 H           3.8010    2.4778   23.9763 H       1  UNL1        0.1510
     16 C           6.6343   -2.5862   20.7595 C.ar    1  UNL1        0.0803
     17 S           6.6437   -1.4396   21.7267 S.2     1  UNL1       -0.0488
     18 C           5.3340   -0.7188   21.6040 C.ar    1  UNL1        0.1664
     19 N           4.5151   -1.4199   20.5610 N.ar    1  UNL1       -0.2282
     20 C           5.3187   -2.5739   20.0391 C.ar    1  UNL1        0.0701
     21 C           4.8831   -3.5452   18.9822 C.3     1  UNL1        0.0528
     22 C           9.0503   -3.1178   19.9660 C.3     1  UNL1        0.0779
     23 C           7.7453   -3.5718   20.5497 C.2     1  UNL1        0.1807
     24 O           7.5513   -5.0114   20.9236 O.2     1  UNL1       -0.2908
     25 C           0.7163    2.8934   23.0400 C.3     1  UNL1        0.0738
     26 N           1.0285    2.1066   21.8017 N.3     1  UNL1       -0.2726
     27 C           0.3221    0.8096   21.5392 C.3     1  UNL1        0.0721
     28 C           0.6344    0.0228   20.3009 C.3     1  UNL1        0.0174
     29 C           1.6531    0.5330   19.3251 C.3     1  UNL1        0.0031
     30 C           2.3594    1.8299   19.5876 C.3     1  UNL1        0.0204
     31 C           2.0471    2.6167   20.8259 C.3     1  UNL1        0.0724
     32 C           3.3780    2.3401   18.6118 C.3     1  UNL1        0.0277
     33 C           4.7482    1.7311   18.5709 C.ar    1  UNL1       -0.0220
     34 C           5.8381    2.2770   19.4451 C.ar    1  UNL1       -0.0020
     35 C           7.2083    1.6680   19.4042 C.ar    1  UNL1        0.0293
     36 C           7.4886    0.5131   18.4889 C.ar    1  UNL1        0.1401
     37 F           8.8588   -0.0960   18.4480 F       1  UNL1       -0.2042
     38 C           6.3988   -0.0328   17.6147 C.ar    1  UNL1        0.0293
     39 C           5.0286    0.5762   17.6557 C.ar    1  UNL1       -0.0020
@<TRIPOS>BOND
     1    22    23    1
     2    23    24    2
     3    23    16    1
     4    16    17   ar
     5    17    18   ar
     6    18    10    1
     7    10    11   am
     8    11    12    2
     9    11    13   am
    10     1    13    1
    11     1     2    1
    12     2     3    1
    13     3     4   am
    14     4     5    1
    15     4     6    2
    16     3     7    1
    17     7     8    1
    18     8     9    1
    19     9    25    1
    20    25    26    1
    21    26    27    1
    22    27    28    1
    23    28    29    1
    24    29    30    1
    25    30    32    1
    26    32    33    1
    27    33    34   ar
    28    34    35   ar
    29    35    36   ar
    30    36    37    1
    31    36    38   ar
    32    38    39   ar
    33    30    31    1
    34    18    19   ar
    35    19    20   ar
    36    20    21    1
    37    20    16   ar
    38     9     1    1
    39    31    26    1
    40    39    33   ar
    41    10    14    1
    42    13    15    1
@<TRIPOS>MOLECULE
*****
 39 42 0 0 0
SMALL
GASTEIGER

@<TRIPOS>ATOM
      1 C           6.8348   -2.5253   25.9416 C.3     1  UNL1        0.0942
      2 C           6.8985   -3.6050   26.9808 C.3     1  UNL1        0.1129
      3 N           7.3688   -4.9793   26.6066 N.am    1  UNL1       -0.2778
      4 C           7.4326   -6.0591   27.6459 C.2     1  UNL1        0.2262
      5 C           7.0261   -5.7645   29.0594 C.3     1  UNL1        0.0948
      6 O           7.9029   -7.4334   27.2717 O.2     1  UNL1       -0.2749
      7 C           7.7753   -5.2739   25.1931 C.3     1  UNL1        0.0936
      8 C           7.7116   -4.1942   24.1539 C.3     1  UNL1        0.0246
      9 C           7.2413   -2.8199   24.5281 C.3     1  UNL1        0.0374
     10 N           4.4363    0.4759   26.9369 N.am    1  UNL1       -0.2485
     11 C           4.9066   -0.8984   26.5627 C.2     1  UNL1        0.3059
     12 O           3.9191   -2.0204   26.4355 O.2     1  UNL1       -0.2524
     13 N           6.3644   -1.1509   26.3158 N.am    1  UNL1       -0.2885
     14 H           5.0844    1.2122   27.0204 H       1  UNL1        0.1583
     15 H           7.0126   -0.4145   26.3993 H       1  UNL1        0.1510
     16 C           0.7855    0.7631   28.2234 C.ar    1  UNL1        0.0803
     17 S           2.2032    0.3045   28.3961 S.2     1  UNL1       -0.0488
     18 C           2.9785    0.7283   27.1839 C.ar    1  UNL1        0.1664
     19 N           2.0399    1.4489   26.2621 N.ar    1  UNL1       -0.2282
     20 C           0.6846    1.4704   26.9045 C.ar    1  UNL1        0.0701
     21 C          -0.5542    2.0904   26.3291 C.3     1  UNL1        0.0528
     22 C          -1.4571   -0.3838   28.8597 C.3     1  UNL1        0.0779
     23 C          -0.3345    0.5516   29.1985 C.2     1  UNL1        0.1807
     24 O          -0.3319    1.2753   30.5122 O.2     1  UNL1       -0.2908
     25 C           7.1775   -1.7401   23.4888 C.3     1  UNL1        0.0738
     26 N           6.7359   -2.0675   22.0932 N.3     1  UNL1       -0.2726
     27 C           7.7555   -2.3741   21.0364 C.3     1  UNL1        0.0721
     28 C           7.3139   -2.7016   19.6408 C.3     1  UNL1        0.0174
     29 C           5.8528   -2.7225   19.3019 C.3     1  UNL1        0.0031
     30 C           4.8333   -2.4159   20.3586 C.3     1  UNL1        0.0204
     31 C           5.2749   -2.0885   21.7543 C.3     1  UNL1        0.0724
     32 C           3.3722   -2.4368   20.0197 C.3     1  UNL1        0.0277
     33 C           2.6746   -1.1676   19.6295 C.ar    1  UNL1       -0.0220
     34 C           1.3161   -0.8572   20.1846 C.ar    1  UNL1       -0.0020
     35 C           0.6185    0.4121   19.7943 C.ar    1  UNL1        0.0293
     36 C           1.2795    1.3710   18.8489 C.ar    1  UNL1        0.1401
     37 F           0.5819    2.6402   18.4586 F       1  UNL1       -0.2042
     38 C           2.6379    1.0606   18.2939 C.ar    1  UNL1        0.0293
     39 C           3.3355   -0.2087   18.6841 C.ar    1  UNL1       -0.0020
@<TRIPOS>BOND
     1    22    23    1
     2    23    24    2
     3    23    16    1
     4    16    17   ar
     5    17    18   ar
     6    18    10    1
     7    10    11   am
     8    11    12    2
     9    11    13   am
    10     1    13    1
    11     1     2    1
    12     2     3    1
    13     3     4   am
    14     4     5    1
    15     4     6    2
    16     3     7    1
    17     7     8    1
    18     8     9    1
    19     9    25    1
    20    25    26    1
    21    26    27    1
    22    27    28    1
    23    28    29    1
    24    29    30    1
    25    30    32    1
    26    32    33    1
    27    33    34   ar
    28    34    35   ar
    29    35    36   ar
    30    36    37    1
    31    36    38   ar
    32    38    39   ar
    33    30    31    1
    34    18    19   ar
    35    19    20   ar
    36    20    21    1
    37    20    16   ar
    38     9     1    1
    39    31    26    1
    40    39    33   ar
    41    10    14    1
    42    13    15    1
@<TRIPOS>MOLECULE
*****
 39 42 0 0 0
SMALL
GASTEIGER

@<TRIPOS>ATOM
      1 C           3.3742    0.4836   26.6826 C.3     1  UNL1        0.0942
      2 C           1.9522    0.9099   26.8979 C.3     1  UNL1        0.1129
      3 N           1.2085    0.4518   28.1173 N.am    1  UNL1       -0.2778
      4 C          -0.2136    0.8780   28.3327 C.2     1  UNL1        0.2262
      5 C          -0.8917    1.7623   27.3286 C.3     1  UNL1        0.0948
      6 O          -0.9573    0.4200   29.5521 O.2     1  UNL1       -0.2749
      7 C           1.8866   -0.4325   29.1214 C.3     1  UNL1        0.0936
      8 C           3.3085   -0.8587   28.9061 C.3     1  UNL1        0.0246
      9 C           4.0523   -0.4007   27.6867 C.3     1  UNL1        0.0374
     10 N           4.5708    0.7779   22.9102 N.am    1  UNL1       -0.2485
     11 C           3.8270    0.3199   24.1295 C.2     1  UNL1        0.3059
     12 O           2.7921   -0.7600   24.0153 O.2     1  UNL1       -0.2524
     13 N           4.1180    0.9417   25.4632 N.am    1  UNL1       -0.2885
     14 H           5.2500    1.4866   22.9851 H       1  UNL1        0.1583
     15 H           4.7972    1.6504   25.5382 H       1  UNL1        0.1510
     16 C           4.1854   -1.4266   19.7388 C.ar    1  UNL1        0.0803
     17 S           4.6806   -1.2219   21.1398 S.2     1  UNL1       -0.0488
     18 C           4.2798    0.1560   21.5765 C.ar    1  UNL1        0.1664
     19 N           3.5369    0.8030   20.4453 N.ar    1  UNL1       -0.2282
     20 C           3.4785   -0.1751   19.3095 C.ar    1  UNL1        0.0701
     21 C           2.8276    0.0574   17.9783 C.3     1  UNL1        0.0528
     22 C           3.5280   -3.8789   19.1875 C.3     1  UNL1        0.0779
     23 C           4.3654   -2.6652   18.9122 C.2     1  UNL1        0.1807
     24 O           5.3828   -2.6903   17.8104 O.2     1  UNL1       -0.2908
     25 C           5.4743   -0.8269   27.4713 C.3     1  UNL1        0.0738
     26 N           5.9607   -2.1287   28.0358 N.3     1  UNL1       -0.2726
     27 C           6.2998   -3.2647   27.1166 C.3     1  UNL1        0.0721
     28 C           6.7862   -4.5666   27.6811 C.3     1  UNL1        0.0174
     29 C           6.9335   -4.7325   29.1646 C.3     1  UNL1        0.0031
     30 C           6.5944   -3.5965   30.0837 C.3     1  UNL1        0.0204
     31 C           6.1080   -2.2947   29.5192 C.3     1  UNL1        0.0724
     32 C           6.7417   -3.7625   31.5672 C.3     1  UNL1        0.0277
     33 C           6.2568   -2.6872   32.4939 C.ar    1  UNL1       -0.0220
     34 C           7.1710   -1.5629   32.8817 C.ar    1  UNL1       -0.0020
     35 C           6.6861   -0.4876   33.8084 C.ar    1  UNL1        0.0293
     36 C           5.2870   -0.5368   34.3473 C.ar    1  UNL1        0.1401
     37 F           4.8021    0.5384   35.2740 F       1  UNL1       -0.2042
     38 C           4.3730   -1.6611   33.9596 C.ar    1  UNL1        0.0293
     39 C           4.8579   -2.7363   33.0329 C.ar    1  UNL1       -0.0020
@<TRIPOS>BOND
     1    22    23    1
     2    23    24    2
     3    23    16    1
     4    16    17   ar
     5    17    18   ar
     6    18    10    1
     7    10    11   am
     8    11    12    2
     9    11    13   am
    10     1    13    1
    11     1     2    1
    12     2     3    1
    13     3     4   am
    14     4     5    1
    15     4     6    2
    16     3     7    1
    17     7     8    1
    18     8     9    1
    19     9    25    1
    20    25    26    1
    21    26    27    1
    22    27    28    1
    23    28    29    1
    24    29    30    1
    25    30    32    1
    26    32    33    1
    27    33    34   ar
    28    34    35   ar
    29    35    36   ar
    30    36    37    1
    31    36    38   ar
    32    38    39   ar
    33    30    31    1
    34    18    19   ar
    35    19    20   ar
    36    20    21    1
    37    20    16   ar
    38     9     1    1
    39    31    26    1
    40    39    33   ar
    41    10    14    1
    42    13    15    1
@<TRIPOS>MOLECULE
*****
 39 42 0 0 0
SMALL
GASTEIGER

@<TRIPOS>ATOM
      1 C          -0.9163    2.8162   24.6505 C.3     1  UNL1        0.0942
      2 C          -2.2922    3.3115   24.9847 C.3     1  UNL1        0.1129
      3 N          -2.8199    4.5558   24.3343 N.am    1  UNL1       -0.2778
      4 C          -4.1958    5.0511   24.6686 C.2     1  UNL1        0.2262
      5 C          -5.0439    4.3019   25.6533 C.3     1  UNL1        0.0948
      6 O          -4.7236    6.2954   24.0182 O.2     1  UNL1       -0.2749
      7 C          -1.9719    5.3049   23.3497 C.3     1  UNL1        0.0936
      8 C          -0.5960    4.8097   23.0154 C.3     1  UNL1        0.0246
      9 C          -0.0683    3.5654   23.6658 C.3     1  UNL1        0.0374
     10 N           0.7472    0.3972   27.3208 N.am    1  UNL1       -0.2485
     11 C           0.2194    1.6415   26.6704 C.2     1  UNL1        0.3059
     12 O           0.2995    2.9555   27.3895 O.2     1  UNL1       -0.2524
     13 N          -0.3885    1.5719   25.3009 N.am    1  UNL1       -0.2885
     14 H           0.6947   -0.4652   26.8488 H       1  UNL1        0.1583
     15 H          -0.4410    0.7095   24.8289 H       1  UNL1        0.1510
     16 C           2.7660    0.0235   30.6148 C.ar    1  UNL1        0.0803
     17 S           2.4817   -0.3829   29.1992 S.2     1  UNL1       -0.0488
     18 C           1.3551    0.4668   28.6903 C.ar    1  UNL1        0.1664
     19 N           0.9432    1.3983   29.7915 N.ar    1  UNL1       -0.2282
     20 C           1.8152    1.1244   30.9809 C.ar    1  UNL1        0.0701
     21 C           1.7481    1.8278   32.3040 C.3     1  UNL1        0.0528
     22 C           5.1739    0.0663   31.5897 C.3     1  UNL1        0.0779
     23 C           3.8167   -0.5673   31.5076 C.2     1  UNL1        0.1807
     24 O           3.5103   -1.7915   32.3182 O.2     1  UNL1       -0.2908
     25 C           1.3077    3.0701   23.3315 C.3     1  UNL1        0.0738
     26 N           1.4812    1.9198   22.3846 N.3     1  UNL1       -0.2726
     27 C           0.3030    1.3941   21.6193 C.3     1  UNL1        0.0721
     28 C           0.4765    0.2437   20.6723 C.3     1  UNL1        0.0174
     29 C           1.8282   -0.3809   20.4907 C.3     1  UNL1        0.0031
     30 C           3.0063    0.1449   21.2560 C.3     1  UNL1        0.0204
     31 C           2.8328    1.2952   22.2029 C.3     1  UNL1        0.0724
     32 C           4.3580   -0.4798   21.0744 C.3     1  UNL1        0.0277
     33 C           4.4870   -1.7956   20.3660 C.ar    1  UNL1       -0.0220
     34 C           5.0078   -1.8426   18.9600 C.ar    1  UNL1       -0.0020
     35 C           5.1368   -3.1584   18.2516 C.ar    1  UNL1        0.0293
     36 C           4.7452   -4.4273   18.9492 C.ar    1  UNL1        0.1401
     37 F           4.8742   -5.7432   18.2408 F       1  UNL1       -0.2042
     38 C           4.2245   -4.3803   20.3551 C.ar    1  UNL1        0.0293
     39 C           4.0954   -3.0645   21.0635 C.ar    1  UNL1       -0.0020
@<TRIPOS>BOND
     1    22    23    1
     2    23    24    2
     3    23    16    1
     4    16    17   ar
     5    17    18   ar
     6    18    10    1
     7    10    11   am
     8    11    12    2
     9    11    13   am
    10     1    13    1
    11     1     2    1
    12     2     3    1
    13     3     4   am
    14     4     5    1
    15     4     6    2
    16     3     7    1
    17     7     8    1
    18     8     9    1
    19     9    25    1
    20    25    26    1
    21    26    27    1
    22    27    28    1
    23    28    29    1
    24    29    30    1
    25    30    32    1
    26    32    33    1
    27    33    34   ar
    28    34    35   ar
    29    35    36   ar
    30    36    37    1
    31    36    38   ar
    32    38    39   ar
    33    30    31    1
    34    18    19   ar
    35    19    20   ar
    36    20    21    1
    37    20    16   ar
    38     9     1    1
    39    31    26    1
    40    39    33   ar
    41    10    14    1
    42    13    15    1
@<TRIPOS>MOLECULE
*****
 39 42 0 0 0
SMALL
GASTEIGER

@<TRIPOS>ATOM
      1 C           3.7005   -0.7021   30.1446 C.3     1  UNL1        0.0942
      2 C           2.2518   -0.4768   29.8277 C.3     1  UNL1        0.1129
      3 N           1.8612    0.2141   28.5549 N.am    1  UNL1       -0.2778
      4 C           0.4124    0.4394   28.2380 C.2     1  UNL1        0.2262
      5 C          -0.6457   -0.0262   29.1939 C.3     1  UNL1        0.0948
      6 O           0.0218    1.1304   26.9652 O.2     1  UNL1       -0.2749
      7 C           2.9192    0.6797   27.5991 C.3     1  UNL1        0.0936
      8 C           4.3679    0.4545   27.9160 C.3     1  UNL1        0.0246
      9 C           4.7586   -0.2365   29.1887 C.3     1  UNL1        0.0374
     10 N           4.8493   -1.2763   33.8997 N.am    1  UNL1       -0.2485
     11 C           4.4586   -0.5854   32.6269 C.2     1  UNL1        0.3059
     12 O           4.4353    0.9131   32.5636 O.2     1  UNL1       -0.2524
     13 N           4.0912   -1.3930   31.4174 N.am    1  UNL1       -0.2885
     14 H           4.8646   -2.2598   33.9413 H       1  UNL1        0.1583
     15 H           4.1065   -2.3765   31.4590 H       1  UNL1        0.1510
     16 C           5.0550    0.8895   37.1142 C.ar    1  UNL1        0.0803
     17 S           4.2563    0.1927   36.0527 S.2     1  UNL1       -0.0488
     18 C           5.2167   -0.4687   35.1092 C.ar    1  UNL1        0.1664
     19 N           6.6089   -0.1807   35.5875 N.ar    1  UNL1       -0.2282
     20 C           6.5090    0.6587   36.8266 C.ar    1  UNL1        0.0701
     21 C           7.6609    1.1763   37.6361 C.3     1  UNL1        0.0528
     22 C           4.7569    3.1530   38.3541 C.3     1  UNL1        0.0779
     23 C           4.4976    1.6785   38.2616 C.2     1  UNL1        0.1807
     24 O           3.6809    0.9930   39.3166 O.2     1  UNL1       -0.2908
     25 C           6.2073   -0.4618   29.5057 C.3     1  UNL1        0.0738
     26 N           6.7514   -1.8579   29.5759 N.3     1  UNL1       -0.2726
     27 C           7.9021   -2.1695   30.4863 C.3     1  UNL1        0.0721
     28 C           8.4462   -3.5656   30.5565 C.3     1  UNL1        0.0174
     29 C           7.8394   -4.6501   29.7163 C.3     1  UNL1        0.0031
     30 C           6.6887   -4.3385   28.8060 C.3     1  UNL1        0.0204
     31 C           6.1447   -2.9424   28.7358 C.3     1  UNL1        0.0724
     32 C           6.0820   -5.4230   27.9658 C.3     1  UNL1        0.0277
     33 C           6.7635   -5.8646   26.7047 C.ar    1  UNL1       -0.0220
     34 C           7.2573   -7.2749   26.5734 C.ar    1  UNL1       -0.0020
     35 C           7.9389   -7.7166   25.3123 C.ar    1  UNL1        0.0293
     36 C           8.1265   -6.7479   24.1824 C.ar    1  UNL1        0.1401
     37 F           8.8081   -7.1895   22.9213 F       1  UNL1       -0.2042
     38 C           7.6327   -5.3376   24.3138 C.ar    1  UNL1        0.0293
     39 C           6.9512   -4.8960   25.5749 C.ar    1  UNL1       -0.0020
@<TRIPOS>BOND
     1    22    23    1
     2    23    24    2
     3    23    16    1
     4    16    17   ar
     5    17    18   ar
     6    18    10    1
     7    10    11   am
     8    11    12    2
     9    11    13   am
    10     1    13    1
    11     1     2    1
    12     2     3    1
    13     3     4   am
    14     4     5    1
    15     4     6    2
    16     3     7    1
    17     7     8    1
    18     8     9    1
    19     9    25    1
    20    25    26    1
    21    26    27    1
    22    27    28    1
    23    28    29    1
    24    29    30    1
    25    30    32    1
    26    32    33    1
    27    33    34   ar
    28    34    35   ar
    29    35    36   ar
    30    36    37    1
    31    36    38   ar
    32    38    39   ar
    33    30    31    1
    34    18    19   ar
    35    19    20   ar
    36    20    21    1
    37    20    16   ar
    38     9     1    1
    39    31    26    1
    40    39    33   ar
    41    10    14    1
    42    13    15    1
@<TRIPOS>MOLECULE
*****
 39 42 0 0 0
SMALL
GASTEIGER

@<TRIPOS>ATOM
      1 C          -0.3312    2.2217   20.8567 C.3     1  UNL1        0.0942
      2 C          -0.9129    2.8357   22.0954 C.3     1  UNL1        0.1129
      3 N          -1.4896    4.2195   22.0467 N.am    1  UNL1       -0.2778
      4 C          -2.0714    4.8336   23.2855 C.2     1  UNL1        0.2262
      5 C          -2.0765    4.0638   24.5729 C.3     1  UNL1        0.0948
      6 O          -2.6481    6.2174   23.2369 O.2     1  UNL1       -0.2749
      7 C          -1.4846    4.9893   20.7594 C.3     1  UNL1        0.0936
      8 C          -0.9028    4.3753   19.5206 C.3     1  UNL1        0.0246
      9 C          -0.3261    2.9915   19.5693 C.3     1  UNL1        0.0374
     10 N           2.1964   -0.7666   21.5137 N.am    1  UNL1       -0.2485
     11 C           1.6196    0.6172   21.4650 C.2     1  UNL1        0.3059
     12 O           2.4169    1.7805   21.9762 O.2     1  UNL1       -0.2524
     13 N           0.2456    0.8378   20.9053 N.am    1  UNL1       -0.2885
     14 H           1.6731   -1.5301   21.1782 H       1  UNL1        0.1583
     15 H          -0.2777    0.0744   20.5698 H       1  UNL1        0.1510
     16 C           5.3972   -1.7713   23.4659 C.ar    1  UNL1        0.0803
     17 S           3.9126   -1.8363   23.2617 S.2     1  UNL1       -0.0488
     18 C           3.5704   -0.9872   22.0734 C.ar    1  UNL1        0.1664
     19 N           4.8437   -0.3975   21.5432 N.ar    1  UNL1       -0.2282
     20 C           5.9727   -0.8821   22.4037 C.ar    1  UNL1        0.0701
     21 C           7.4225   -0.5379   22.2323 C.3     1  UNL1        0.0528
     22 C           6.5510   -3.9138   24.3761 C.3     1  UNL1        0.0779
     23 C           6.1705   -2.4725   24.5431 C.2     1  UNL1        0.1807
     24 O           6.5634   -1.7324   25.7871 O.2     1  UNL1       -0.2908
     25 C           0.2557    2.3774   18.3305 C.3     1  UNL1        0.0738
     26 N           1.7005    1.9755   18.3002 N.3     1  UNL1       -0.2726
     27 C           2.7618    2.9623   18.6875 C.3     1  UNL1        0.0721
     28 C           4.2067    2.5603   18.6572 C.3     1  UNL1        0.0174
     29 C           4.5902    1.1715   18.2396 C.3     1  UNL1        0.0031
     30 C           3.5289    0.1848   17.8523 C.3     1  UNL1        0.0204
     31 C           2.0841    0.5868   17.8826 C.3     1  UNL1        0.0724
     32 C           3.9124   -1.2040   17.4346 C.3     1  UNL1        0.0277
     33 C           4.7197   -2.0685   18.3571 C.ar    1  UNL1       -0.0220
     34 C           6.2121   -1.9249   18.4051 C.ar    1  UNL1       -0.0020
     35 C           7.0194   -2.7895   19.3275 C.ar    1  UNL1        0.0293
     36 C           6.3343   -3.7975   20.2019 C.ar    1  UNL1        0.1401
     37 F           7.1415   -4.6621   21.1243 F       1  UNL1       -0.2042
     38 C           4.8419   -3.9411   20.1538 C.ar    1  UNL1        0.0293
     39 C           4.0346   -3.0765   19.2314 C.ar    1  UNL1       -0.0020
@<TRIPOS>BOND
     1    22    23    1
     2    23    24    2
     3    23    16    1
     4    16    17   ar
     5    17    18   ar
     6    18    10    1
     7    10    11   am
     8    11    12    2
     9    11    13   am
    10     1    13    1
    11     1     2    1
    12     2     3    1
    13     3     4   am
    14     4     5    1
    15     4     6    2
    16     3     7    1
    17     7     8    1
    18     8     9    1
    19     9    25    1
    20    25    26    1
    21    26    27    1
    22    27    28    1
    23    28    29    1
    24    29    30    1
    25    30    32    1
    26    32    33    1
    27    33    34   ar
    28    34    35   ar
    29    35    36   ar
    30    36    37    1
    31    36    38   ar
    32    38    39   ar
    33    30    31    1
    34    18    19   ar
    35    19    20   ar
    36    20    21    1
    37    20    16   ar
    38     9     1    1
    39    31    26    1
    40    39    33   ar
    41    10    14    1
    42    13    15    1
