@<TRIPOS>MOLECULE
*****
 31 34 0 0 0
SMALL
GASTEIGER

@<TRIPOS>ATOM
      1 N          -2.1456    4.1002   21.4083 N.am    1  UNL1       -0.2680
      2 C          -1.0896    3.4906   22.2819 C.2     1  UNL1        0.3077
      3 O          -0.9171    3.9672   23.6937 O.2     1  UNL1       -0.2522
      4 N          -0.2061    2.4043   21.7438 N.am    1  UNL1       -0.2640
      5 C          -0.2607    1.8279   20.3601 C.3     1  UNL1        0.0950
      6 C           0.7988    0.7711   20.2561 C.3     1  UNL1        0.0219
      7 C           1.4198   -0.2382   19.3367 C.3     1  UNL1        0.0061
      8 C           2.5130   -0.9389   20.0879 C.3     1  UNL1        0.0224
      9 C           2.5674   -0.3624   21.4717 C.3     1  UNL1        0.0061
     10 C           1.5080    0.6944   21.5756 C.3     1  UNL1        0.0219
     11 C           0.8869    1.7037   22.4951 C.3     1  UNL1        0.0950
     12 H          -2.2588    3.7873   20.4817 H       1  UNL1        0.1564
     13 C          -4.3027    4.8346   22.6563 C.ar    1  UNL1        0.0467
     14 C          -5.1861    5.9209   23.1943 C.ar    1  UNL1        0.1012
     15 N          -4.7960    7.3590   23.0222 N.ar    1  UNL1       -0.2422
     16 C          -3.5225    7.7109   22.3121 C.ar    1  UNL1        0.1002
     17 C          -2.6390    6.6246   21.7742 C.ar    1  UNL1        0.0354
     18 C          -3.0291    5.1865   21.9463 C.ar    1  UNL1        0.0557
     19 O          -5.0644    2.8774   24.1858 O.co2   1  UNL1       -0.5445
     20 C          -4.6928    3.3965   22.8284 C.2     1  UNL1        0.0756
     21 O          -4.7114    2.4774   21.6431 O.co2   1  UNL1       -0.5445
     22 C           3.3964   -2.0251   19.5498 C.ar    1  UNL1       -0.0186
     23 C           3.1361   -3.4554   19.9191 C.ar    1  UNL1       -0.0043
     24 C           4.0196   -4.5417   19.3811 C.ar    1  UNL1       -0.0003
     25 C           5.1634   -4.1976   18.4737 C.ar    1  UNL1       -0.0001
     26 C           5.4237   -2.7672   18.1044 C.ar    1  UNL1        0.0035
     27 C           4.5403   -1.6810   18.6424 C.ar    1  UNL1        0.0675
     28 C           4.8006   -0.2507   18.2732 C.3     1  UNL1        0.4183
     29 F           5.0609    1.1796   17.9039 F       1  UNL1       -0.1659
     30 F           3.9182   -0.4008   17.0695 F       1  UNL1       -0.1659
     31 F           5.6830   -0.1005   19.4768 F       1  UNL1       -0.1659
@<TRIPOS>UNITY_ATOM_ATTR
19 1
charge -1
@<TRIPOS>BOND
     1    19    20   ar
     2    20    21   ar
     3    20    13    1
     4    13    14   ar
     5    14    15   ar
     6    15    16   ar
     7    16    17   ar
     8    17    18   ar
     9    18     1    1
    10     1     2   am
    11     2     3    2
    12     2     4   am
    13     4     5    1
    14     6     5    1
    15     6     7    1
    16     7     8    1
    17     8    22    1
    18    22    23   ar
    19    23    24   ar
    20    24    25   ar
    21    25    26   ar
    22    26    27   ar
    23    27    28    1
    24    28    29    1
    25    28    30    1
    26    28    31    1
    27     8     9    1
    28    10     9    1
    29    10    11    1
    30    18    13   ar
    31    11     4    1
    32    10     6    1
    33    27    22   ar
    34     1    12    1
@<TRIPOS>MOLECULE
*****
 31 34 0 0 0
SMALL
GASTEIGER

@<TRIPOS>ATOM
      1 N           6.5127   -2.5187   28.0538 N.am    1  UNL1       -0.2680
      2 C           5.2267   -2.0220   27.4628 C.2     1  UNL1        0.3077
      3 O           4.0421   -1.7709   28.3481 O.2     1  UNL1       -0.2522
      4 N           5.1252   -1.7762   25.9866 N.am    1  UNL1       -0.2640
      5 C           6.2196   -1.9811   24.9814 C.3     1  UNL1        0.0950
      6 C           5.6822   -1.6140   23.6299 C.3     1  UNL1        0.0219
      7 C           6.0265   -1.5137   22.1734 C.3     1  UNL1        0.0061
      8 C           4.8128   -1.0199   21.4431 C.3     1  UNL1        0.0224
      9 C           3.7185   -0.8151   22.4484 C.3     1  UNL1        0.0061
     10 C           4.2558   -1.1822   23.7998 C.3     1  UNL1        0.0219
     11 C           3.9115   -1.2825   25.2564 C.3     1  UNL1        0.0950
     12 H           7.2902   -2.6835   27.4728 H       1  UNL1        0.1564
     13 C           6.7591   -4.1643   30.0492 C.ar    1  UNL1        0.0467
     14 C           6.8607   -4.4100   31.5254 C.ar    1  UNL1        0.1012
     15 N           6.8173   -3.2559   32.4825 N.ar    1  UNL1       -0.2422
     16 C           6.6724   -1.8560   31.9635 C.ar    1  UNL1        0.1002
     17 C           6.5709   -1.6104   30.4872 C.ar    1  UNL1        0.0354
     18 C           6.6142   -2.7645   29.5301 C.ar    1  UNL1        0.0557
     19 O           5.7930   -5.4145   27.9867 O.co2   1  UNL1       -0.5445
     20 C           6.8025   -5.3185   29.0920 C.2     1  UNL1        0.0756
     21 O           7.8553   -6.3765   29.2402 O.co2   1  UNL1       -0.5445
     22 C           4.7114   -0.7742   19.9670 C.ar    1  UNL1       -0.0186
     23 C           4.9104    0.6088   19.4214 C.ar    1  UNL1       -0.0043
     24 C           4.8089    0.8546   17.9451 C.ar    1  UNL1       -0.0003
     25 C           4.5084   -0.2827   17.0144 C.ar    1  UNL1       -0.0001
     26 C           4.3094   -1.6658   17.5600 C.ar    1  UNL1        0.0035
     27 C           4.4109   -1.9115   19.0362 C.ar    1  UNL1        0.0675
     28 C           4.2119   -3.2945   19.5817 C.3     1  UNL1        0.4183
     29 F           4.0129   -4.6775   20.1273 F       1  UNL1       -0.1659
     30 F           5.6793   -3.5657   19.4294 F       1  UNL1       -0.1659
     31 F           2.7445   -3.0233   19.7340 F       1  UNL1       -0.1659
@<TRIPOS>UNITY_ATOM_ATTR
19 1
charge -1
@<TRIPOS>BOND
     1    19    20   ar
     2    20    21   ar
     3    20    13    1
     4    13    14   ar
     5    14    15   ar
     6    15    16   ar
     7    16    17   ar
     8    17    18   ar
     9    18     1    1
    10     1     2   am
    11     2     3    2
    12     2     4   am
    13     4     5    1
    14     6     5    1
    15     6     7    1
    16     7     8    1
    17     8    22    1
    18    22    23   ar
    19    23    24   ar
    20    24    25   ar
    21    25    26   ar
    22    26    27   ar
    23    27    28    1
    24    28    29    1
    25    28    30    1
    26    28    31    1
    27     8     9    1
    28    10     9    1
    29    10    11    1
    30    18    13   ar
    31    11     4    1
    32    10     6    1
    33    27    22   ar
    34     1    12    1
@<TRIPOS>MOLECULE
*****
 31 34 0 0 0
SMALL
GASTEIGER

@<TRIPOS>ATOM
      1 N          -2.9485    2.6212   20.5555 N.am    1  UNL1       -0.2680
      2 C          -1.7279    3.3454   20.0701 C.2     1  UNL1        0.3077
      3 O          -1.8281    4.7784   19.6383 O.2     1  UNL1       -0.2522
      4 N          -0.4070    2.6366   20.0165 N.am    1  UNL1       -0.2640
      5 C          -0.1539    1.2124   20.4134 C.3     1  UNL1        0.0950
      6 C           1.3022    0.9232   20.1987 C.3     1  UNL1        0.0219
      7 C           2.3586   -0.1358   20.3114 C.3     1  UNL1        0.0061
      8 C           3.6583    0.4552   19.8515 C.3     1  UNL1        0.0224
      9 C           3.4052    1.8795   19.4545 C.3     1  UNL1        0.0061
     10 C           1.9491    2.1687   19.6692 C.3     1  UNL1        0.0219
     11 C           0.8927    3.2276   19.5565 C.3     1  UNL1        0.0950
     12 H          -2.8827    1.6807   20.8389 H       1  UNL1        0.1564
     13 C          -4.7744    3.8776   21.9110 C.ar    1  UNL1        0.0467
     14 C          -6.0954    4.5863   21.9645 C.ar    1  UNL1        0.1012
     15 N          -6.9112    4.7474   20.7162 N.ar    1  UNL1       -0.2422
     16 C          -6.4063    4.1998   19.4143 C.ar    1  UNL1        0.1002
     17 C          -5.0853    3.4910   19.3607 C.ar    1  UNL1        0.0354
     18 C          -4.2694    3.3300   20.6091 C.ar    1  UNL1        0.0557
     19 O          -4.5506    3.0404   24.3603 O.co2   1  UNL1       -0.5445
     20 C          -3.9585    3.7166   23.1594 C.2     1  UNL1        0.0756
     21 O          -2.5506    4.2317   23.2068 O.co2   1  UNL1       -0.5445
     22 C           4.9791   -0.2535   19.7979 C.ar    1  UNL1       -0.0186
     23 C           5.8956   -0.2227   20.9849 C.ar    1  UNL1       -0.0043
     24 C           7.2165   -0.9315   20.9314 C.ar    1  UNL1       -0.0003
     25 C           7.6210   -1.6711   19.6907 C.ar    1  UNL1       -0.0001
     26 C           6.7045   -1.7019   18.5035 C.ar    1  UNL1        0.0035
     27 C           5.3837   -0.9932   18.5571 C.ar    1  UNL1        0.0675
     28 C           4.4672   -1.0240   17.3700 C.3     1  UNL1        0.4183
     29 F           3.5508   -1.0548   16.1830 F       1  UNL1       -0.1659
     30 F           3.7552   -2.2098   17.9505 F       1  UNL1       -0.1659
     31 F           5.1793    0.1618   16.7896 F       1  UNL1       -0.1659
@<TRIPOS>UNITY_ATOM_ATTR
19 1
charge -1
@<TRIPOS>BOND
     1    19    20   ar
     2    20    21   ar
     3    20    13    1
     4    13    14   ar
     5    14    15   ar
     6    15    16   ar
     7    16    17   ar
     8    17    18   ar
     9    18     1    1
    10     1     2   am
    11     2     3    2
    12     2     4   am
    13     4     5    1
    14     6     5    1
    15     6     7    1
    16     7     8    1
    17     8    22    1
    18    22    23   ar
    19    23    24   ar
    20    24    25   ar
    21    25    26   ar
    22    26    27   ar
    23    27    28    1
    24    28    29    1
    25    28    30    1
    26    28    31    1
    27     8     9    1
    28    10     9    1
    29    10    11    1
    30    18    13   ar
    31    11     4    1
    32    10     6    1
    33    27    22   ar
    34     1    12    1
@<TRIPOS>MOLECULE
*****
 31 34 0 0 0
SMALL
GASTEIGER

@<TRIPOS>ATOM
      1 N          -2.6992    2.5014   20.4907 N.am    1  UNL1       -0.2680
      2 C          -1.3467    2.9894   20.9180 C.2     1  UNL1        0.3077
      3 O          -1.1812    4.3909   21.4264 O.2     1  UNL1       -0.2522
      4 N          -0.1596    2.0760   20.8368 N.am    1  UNL1       -0.2640
      5 C          -0.1710    0.6565   20.3520 C.3     1  UNL1        0.0950
      6 C           1.2288    0.1249   20.4417 C.3     1  UNL1        0.0219
      7 C           2.0869   -1.0809   20.1975 C.3     1  UNL1        0.0061
      8 C           3.4937   -0.7353   20.5869 C.3     1  UNL1        0.0224
      9 C           3.5050    0.6842   21.0717 C.3     1  UNL1        0.0061
     10 C           2.1052    1.2158   20.9819 C.3     1  UNL1        0.0219
     11 C           1.2471    2.4216   21.2261 C.3     1  UNL1        0.0950
     12 H          -2.8078    1.5816   20.1570 H       1  UNL1        0.1564
     13 C          -4.3572    4.1432   19.3481 C.ar    1  UNL1        0.0467
     14 C          -5.5443    5.0565   19.4294 C.ar    1  UNL1        0.1012
     15 N          -6.2604    5.2415   20.7344 N.ar    1  UNL1       -0.2422
     16 C          -5.7894    4.5131   21.9581 C.ar    1  UNL1        0.1002
     17 C          -4.6023    3.5998   21.8769 C.ar    1  UNL1        0.0354
     18 C          -3.8863    3.4148   20.5719 C.ar    1  UNL1        0.0557
     19 O          -2.2228    4.4229   17.8934 O.co2   1  UNL1       -0.5445
     20 C          -3.6412    3.9582   18.0431 C.2     1  UNL1        0.0756
     21 O          -4.3434    3.3085   16.8878 O.co2   1  UNL1       -0.5445
     22 C           4.6807   -1.6487   20.5057 C.ar    1  UNL1       -0.0186
     23 C           5.0518   -2.5026   21.6817 C.ar    1  UNL1       -0.0043
     24 C           6.2389   -3.4160   21.6006 C.ar    1  UNL1       -0.0003
     25 C           7.0548   -3.4756   20.3433 C.ar    1  UNL1       -0.0001
     26 C           6.6836   -2.6216   19.1672 C.ar    1  UNL1        0.0035
     27 C           5.4967   -1.7082   19.2484 C.ar    1  UNL1        0.0675
     28 C           5.1255   -0.8544   18.0723 C.3     1  UNL1        0.4183
     29 F           4.7544   -0.0005   16.8963 F       1  UNL1       -0.1659
     30 F           6.0199    0.2366   18.5822 F       1  UNL1       -0.1659
     31 F           4.2311   -1.9453   17.5625 F       1  UNL1       -0.1659
@<TRIPOS>UNITY_ATOM_ATTR
19 1
charge -1
@<TRIPOS>BOND
     1    19    20   ar
     2    20    21   ar
     3    20    13    1
     4    13    14   ar
     5    14    15   ar
     6    15    16   ar
     7    16    17   ar
     8    17    18   ar
     9    18     1    1
    10     1     2   am
    11     2     3    2
    12     2     4   am
    13     4     5    1
    14     6     5    1
    15     6     7    1
    16     7     8    1
    17     8    22    1
    18    22    23   ar
    19    23    24   ar
    20    24    25   ar
    21    25    26   ar
    22    26    27   ar
    23    27    28    1
    24    28    29    1
    25    28    30    1
    26    28    31    1
    27     8     9    1
    28    10     9    1
    29    10    11    1
    30    18    13   ar
    31    11     4    1
    32    10     6    1
    33    27    22   ar
    34     1    12    1
@<TRIPOS>MOLECULE
*****
 31 34 0 0 0
SMALL
GASTEIGER

@<TRIPOS>ATOM
      1 N          -2.0227    4.0204   20.9146 N.am    1  UNL1       -0.2680
      2 C          -1.2422    3.7199   19.6694 C.2     1  UNL1        0.3077
      3 O          -1.4298    4.5649   18.4444 O.2     1  UNL1       -0.2522
      4 N          -0.2740    2.5743   19.6493 N.am    1  UNL1       -0.2640
      5 C           0.0181    1.6466   20.7912 C.3     1  UNL1        0.0950
      6 C           1.0446    0.6543   20.3313 C.3     1  UNL1        0.0219
      7 C           1.8596   -0.5323   20.7528 C.3     1  UNL1        0.0061
      8 C           2.7056   -0.9514   19.5871 C.3     1  UNL1        0.0224
      9 C           2.4134   -0.0236   18.4452 C.3     1  UNL1        0.0061
     10 C           1.3869    0.9687   18.9051 C.3     1  UNL1        0.0219
     11 C           0.5719    2.1553   18.4836 C.3     1  UNL1        0.0950
     12 H          -1.8995    3.4658   21.7186 H       1  UNL1        0.1564
     13 C          -4.4550    4.9143   20.7279 C.ar    1  UNL1        0.0467
     14 C          -5.4231    6.0599   20.7481 C.ar    1  UNL1        0.1012
     15 N          -4.9270    7.4571   20.9753 N.ar    1  UNL1       -0.2422
     16 C          -3.4628    7.7088   21.1822 C.ar    1  UNL1        0.1002
     17 C          -2.4947    6.5632   21.1620 C.ar    1  UNL1        0.0354
     18 C          -2.9908    5.1660   20.9348 C.ar    1  UNL1        0.0557
     19 O          -4.7075    2.4574   21.5340 O.co2   1  UNL1       -0.5445
     20 C          -4.9511    3.5170   20.5007 C.2     1  UNL1        0.0756
     21 O          -5.6908    3.1795   19.2402 O.co2   1  UNL1       -0.5445
     22 C           3.6737   -2.0969   19.5670 C.ar    1  UNL1       -0.0186
     23 C           3.2074   -3.4660   19.1693 C.ar    1  UNL1       -0.0043
     24 C           4.1756   -4.6116   19.1491 C.ar    1  UNL1       -0.0003
     25 C           5.6099   -4.3881   19.5266 C.ar    1  UNL1       -0.0001
     26 C           6.0762   -3.0189   19.9243 C.ar    1  UNL1        0.0035
     27 C           5.1082   -1.8734   19.9445 C.ar    1  UNL1        0.0675
     28 C           5.5744   -0.5043   20.3422 C.3     1  UNL1        0.4183
     29 F           6.0406    0.8648   20.7398 F       1  UNL1       -0.1659
     30 F           5.2714   -0.8180   21.7773 F       1  UNL1       -0.1659
     31 F           5.8774   -0.1906   18.9070 F       1  UNL1       -0.1659
@<TRIPOS>UNITY_ATOM_ATTR
19 1
charge -1
@<TRIPOS>BOND
     1    19    20   ar
     2    20    21   ar
     3    20    13    1
     4    13    14   ar
     5    14    15   ar
     6    15    16   ar
     7    16    17   ar
     8    17    18   ar
     9    18     1    1
    10     1     2   am
    11     2     3    2
    12     2     4   am
    13     4     5    1
    14     6     5    1
    15     6     7    1
    16     7     8    1
    17     8    22    1
    18    22    23   ar
    19    23    24   ar
    20    24    25   ar
    21    25    26   ar
    22    26    27   ar
    23    27    28    1
    24    28    29    1
    25    28    30    1
    26    28    31    1
    27     8     9    1
    28    10     9    1
    29    10    11    1
    30    18    13   ar
    31    11     4    1
    32    10     6    1
    33    27    22   ar
    34     1    12    1
@<TRIPOS>MOLECULE
*****
 31 34 0 0 0
SMALL
GASTEIGER

@<TRIPOS>ATOM
      1 N           2.1163    1.3667   27.8742 N.am    1  UNL1       -0.2680
      2 C           3.0345    0.1878   27.7433 C.2     1  UNL1        0.3077
      3 O           3.6565   -0.4178   28.9666 O.2     1  UNL1       -0.2522
      4 N           3.3306   -0.3855   26.3892 N.am    1  UNL1       -0.2640
      5 C           2.7853    0.1110   25.0831 C.3     1  UNL1        0.0950
      6 C           3.3417   -0.7526   23.9902 C.3     1  UNL1        0.0219
      7 C           3.3486   -0.9795   22.5075 C.3     1  UNL1        0.0061
      8 C           4.2421   -2.1501   22.2217 C.3     1  UNL1        0.0224
      9 C           4.7874   -2.6466   23.5280 C.3     1  UNL1        0.0061
     10 C           4.2310   -1.7829   24.6209 C.3     1  UNL1        0.0219
     11 C           4.2241   -1.5560   26.1036 C.3     1  UNL1        0.0950
     12 H           1.7081    1.7642   27.0713 H       1  UNL1        0.1564
     13 C           0.4805    1.7112   29.8630 C.ar    1  UNL1        0.0467
     14 C           0.1844    2.2846   31.2171 C.ar    1  UNL1        0.1012
     15 N           1.2279    3.0869   31.9364 N.ar    1  UNL1       -0.2422
     16 C           2.5676    3.3158   31.3017 C.ar    1  UNL1        0.1002
     17 C           2.8637    2.7424   29.9476 C.ar    1  UNL1        0.0354
     18 C           1.8201    1.9401   29.2283 C.ar    1  UNL1        0.0557
     19 O          -0.8585    1.1859   27.6994 O.co2   1  UNL1       -0.5445
     20 C          -0.5630    0.9089   29.1438 C.2     1  UNL1        0.0756
     21 O          -1.3111   -0.1703   29.8688 O.co2   1  UNL1       -0.5445
     22 C           4.5382   -2.7234   20.8677 C.ar    1  UNL1       -0.0186
     23 C           3.8434   -3.9729   20.4140 C.ar    1  UNL1       -0.0043
     24 C           4.1395   -4.5463   19.0598 C.ar    1  UNL1       -0.0003
     25 C           5.1305   -3.8701   18.1595 C.ar    1  UNL1       -0.0001
     26 C           5.8253   -2.6205   18.6132 C.ar    1  UNL1        0.0035
     27 C           5.5292   -2.0472   19.9672 C.ar    1  UNL1        0.0675
     28 C           6.2240   -0.7977   20.4210 C.3     1  UNL1        0.4183
     29 F           6.9188    0.4519   20.8747 F       1  UNL1       -0.1659
     30 F           5.1387    0.0312   19.8004 F       1  UNL1       -0.1659
     31 F           7.3093   -1.6265   21.0415 F       1  UNL1       -0.1659
@<TRIPOS>UNITY_ATOM_ATTR
19 1
charge -1
@<TRIPOS>BOND
     1    19    20   ar
     2    20    21   ar
     3    20    13    1
     4    13    14   ar
     5    14    15   ar
     6    15    16   ar
     7    16    17   ar
     8    17    18   ar
     9    18     1    1
    10     1     2   am
    11     2     3    2
    12     2     4   am
    13     4     5    1
    14     6     5    1
    15     6     7    1
    16     7     8    1
    17     8    22    1
    18    22    23   ar
    19    23    24   ar
    20    24    25   ar
    21    25    26   ar
    22    26    27   ar
    23    27    28    1
    24    28    29    1
    25    28    30    1
    26    28    31    1
    27     8     9    1
    28    10     9    1
    29    10    11    1
    30    18    13   ar
    31    11     4    1
    32    10     6    1
    33    27    22   ar
    34     1    12    1
@<TRIPOS>MOLECULE
*****
 31 34 0 0 0
SMALL
GASTEIGER

@<TRIPOS>ATOM
      1 N           4.4572   -0.9078   21.5720 N.am    1  UNL1       -0.2680
      2 C           3.1185   -0.2752   21.8122 C.2     1  UNL1        0.3077
      3 O           2.1448   -0.1278   20.6807 O.2     1  UNL1       -0.2522
      4 N           2.7536    0.2100   23.1838 N.am    1  UNL1       -0.2640
      5 C           3.6192    0.1309   24.4063 C.3     1  UNL1        0.0950
      6 C           2.8595    0.7315   25.5517 C.3     1  UNL1        0.0219
      7 C           2.9249    1.0539   27.0152 C.3     1  UNL1        0.0061
      8 C           1.6303    1.7035   27.4052 C.3     1  UNL1        0.0224
      9 C           0.7647    1.7826   26.1827 C.3     1  UNL1        0.0061
     10 C           1.5244    1.1819   25.0372 C.3     1  UNL1        0.0219
     11 C           1.4590    0.8596   23.5737 C.3     1  UNL1        0.0950
     12 H           5.0963   -1.0046   22.3146 H       1  UNL1        0.1564
     13 C           4.8425   -2.8637   19.9058 C.ar    1  UNL1        0.0467
     14 C           5.2075   -3.3489   18.5342 C.ar    1  UNL1        0.1012
     15 N           5.5523   -2.3635   17.4572 N.ar    1  UNL1       -0.2422
     16 C           5.5320   -0.8928   17.7517 C.ar    1  UNL1        0.1002
     17 C           5.1670   -0.4077   19.1233 C.ar    1  UNL1        0.0354
     18 C           4.8222   -1.3931   20.2003 C.ar    1  UNL1        0.0557
     19 O           3.8087   -5.1343   20.6310 O.co2   1  UNL1       -0.5445
     20 C           4.4977   -3.8492   20.9828 C.2     1  UNL1        0.0756
     21 O           4.8419   -3.5495   22.4117 O.co2   1  UNL1       -0.5445
     22 C           1.2654    2.1887   28.7768 C.ar    1  UNL1       -0.0186
     23 C           1.9108    3.4237   29.3318 C.ar    1  UNL1       -0.0043
     24 C           1.5458    3.9090   30.7035 C.ar    1  UNL1       -0.0003
     25 C           0.5354    3.1592   31.5201 C.ar    1  UNL1       -0.0001
     26 C          -0.1100    1.9241   30.9650 C.ar    1  UNL1        0.0035
     27 C           0.2549    1.4389   29.5935 C.ar    1  UNL1        0.0675
     28 C          -0.3905    0.2038   29.0384 C.3     1  UNL1        0.4183
     29 F          -1.0359   -1.0312   28.4834 F       1  UNL1       -0.1659
     30 F          -1.5665    1.0199   28.5900 F       1  UNL1       -0.1659
     31 F           0.7855   -0.6122   29.4868 F       1  UNL1       -0.1659
@<TRIPOS>UNITY_ATOM_ATTR
19 1
charge -1
@<TRIPOS>BOND
     1    19    20   ar
     2    20    21   ar
     3    20    13    1
     4    13    14   ar
     5    14    15   ar
     6    15    16   ar
     7    16    17   ar
     8    17    18   ar
     9    18     1    1
    10     1     2   am
    11     2     3    2
    12     2     4   am
    13     4     5    1
    14     6     5    1
    15     6     7    1
    16     7     8    1
    17     8    22    1
    18    22    23   ar
    19    23    24   ar
    20    24    25   ar
    21    25    26   ar
    22    26    27   ar
    23    27    28    1
    24    28    29    1
    25    28    30    1
    26    28    31    1
    27     8     9    1
    28    10     9    1
    29    10    11    1
    30    18    13   ar
    31    11     4    1
    32    10     6    1
    33    27    22   ar
    34     1    12    1
@<TRIPOS>MOLECULE
*****
 31 34 0 0 0
SMALL
GASTEIGER

@<TRIPOS>ATOM
      1 N           7.1748   -5.0099   26.9374 N.am    1  UNL1       -0.2680
      2 C           8.0117   -4.4863   25.8080 C.2     1  UNL1        0.3077
      3 O           9.5047   -4.6227   25.8551 O.2     1  UNL1       -0.2522
      4 N           7.3556   -3.8262   24.6317 N.am    1  UNL1       -0.2640
      5 C           5.8816   -3.6191   24.4457 C.3     1  UNL1        0.0950
      6 C           5.6734   -2.9223   23.1338 C.3     1  UNL1        0.0219
      7 C           4.6337   -2.3636   22.2081 C.3     1  UNL1        0.0061
      8 C           5.3364   -1.7948   21.0111 C.3     1  UNL1        0.0224
      9 C           6.8104   -2.0019   21.1971 C.3     1  UNL1        0.0061
     10 C           7.0186   -2.6988   22.5090 C.3     1  UNL1        0.0219
     11 C           8.0583   -3.2574   23.4347 C.3     1  UNL1        0.0950
     12 H           6.1948   -4.9204   26.9064 H       1  UNL1        0.1564
     13 C           7.7271   -5.0501   29.4757 C.ar    1  UNL1        0.0467
     14 C           8.3831   -5.7102   30.6521 C.ar    1  UNL1        0.1012
     15 N           9.1428   -6.9902   30.4665 N.ar    1  UNL1       -0.2422
     16 C           9.2466   -7.6101   29.1045 C.ar    1  UNL1        0.1002
     17 C           8.5905   -6.9500   27.9282 C.ar    1  UNL1        0.0354
     18 C           7.8308   -5.6700   28.1138 C.ar    1  UNL1        0.0557
     19 O           6.1834   -3.5389   30.9192 O.co2   1  UNL1       -0.5445
     20 C           6.9673   -3.7701   29.6614 C.2     1  UNL1        0.0756
     21 O           6.9915   -2.7214   28.5892 O.co2   1  UNL1       -0.5445
     22 C           4.6803   -1.1348   19.8348 C.ar    1  UNL1       -0.0186
     23 C           4.4052    0.3396   19.8591 C.ar    1  UNL1       -0.0043
     24 C           3.7491    0.9997   18.6827 C.ar    1  UNL1       -0.0003
     25 C           3.3682    0.1854   17.4820 C.ar    1  UNL1       -0.0001
     26 C           3.6433   -1.2890   17.4576 C.ar    1  UNL1        0.0035
     27 C           4.2994   -1.9490   18.6339 C.ar    1  UNL1        0.0675
     28 C           4.5745   -3.4234   18.6096 C.3     1  UNL1        0.4183
     29 F           4.8497   -4.8977   18.5853 F       1  UNL1       -0.1659
     30 F           3.2409   -3.6828   19.2453 F       1  UNL1       -0.1659
     31 F           5.9081   -3.1640   17.9738 F       1  UNL1       -0.1659
@<TRIPOS>UNITY_ATOM_ATTR
19 1
charge -1
@<TRIPOS>BOND
     1    19    20   ar
     2    20    21   ar
     3    20    13    1
     4    13    14   ar
     5    14    15   ar
     6    15    16   ar
     7    16    17   ar
     8    17    18   ar
     9    18     1    1
    10     1     2   am
    11     2     3    2
    12     2     4   am
    13     4     5    1
    14     6     5    1
    15     6     7    1
    16     7     8    1
    17     8    22    1
    18    22    23   ar
    19    23    24   ar
    20    24    25   ar
    21    25    26   ar
    22    26    27   ar
    23    27    28    1
    24    28    29    1
    25    28    30    1
    26    28    31    1
    27     8     9    1
    28    10     9    1
    29    10    11    1
    30    18    13   ar
    31    11     4    1
    32    10     6    1
    33    27    22   ar
    34     1    12    1
@<TRIPOS>MOLECULE
*****
 31 34 0 0 0
SMALL
GASTEIGER

@<TRIPOS>ATOM
      1 N          -3.3481    2.7696   20.7459 N.am    1  UNL1       -0.2680
      2 C          -2.0234    3.2967   21.2122 C.2     1  UNL1        0.3077
      3 O          -1.9673    4.5028   22.1022 O.2     1  UNL1       -0.2522
      4 N          -0.7548    2.6176   20.7885 N.am    1  UNL1       -0.2640
      5 C          -0.6541    1.4089   19.9059 C.3     1  UNL1        0.0950
      6 C           0.7988    1.0724   19.7449 C.3     1  UNL1        0.0219
      7 C           1.7590    0.1174   19.1000 C.3     1  UNL1        0.0061
      8 C           3.1496    0.5277   19.4844 C.3     1  UNL1        0.0224
      9 C           3.0488    1.7365   20.3671 C.3     1  UNL1        0.0061
     10 C           1.5960    2.0730   20.5280 C.3     1  UNL1        0.0219
     11 C           0.6358    3.0281   21.1730 C.3     1  UNL1        0.0950
     12 H          -3.3849    1.9780   20.1617 H       1  UNL1        0.1564
     13 C          -5.3730    4.3011   20.1942 C.ar    1  UNL1        0.0467
     14 C          -6.6417    4.9800   20.6179 C.ar    1  UNL1        0.1012
     15 N          -7.1540    4.8065   22.0170 N.ar    1  UNL1       -0.2422
     16 C          -6.3977    3.9541   22.9924 C.ar    1  UNL1        0.1002
     17 C          -5.1291    3.2751   22.5686 C.ar    1  UNL1        0.0354
     18 C          -4.6168    3.4487   21.1695 C.ar    1  UNL1        0.0557
     19 O          -4.7437    3.2868   17.8865 O.co2   1  UNL1       -0.5445
     20 C          -4.8607    4.4746   18.7951 C.2     1  UNL1        0.0756
     21 O          -4.4653    5.8359   18.3046 O.co2   1  UNL1       -0.5445
     22 C           4.4182   -0.1513   19.0608 C.ar    1  UNL1       -0.0186
     23 C           5.1280    0.2943   17.8167 C.ar    1  UNL1       -0.0043
     24 C           6.3966   -0.3848   17.3930 C.ar    1  UNL1       -0.0003
     25 C           6.9554   -1.5093   18.2133 C.ar    1  UNL1       -0.0001
     26 C           6.2456   -1.9549   19.4575 C.ar    1  UNL1        0.0035
     27 C           4.9771   -1.2759   19.8811 C.ar    1  UNL1        0.0675
     28 C           4.2673   -1.7214   21.1252 C.3     1  UNL1        0.4183
     29 F           3.5575   -2.1669   22.3692 F       1  UNL1       -0.1659
     30 F           3.4495   -2.6826   20.3144 F       1  UNL1       -0.1659
     31 F           5.0850   -0.7602   21.9360 F       1  UNL1       -0.1659
@<TRIPOS>UNITY_ATOM_ATTR
19 1
charge -1
@<TRIPOS>BOND
     1    19    20   ar
     2    20    21   ar
     3    20    13    1
     4    13    14   ar
     5    14    15   ar
     6    15    16   ar
     7    16    17   ar
     8    17    18   ar
     9    18     1    1
    10     1     2   am
    11     2     3    2
    12     2     4   am
    13     4     5    1
    14     6     5    1
    15     6     7    1
    16     7     8    1
    17     8    22    1
    18    22    23   ar
    19    23    24   ar
    20    24    25   ar
    21    25    26   ar
    22    26    27   ar
    23    27    28    1
    24    28    29    1
    25    28    30    1
    26    28    31    1
    27     8     9    1
    28    10     9    1
    29    10    11    1
    30    18    13   ar
    31    11     4    1
    32    10     6    1
    33    27    22   ar
    34     1    12    1
