@<TRIPOS>MOLECULE
*****
 23 25 0 0 0
SMALL
GASTEIGER

@<TRIPOS>ATOM
      1 C          -8.7983  -17.1011   22.5755 C.3     1  UNL1        0.0847
      2 N          -8.0316  -18.1364   21.8071 N.3     1  UNL1       -0.2676
      3 C          -8.6341  -18.7612   20.5837 C.3     1  UNL1        0.0896
      4 C          -7.8674  -19.7964   19.8153 C.3     1  UNL1        0.0862
      5 N          -6.4984  -20.2070   20.2703 N.3     1  UNL1       -0.2951
      6 C          -5.8959  -19.5822   21.4937 C.3     1  UNL1        0.0862
      7 C          -6.6625  -18.5469   22.2621 C.3     1  UNL1        0.0896
      8 H          -5.8612  -20.0147   19.4973 H       1  UNL1        0.1233
      9 C         -10.2369  -17.3401   22.9263 C.ar    1  UNL1       -0.0075
     10 C         -10.5998  -18.4023   23.9213 C.ar    1  UNL1       -0.0030
     11 C         -12.0386  -18.6413   24.2720 C.ar    1  UNL1       -0.0003
     12 C         -13.1144  -17.8182   23.6277 C.ar    1  UNL1       -0.0000
     13 C         -12.7514  -16.7560   22.6327 C.ar    1  UNL1       -0.0003
     14 C         -11.3128  -16.5170   22.2819 C.ar    1  UNL1       -0.0030
     15 C          -8.1262  -15.8268   22.9932 C.3     1  UNL1        0.0499
     16 C          -6.1641  -15.5171   24.6678 C.ar    1  UNL1        0.1347
     17 C          -5.6705  -15.3558   26.0750 C.ar    1  UNL1        0.0366
     18 C          -6.6454  -15.3429   27.2149 C.ar    1  UNL1        0.0031
     19 C          -8.1139  -15.4913   26.9476 C.ar    1  UNL1       -0.0001
     20 C          -8.6075  -15.6526   25.5404 C.ar    1  UNL1       -0.0012
     21 C          -7.6326  -15.6655   24.4005 C.ar    1  UNL1        0.0135
     22 C          -4.0950  -16.5553   23.4884 C.3     1  UNL1        0.2525
     23 O          -5.1892  -15.5300   23.5279 O.3     1  UNL1       -0.4717
@<TRIPOS>BOND
     1    22    23    1
     2    23    16    1
     3    16    17   ar
     4    17    18   ar
     5    18    19   ar
     6    19    20   ar
     7    20    21   ar
     8    21    15    1
     9    15     1    1
    10     1     9    1
    11     9    10   ar
    12    10    11   ar
    13    11    12   ar
    14    12    13   ar
    15    13    14   ar
    16     1     2    1
    17     2     3    1
    18     3     4    1
    19     4     5    1
    20     5     6    1
    21     6     7    1
    22    21    16   ar
    23    14     9   ar
    24     7     2    1
    25     5     8    1
@<TRIPOS>MOLECULE
*****
 23 25 0 0 0
SMALL
GASTEIGER

@<TRIPOS>ATOM
      1 C          -8.7034  -17.0965   22.4835 C.3     1  UNL1        0.0847
      2 N         -10.1656  -17.2478   22.7824 N.3     1  UNL1       -0.2676
      3 C         -10.6317  -18.3187   23.7236 C.3     1  UNL1        0.0896
      4 C         -12.0937  -18.4702   24.0226 C.3     1  UNL1        0.0862
      5 N         -13.0897  -17.5507   23.3803 N.3     1  UNL1       -0.2951
      6 C         -12.6236  -16.4798   22.4391 C.3     1  UNL1        0.0862
      7 C         -11.1615  -16.3284   22.1401 C.3     1  UNL1        0.0896
      8 H         -13.5878  -17.0815   24.1367 H       1  UNL1        0.1233
      9 C          -7.9686  -18.1870   21.7620 C.ar    1  UNL1       -0.0075
     10 C          -8.5244  -18.7500   20.4875 C.ar    1  UNL1       -0.0030
     11 C          -7.7895  -19.8406   19.7660 C.ar    1  UNL1       -0.0003
     12 C          -6.4988  -20.3682   20.3189 C.ar    1  UNL1       -0.0000
     13 C          -5.9430  -19.8053   21.5934 C.ar    1  UNL1       -0.0003
     14 C          -6.6779  -18.7147   22.3149 C.ar    1  UNL1       -0.0030
     15 C          -7.9762  -15.8545   22.9061 C.3     1  UNL1        0.0499
     16 C          -6.0537  -15.5997   24.6351 C.ar    1  UNL1        0.1347
     17 C          -5.5957  -15.4454   26.0550 C.ar    1  UNL1        0.0366
     18 C          -6.6020  -15.3913   27.1660 C.ar    1  UNL1        0.0031
     19 C          -8.0664  -15.4916   26.8570 C.ar    1  UNL1       -0.0001
     20 C          -8.5245  -15.6460   25.4371 C.ar    1  UNL1       -0.0012
     21 C          -7.5181  -15.7001   24.3261 C.ar    1  UNL1        0.0135
     22 C          -4.0428  -16.7667   23.4755 C.3     1  UNL1        0.2525
     23 O          -5.0474  -15.6538   23.5240 O.3     1  UNL1       -0.4717
@<TRIPOS>BOND
     1    22    23    1
     2    23    16    1
     3    16    17   ar
     4    17    18   ar
     5    18    19   ar
     6    19    20   ar
     7    20    21   ar
     8    21    15    1
     9    15     1    1
    10     1     9    1
    11     9    10   ar
    12    10    11   ar
    13    11    12   ar
    14    12    13   ar
    15    13    14   ar
    16     1     2    1
    17     2     3    1
    18     3     4    1
    19     4     5    1
    20     5     6    1
    21     6     7    1
    22    21    16   ar
    23    14     9   ar
    24     7     2    1
    25     5     8    1
@<TRIPOS>MOLECULE
*****
 23 25 0 0 0
SMALL
GASTEIGER

@<TRIPOS>ATOM
      1 C          -8.6139  -16.6773   23.4486 C.3     1  UNL1        0.0847
      2 N          -7.9409  -16.1184   24.6671 N.3     1  UNL1       -0.2676
      3 C          -8.7178  -15.9407   25.9379 C.3     1  UNL1        0.0896
      4 C          -8.0449  -15.3818   27.1564 C.3     1  UNL1        0.0862
      5 N          -6.5951  -15.0006   27.1041 N.3     1  UNL1       -0.2951
      6 C          -5.8183  -15.1782   25.8334 C.3     1  UNL1        0.0862
      7 C          -6.4912  -15.7371   24.6149 C.3     1  UNL1        0.0896
      8 H          -6.1199  -15.5512   27.8192 H       1  UNL1        0.1233
      9 C         -10.0328  -17.1571   23.5290 C.ar    1  UNL1       -0.0075
     10 C         -11.1178  -16.4142   22.8072 C.ar    1  UNL1       -0.0030
     11 C         -12.5367  -16.8941   22.8877 C.ar    1  UNL1       -0.0003
     12 C         -12.8706  -18.1167   23.6899 C.ar    1  UNL1       -0.0000
     13 C         -11.7856  -18.8596   24.4117 C.ar    1  UNL1       -0.0003
     14 C         -10.3667  -18.3798   24.3312 C.ar    1  UNL1       -0.0030
     15 C          -7.8679  -16.7564   22.1496 C.3     1  UNL1        0.0499
     16 C          -7.9366  -18.8973   20.6793 C.ar    1  UNL1        0.1347
     17 C          -7.3226  -20.1951   20.2449 C.ar    1  UNL1        0.0366
     18 C          -6.0260  -20.6498   20.8464 C.ar    1  UNL1        0.0031
     19 C          -5.3433  -19.8067   21.8823 C.ar    1  UNL1       -0.0001
     20 C          -5.9572  -18.5089   22.3167 C.ar    1  UNL1       -0.0012
     21 C          -7.2539  -18.0542   21.7152 C.ar    1  UNL1        0.0135
     22 C         -10.5055  -19.1684   20.4014 C.3     1  UNL1        0.2525
     23 O          -9.2333  -18.4425   20.0778 O.3     1  UNL1       -0.4717
@<TRIPOS>BOND
     1    22    23    1
     2    23    16    1
     3    16    17   ar
     4    17    18   ar
     5    18    19   ar
     6    19    20   ar
     7    20    21   ar
     8    21    15    1
     9    15     1    1
    10     1     9    1
    11     9    10   ar
    12    10    11   ar
    13    11    12   ar
    14    12    13   ar
    15    13    14   ar
    16     1     2    1
    17     2     3    1
    18     3     4    1
    19     4     5    1
    20     5     6    1
    21     6     7    1
    22    21    16   ar
    23    14     9   ar
    24     7     2    1
    25     5     8    1
@<TRIPOS>MOLECULE
*****
 23 25 0 0 0
SMALL
GASTEIGER

@<TRIPOS>ATOM
      1 C          -8.6207  -16.7132   23.4979 C.3     1  UNL1        0.0847
      2 N         -10.0479  -17.1732   23.5378 N.3     1  UNL1       -0.2676
      3 C         -11.1040  -16.4062   22.7986 C.3     1  UNL1        0.0896
      4 C         -12.5312  -16.8661   22.8385 C.3     1  UNL1        0.0862
      5 N         -12.9022  -18.0930   23.6177 N.3     1  UNL1       -0.2951
      6 C         -11.8461  -18.8600   24.3569 C.3     1  UNL1        0.0862
      7 C         -10.4190  -18.4000   24.3169 C.3     1  UNL1        0.0896
      8 H         -13.3303  -18.7425   22.9579 H       1  UNL1        0.1233
      9 C          -7.9600  -16.2088   24.7465 C.ar    1  UNL1       -0.0075
     10 C          -6.5381  -15.7330   24.7030 C.ar    1  UNL1       -0.0030
     11 C          -5.8775  -15.2286   25.9517 C.ar    1  UNL1       -0.0003
     12 C          -6.6387  -15.2000   27.2438 C.ar    1  UNL1       -0.0000
     13 C          -8.0606  -15.6757   27.2873 C.ar    1  UNL1       -0.0003
     14 C          -8.7213  -16.1801   26.0387 C.ar    1  UNL1       -0.0030
     15 C          -7.8542  -16.7576   22.2093 C.3     1  UNL1        0.0499
     16 C          -7.9513  -18.8862   20.7226 C.ar    1  UNL1        0.1347
     17 C          -7.3405  -20.1747   20.2574 C.ar    1  UNL1        0.0366
     18 C          -6.0217  -20.6234   20.8136 C.ar    1  UNL1        0.0031
     19 C          -5.3137  -19.7835   21.8350 C.ar    1  UNL1       -0.0001
     20 C          -5.9245  -18.4949   22.3003 C.ar    1  UNL1       -0.0012
     21 C          -7.2433  -18.0463   21.7440 C.ar    1  UNL1        0.0135
     22 C         -10.5102  -19.2359   20.4400 C.3     1  UNL1        0.2525
     23 O          -9.2702  -18.4375   20.1664 O.3     1  UNL1       -0.4717
@<TRIPOS>BOND
     1    22    23    1
     2    23    16    1
     3    16    17   ar
     4    17    18   ar
     5    18    19   ar
     6    19    20   ar
     7    20    21   ar
     8    21    15    1
     9    15     1    1
    10     1     9    1
    11     9    10   ar
    12    10    11   ar
    13    11    12   ar
    14    12    13   ar
    15    13    14   ar
    16     1     2    1
    17     2     3    1
    18     3     4    1
    19     4     5    1
    20     5     6    1
    21     6     7    1
    22    21    16   ar
    23    14     9   ar
    24     7     2    1
    25     5     8    1
@<TRIPOS>MOLECULE
*****
 23 25 0 0 0
SMALL
GASTEIGER

@<TRIPOS>ATOM
      1 C          -7.7099  -16.6298   23.1020 C.3     1  UNL1        0.0847
      2 N          -6.9235  -17.7239   22.4426 N.3     1  UNL1       -0.2676
      3 C          -7.5429  -18.5346   21.3431 C.3     1  UNL1        0.0896
      4 C          -6.7566  -19.6286   20.6837 C.3     1  UNL1        0.0862
      5 N          -5.3509  -19.9119   21.1239 N.3     1  UNL1       -0.2951
      6 C          -4.7315  -19.1011   22.2235 C.3     1  UNL1        0.0862
      7 C          -5.5178  -18.0071   22.8828 C.3     1  UNL1        0.0896
      8 H          -4.7565  -19.7973   20.3029 H       1  UNL1        0.1233
      9 C          -7.3239  -16.1480   24.4691 C.ar    1  UNL1       -0.0075
     10 C          -5.9621  -15.5638   24.7016 C.ar    1  UNL1       -0.0030
     11 C          -5.5761  -15.0820   26.0688 C.ar    1  UNL1       -0.0003
     12 C          -6.5520  -15.1843   27.2032 C.ar    1  UNL1       -0.0000
     13 C          -7.9139  -15.7685   26.9707 C.ar    1  UNL1       -0.0003
     14 C          -8.2999  -16.2503   25.6036 C.ar    1  UNL1       -0.0030
     15 C          -8.8822  -16.0176   22.3943 C.3     1  UNL1        0.0499
     16 C         -11.1252  -16.6470   21.2442 C.ar    1  UNL1        0.1347
     17 C         -12.4646  -17.3207   21.2905 C.ar    1  UNL1        0.0366
     18 C         -12.9004  -18.0386   22.5333 C.ar    1  UNL1        0.0031
     19 C         -11.9968  -18.0829   23.7297 C.ar    1  UNL1       -0.0001
     20 C         -10.6574  -17.4093   23.6834 C.ar    1  UNL1       -0.0012
     21 C         -10.2216  -16.6913   22.4406 C.ar    1  UNL1        0.0135
     22 C         -11.7091  -15.4861   18.9944 C.3     1  UNL1        0.2525
     23 O         -10.6894  -15.9290   20.0013 O.3     1  UNL1       -0.4717
@<TRIPOS>BOND
     1    22    23    1
     2    23    16    1
     3    16    17   ar
     4    17    18   ar
     5    18    19   ar
     6    19    20   ar
     7    20    21   ar
     8    21    15    1
     9    15     1    1
    10     1     9    1
    11     9    10   ar
    12    10    11   ar
    13    11    12   ar
    14    12    13   ar
    15    13    14   ar
    16     1     2    1
    17     2     3    1
    18     3     4    1
    19     4     5    1
    20     5     6    1
    21     6     7    1
    22    21    16   ar
    23    14     9   ar
    24     7     2    1
    25     5     8    1
@<TRIPOS>MOLECULE
*****
 23 25 0 0 0
SMALL
GASTEIGER

@<TRIPOS>ATOM
      1 C          -9.1744  -17.9774   23.6000 C.3     1  UNL1        0.0847
      2 N          -8.3210  -16.8877   24.1781 N.3     1  UNL1       -0.2676
      3 C          -8.6231  -16.3426   25.5425 C.3     1  UNL1        0.0896
      4 C          -7.7698  -15.2528   26.1207 C.3     1  UNL1        0.0862
      5 N          -6.6143  -14.7082   25.3344 N.3     1  UNL1       -0.2951
      6 C          -6.3122  -15.2533   23.9700 C.3     1  UNL1        0.0862
      7 C          -7.1656  -16.3430   23.3919 C.3     1  UNL1        0.0896
      8 H          -5.7785  -14.8527   25.9009 H       1  UNL1        0.1233
      9 C         -10.6694  -17.8698   23.6580 C.ar    1  UNL1       -0.0075
     10 C         -11.4531  -18.7851   24.5514 C.ar    1  UNL1       -0.0030
     11 C         -12.9482  -18.6775   24.6094 C.ar    1  UNL1       -0.0003
     12 C         -13.6594  -17.6546   23.7740 C.ar    1  UNL1       -0.0000
     13 C         -12.8757  -16.7393   22.8807 C.ar    1  UNL1       -0.0003
     14 C         -11.3807  -16.8469   22.8227 C.ar    1  UNL1       -0.0030
     15 C          -8.5328  -19.1748   22.9639 C.3     1  UNL1        0.0499
     16 C          -7.4730  -19.5062   20.6150 C.ar    1  UNL1        0.1347
     17 C          -7.6272  -19.7460   19.1424 C.ar    1  UNL1        0.0366
     18 C          -8.9954  -19.8942   18.5459 C.ar    1  UNL1        0.0031
     19 C         -10.2095  -19.8026   19.4221 C.ar    1  UNL1       -0.0001
     20 C         -10.0553  -19.5628   20.8947 C.ar    1  UNL1       -0.0012
     21 C          -8.6870  -19.4146   21.4912 C.ar    1  UNL1        0.0135
     22 C          -4.9033  -19.2636   20.3184 C.3     1  UNL1        0.2525
     23 O          -6.1046  -19.3579   21.2116 O.3     1  UNL1       -0.4717
@<TRIPOS>BOND
     1    22    23    1
     2    23    16    1
     3    16    17   ar
     4    17    18   ar
     5    18    19   ar
     6    19    20   ar
     7    20    21   ar
     8    21    15    1
     9    15     1    1
    10     1     9    1
    11     9    10   ar
    12    10    11   ar
    13    11    12   ar
    14    12    13   ar
    15    13    14   ar
    16     1     2    1
    17     2     3    1
    18     3     4    1
    19     4     5    1
    20     5     6    1
    21     6     7    1
    22    21    16   ar
    23    14     9   ar
    24     7     2    1
    25     5     8    1
@<TRIPOS>MOLECULE
*****
 23 25 0 0 0
SMALL
GASTEIGER

@<TRIPOS>ATOM
      1 C          -8.5380  -16.6109   23.5700 C.3     1  UNL1        0.0847
      2 N          -7.9259  -16.0469   24.8179 N.3     1  UNL1       -0.2676
      3 C          -6.4814  -15.6428   24.8283 C.3     1  UNL1        0.0896
      4 C          -5.8693  -15.0788   26.0761 C.3     1  UNL1        0.0862
      5 N          -6.7017  -14.9189   27.3136 N.3     1  UNL1       -0.2951
      6 C          -8.1462  -15.3230   27.3033 C.3     1  UNL1        0.0862
      7 C          -8.7583  -15.8870   26.0554 C.3     1  UNL1        0.0896
      8 H          -6.6744  -13.9297   27.5611 H       1  UNL1        0.1233
      9 C          -9.9500  -17.1166   23.5896 C.ar    1  UNL1       -0.0075
     10 C         -11.0174  -16.3906   22.8257 C.ar    1  UNL1       -0.0030
     11 C         -12.4295  -16.8964   22.8453 C.ar    1  UNL1       -0.0003
     12 C         -12.7741  -18.1281   23.6289 C.ar    1  UNL1       -0.0000
     13 C         -11.7067  -18.8541   24.3928 C.ar    1  UNL1       -0.0003
     14 C         -10.2947  -18.3484   24.3732 C.ar    1  UNL1       -0.0030
     15 C          -7.7380  -16.6691   22.3024 C.3     1  UNL1        0.0499
     16 C          -5.8144  -18.4074   22.1334 C.ar    1  UNL1        0.1347
     17 C          -5.2920  -19.7225   21.6360 C.ar    1  UNL1        0.0366
     18 C          -6.1708  -20.6147   20.8103 C.ar    1  UNL1        0.0031
     19 C          -7.5719  -20.1917   20.4820 C.ar    1  UNL1       -0.0001
     20 C          -8.0943  -18.8765   20.9793 C.ar    1  UNL1       -0.0012
     21 C          -7.2156  -17.9844   21.8050 C.ar    1  UNL1        0.0135
     22 C          -3.5843  -17.9936   23.4004 C.3     1  UNL1        0.2525
     23 O          -4.9357  -17.5151   22.9591 O.3     1  UNL1       -0.4717
@<TRIPOS>BOND
     1    22    23    1
     2    23    16    1
     3    16    17   ar
     4    17    18   ar
     5    18    19   ar
     6    19    20   ar
     7    20    21   ar
     8    21    15    1
     9    15     1    1
    10     1     9    1
    11     9    10   ar
    12    10    11   ar
    13    11    12   ar
    14    12    13   ar
    15    13    14   ar
    16     1     2    1
    17     2     3    1
    18     3     4    1
    19     4     5    1
    20     5     6    1
    21     6     7    1
    22    21    16   ar
    23    14     9   ar
    24     7     2    1
    25     5     8    1
@<TRIPOS>MOLECULE
*****
 23 25 0 0 0
SMALL
GASTEIGER

@<TRIPOS>ATOM
      1 C          -8.5921  -16.6872   23.5919 C.3     1  UNL1        0.0847
      2 N         -10.0170  -17.1563   23.5854 N.3     1  UNL1       -0.2676
      3 C         -11.0498  -16.4064   22.7973 C.3     1  UNL1        0.0896
      4 C         -12.4745  -16.8754   22.7907 C.3     1  UNL1        0.0862
      5 N         -12.8664  -18.0943   23.5722 N.3     1  UNL1       -0.2951
      6 C         -11.8336  -18.8442   24.3602 C.3     1  UNL1        0.0862
      7 C         -10.4089  -18.3751   24.3668 C.3     1  UNL1        0.0896
      8 H         -13.2657  -18.7554   22.9059 H       1  UNL1        0.1233
      9 C          -7.9685  -16.2009   24.8665 C.ar    1  UNL1       -0.0075
     10 C          -8.7239  -16.3045   26.1583 C.ar    1  UNL1       -0.0030
     11 C          -8.1002  -15.8182   27.4329 C.ar    1  UNL1       -0.0003
     12 C          -6.7212  -15.2283   27.4157 C.ar    1  UNL1       -0.0000
     13 C          -5.9658  -15.1247   26.1239 C.ar    1  UNL1       -0.0003
     14 C          -6.5894  -15.6110   24.8493 C.ar    1  UNL1       -0.0030
     15 C          -7.7910  -16.7044   22.3239 C.3     1  UNL1        0.0499
     16 C          -5.8553  -18.4243   22.1118 C.ar    1  UNL1        0.1347
     17 C          -5.3224  -19.7212   21.5790 C.ar    1  UNL1        0.0366
     18 C          -6.1925  -20.5953   20.7252 C.ar    1  UNL1        0.0031
     19 C          -7.5954  -20.1724   20.4043 C.ar    1  UNL1       -0.0001
     20 C          -8.1283  -18.8755   20.9372 C.ar    1  UNL1       -0.0012
     21 C          -7.2582  -18.0014   21.7910 C.ar    1  UNL1        0.0135
     22 C          -3.5810  -17.9712   23.2834 C.3     1  UNL1        0.2525
     23 O          -4.9852  -17.5502   22.9656 O.3     1  UNL1       -0.4717
@<TRIPOS>BOND
     1    22    23    1
     2    23    16    1
     3    16    17   ar
     4    17    18   ar
     5    18    19   ar
     6    19    20   ar
     7    20    21   ar
     8    21    15    1
     9    15     1    1
    10     1     9    1
    11     9    10   ar
    12    10    11   ar
    13    11    12   ar
    14    12    13   ar
    15    13    14   ar
    16     1     2    1
    17     2     3    1
    18     3     4    1
    19     4     5    1
    20     5     6    1
    21     6     7    1
    22    21    16   ar
    23    14     9   ar
    24     7     2    1
    25     5     8    1
@<TRIPOS>MOLECULE
*****
 23 25 0 0 0
SMALL
GASTEIGER

@<TRIPOS>ATOM
      1 C          -8.6602  -17.9335   22.7875 C.3     1  UNL1        0.0847
      2 N          -9.8979  -17.5606   22.0264 N.3     1  UNL1       -0.2676
      3 C         -11.0434  -18.5250   21.9385 C.3     1  UNL1        0.0896
      4 C         -12.2810  -18.1521   21.1775 C.3     1  UNL1        0.0862
      5 N         -12.3731  -16.8148   20.5044 N.3     1  UNL1       -0.2951
      6 C         -11.2277  -15.8504   20.5922 C.3     1  UNL1        0.0862
      7 C          -9.9900  -16.2233   21.3533 C.3     1  UNL1        0.0896
      8 H         -13.1868  -16.3423   20.8983 H       1  UNL1        0.1233
      9 C          -8.1068  -17.0001   23.8230 C.ar    1  UNL1       -0.0075
     10 C          -6.8175  -16.2768   23.5685 C.ar    1  UNL1       -0.0030
     11 C          -6.2641  -15.3434   24.6041 C.ar    1  UNL1       -0.0003
     12 C          -6.9999  -15.1332   25.8942 C.ar    1  UNL1       -0.0000
     13 C          -8.2891  -15.8564   26.1487 C.ar    1  UNL1       -0.0003
     14 C          -8.8426  -16.7899   25.1132 C.ar    1  UNL1       -0.0030
     15 C          -7.9760  -19.2398   22.5129 C.3     1  UNL1        0.0499
     16 C          -6.7060  -19.0790   20.2521 C.ar    1  UNL1        0.1347
     17 C          -5.4205  -19.1046   19.4796 C.ar    1  UNL1        0.0366
     18 C          -4.1195  -19.3164   20.1953 C.ar    1  UNL1        0.0031
     19 C          -4.1039  -19.5027   21.6836 C.ar    1  UNL1       -0.0001
     20 C          -5.3894  -19.4772   22.4562 C.ar    1  UNL1       -0.0012
     21 C          -6.6905  -19.2654   21.7404 C.ar    1  UNL1        0.0135
     22 C          -8.7506  -20.0399   18.9688 C.3     1  UNL1        0.2525
     23 O          -8.0072  -18.8672   19.5363 O.3     1  UNL1       -0.4717
@<TRIPOS>BOND
     1    22    23    1
     2    23    16    1
     3    16    17   ar
     4    17    18   ar
     5    18    19   ar
     6    19    20   ar
     7    20    21   ar
     8    21    15    1
     9    15     1    1
    10     1     9    1
    11     9    10   ar
    12    10    11   ar
    13    11    12   ar
    14    12    13   ar
    15    13    14   ar
    16     1     2    1
    17     2     3    1
    18     3     4    1
    19     4     5    1
    20     5     6    1
    21     6     7    1
    22    21    16   ar
    23    14     9   ar
    24     7     2    1
    25     5     8    1
