@<TRIPOS>MOLECULE
*****
 19 21 0 0 0
SMALL
GASTEIGER

@<TRIPOS>ATOM
      1 C          -6.1698  -20.7609   20.5515 C.3     1  UNL1        0.0065
      2 C          -6.7741  -19.6104   21.3006 C.3     1  UNL1        0.0427
      3 C          -8.2587  -19.3976   21.2780 C.3     1  UNL1        0.1028
      4 N          -8.8629  -18.2471   22.0272 N.am    1  UNL1       -0.2534
      5 C          -7.9826  -17.3094   22.7989 C.2     1  UNL1        0.2525
      6 O          -8.5868  -16.1589   23.5480 O.2     1  UNL1       -0.2696
      7 C          -6.4979  -17.5222   22.8215 C.ar    1  UNL1        0.0500
      8 C          -5.6175  -16.5844   23.5932 C.ar    1  UNL1        0.0051
      9 C          -4.1329  -16.7972   23.6158 C.ar    1  UNL1        0.0115
     10 C          -3.5286  -17.9477   22.8666 C.ar    1  UNL1        0.0574
     11 CL         -2.0439  -18.1605   22.8893 Cl      1  UNL1       -0.0823
     12 C          -4.4090  -18.8855   22.0949 C.ar    1  UNL1        0.0073
     13 C          -5.8936  -18.6727   22.0724 C.ar    1  UNL1       -0.0156
     14 C         -10.3477  -18.0344   22.0045 C.ar    1  UNL1        0.0733
     15 C         -11.1647  -18.3179   23.2301 C.ar    1  UNL1        0.0181
     16 C         -12.6493  -18.1051   23.2074 C.ar    1  UNL1        0.0220
     17 C         -13.3169  -17.6088   21.9592 C.ar    1  UNL1        0.0990
     18 N         -12.4999  -17.3253   20.7337 N.ar    1  UNL1       -0.2410
     19 C         -11.0152  -17.5381   20.7563 C.ar    1  UNL1        0.1137
@<TRIPOS>BOND
     1     1     2    1
     2     2     3    1
     3     3     4    1
     4     4    14    1
     5    14    15   ar
     6    15    16   ar
     7    16    17   ar
     8    17    18   ar
     9    18    19   ar
    10     4     5   am
    11     5     6    2
    12     5     7    1
    13     7     8   ar
    14     8     9   ar
    15     9    10   ar
    16    10    11    1
    17    10    12   ar
    18    12    13   ar
    19    13     2    1
    20    19    14   ar
    21    13     7   ar
@<TRIPOS>MOLECULE
*****
 19 21 0 0 0
SMALL
GASTEIGER

@<TRIPOS>ATOM
      1 C          -8.0959  -20.3352   18.6746 C.3     1  UNL1        0.0065
      2 C          -8.1363  -19.6178   19.9913 C.3     1  UNL1        0.0427
      3 C          -9.4547  -19.2513   20.6056 C.3     1  UNL1        0.1028
      4 N          -9.4951  -18.5339   21.9223 N.am    1  UNL1       -0.2534
      5 C          -8.2171  -18.1831   22.6248 C.2     1  UNL1        0.2525
      6 O          -8.2575  -17.4657   23.9415 O.2     1  UNL1       -0.2696
      7 C          -6.8986  -18.5496   22.0105 C.ar    1  UNL1        0.0500
      8 C          -5.6205  -18.1987   22.7129 C.ar    1  UNL1        0.0051
      9 C          -4.3021  -18.5652   22.0987 C.ar    1  UNL1        0.0115
     10 C          -4.2617  -19.2826   20.7819 C.ar    1  UNL1        0.0574
     11 CL         -2.9432  -19.6491   20.1677 Cl      1  UNL1       -0.0823
     12 C          -5.5398  -19.6335   20.0795 C.ar    1  UNL1        0.0073
     13 C          -6.8582  -19.2670   20.6938 C.ar    1  UNL1       -0.0156
     14 C         -10.8136  -18.1674   22.5366 C.ar    1  UNL1        0.0733
     15 C         -11.6019  -17.0150   21.9884 C.ar    1  UNL1        0.0181
     16 C         -12.9204  -16.6486   22.6027 C.ar    1  UNL1        0.0220
     17 C         -13.4505  -17.4345   23.7651 C.ar    1  UNL1        0.0990
     18 N         -12.6622  -18.5869   24.3133 N.ar    1  UNL1       -0.2410
     19 C         -11.3438  -18.9534   23.6990 C.ar    1  UNL1        0.1137
@<TRIPOS>BOND
     1     1     2    1
     2     2     3    1
     3     3     4    1
     4     4    14    1
     5    14    15   ar
     6    15    16   ar
     7    16    17   ar
     8    17    18   ar
     9    18    19   ar
    10     4     5   am
    11     5     6    2
    12     5     7    1
    13     7     8   ar
    14     8     9   ar
    15     9    10   ar
    16    10    11    1
    17    10    12   ar
    18    12    13   ar
    19    13     2    1
    20    19    14   ar
    21    13     7   ar
@<TRIPOS>MOLECULE
*****
 19 21 0 0 0
SMALL
GASTEIGER

@<TRIPOS>ATOM
      1 C         -14.8372   -3.3593   20.0852 C.3     1  UNL1        0.0065
      2 C         -14.7950   -4.7847   19.6199 C.3     1  UNL1        0.0427
      3 C         -16.0634   -5.5792   19.5207 C.3     1  UNL1        0.1028
      4 N         -16.0212   -7.0045   19.0554 N.am    1  UNL1       -0.2534
      5 C         -14.7106   -7.6355   18.6893 C.2     1  UNL1        0.2525
      6 O         -14.6684   -9.0609   18.2240 O.2     1  UNL1       -0.2696
      7 C         -13.4420   -6.8410   18.7885 C.ar    1  UNL1        0.0500
      8 C         -12.1314   -7.4720   18.4223 C.ar    1  UNL1        0.0051
      9 C         -10.8629   -6.6775   18.5215 C.ar    1  UNL1        0.0115
     10 C         -10.9051   -5.2522   18.9869 C.ar    1  UNL1        0.0574
     11 CL         -9.6366   -4.4577   19.0860 Cl      1  UNL1       -0.0823
     12 C         -12.2158   -4.6212   19.3530 C.ar    1  UNL1        0.0073
     13 C         -13.4842   -5.4157   19.2538 C.ar    1  UNL1       -0.0156
     14 C         -17.2897   -7.7990   18.9562 C.ar    1  UNL1        0.0733
     15 C         -18.0115   -8.2182   20.2025 C.ar    1  UNL1        0.0181
     16 C         -19.2800   -9.0126   20.1032 C.ar    1  UNL1        0.0220
     17 C         -19.8267   -9.3878   18.7577 C.ar    1  UNL1        0.0990
     18 N         -19.1049   -8.9685   17.5115 N.ar    1  UNL1       -0.2410
     19 C         -17.8364   -8.1741   17.6107 C.ar    1  UNL1        0.1137
@<TRIPOS>BOND
     1     1     2    1
     2     2     3    1
     3     3     4    1
     4     4    14    1
     5    14    15   ar
     6    15    16   ar
     7    16    17   ar
     8    17    18   ar
     9    18    19   ar
    10     4     5   am
    11     5     6    2
    12     5     7    1
    13     7     8   ar
    14     8     9   ar
    15     9    10   ar
    16    10    11    1
    17    10    12   ar
    18    12    13   ar
    19    13     2    1
    20    19    14   ar
    21    13     7   ar
@<TRIPOS>MOLECULE
*****
 19 21 0 0 0
SMALL
GASTEIGER

@<TRIPOS>ATOM
      1 C         -16.9300   -3.9970   19.9013 C.3     1  UNL1        0.0065
      2 C         -15.9578   -5.0405   19.4367 C.3     1  UNL1        0.0427
      3 C         -14.5848   -4.6387   18.9860 C.3     1  UNL1        0.1028
      4 N         -13.6126   -5.6822   18.5213 N.am    1  UNL1       -0.2534
      5 C         -14.0134   -7.1276   18.5074 C.2     1  UNL1        0.2525
      6 O         -13.0413   -8.1711   18.0428 O.2     1  UNL1       -0.2696
      7 C         -15.3866   -7.5295   18.9581 C.ar    1  UNL1        0.0500
      8 C         -15.7874   -8.9748   18.9442 C.ar    1  UNL1        0.0051
      9 C         -17.1605   -9.3766   19.3949 C.ar    1  UNL1        0.0115
     10 C         -18.1327   -8.3331   19.8596 C.ar    1  UNL1        0.0574
     11 CL        -19.5058   -8.7350   20.3103 Cl      1  UNL1       -0.0823
     12 C         -17.7318   -6.8878   19.8735 C.ar    1  UNL1        0.0073
     13 C         -16.3588   -6.4860   19.4228 C.ar    1  UNL1       -0.0156
     14 C         -12.2395   -5.2804   18.0706 C.ar    1  UNL1        0.0733
     15 C         -11.1522   -5.0629   19.0808 C.ar    1  UNL1        0.0181
     16 C          -9.7792   -4.6610   18.6300 C.ar    1  UNL1        0.0220
     17 C          -9.4934   -4.4766   17.1691 C.ar    1  UNL1        0.0990
     18 N         -10.5806   -4.6941   16.1589 N.ar    1  UNL1       -0.2410
     19 C         -11.9537   -5.0960   16.6097 C.ar    1  UNL1        0.1137
@<TRIPOS>BOND
     1     1     2    1
     2     2     3    1
     3     3     4    1
     4     4    14    1
     5    14    15   ar
     6    15    16   ar
     7    16    17   ar
     8    17    18   ar
     9    18    19   ar
    10     4     5   am
    11     5     6    2
    12     5     7    1
    13     7     8   ar
    14     8     9   ar
    15     9    10   ar
    16    10    11    1
    17    10    12   ar
    18    12    13   ar
    19    13     2    1
    20    19    14   ar
    21    13     7   ar
@<TRIPOS>MOLECULE
*****
 19 21 0 0 0
SMALL
GASTEIGER

@<TRIPOS>ATOM
      1 C         -14.5730   -6.8370   18.9541 C.3     1  UNL1        0.0065
      2 C         -13.8777   -5.5079   18.9477 C.3     1  UNL1        0.0427
      3 C         -14.6808   -4.2412   18.9713 C.3     1  UNL1        0.1028
      4 N         -13.9856   -2.9121   18.9650 N.am    1  UNL1       -0.2534
      5 C         -12.4872   -2.8496   18.9351 C.2     1  UNL1        0.2525
      6 O         -11.7919   -1.5205   18.9287 O.2     1  UNL1       -0.2696
      7 C         -11.6840   -4.1163   18.9115 C.ar    1  UNL1        0.0500
      8 C         -10.1856   -4.0538   18.8815 C.ar    1  UNL1        0.0051
      9 C          -9.3825   -5.3205   18.8579 C.ar    1  UNL1        0.0115
     10 C         -10.0778   -6.6496   18.8643 C.ar    1  UNL1        0.0574
     11 CL         -9.2746   -7.9163   18.8407 Cl      1  UNL1       -0.0823
     12 C         -11.5762   -6.7121   18.8942 C.ar    1  UNL1        0.0073
     13 C         -12.3793   -5.4454   18.9178 C.ar    1  UNL1       -0.0156
     14 C         -14.7887   -1.6454   18.9886 C.ar    1  UNL1        0.0733
     15 C         -15.6398   -1.3191   20.1799 C.ar    1  UNL1        0.0181
     16 C         -16.4429   -0.0524   20.2034 C.ar    1  UNL1        0.0220
     17 C         -16.3950    0.8879   19.0357 C.ar    1  UNL1        0.0990
     18 N         -15.5439    0.5615   17.8444 N.ar    1  UNL1       -0.2410
     19 C         -14.7408   -0.7051   17.8209 C.ar    1  UNL1        0.1137
@<TRIPOS>BOND
     1     1     2    1
     2     2     3    1
     3     3     4    1
     4     4    14    1
     5    14    15   ar
     6    15    16   ar
     7    16    17   ar
     8    17    18   ar
     9    18    19   ar
    10     4     5   am
    11     5     6    2
    12     5     7    1
    13     7     8   ar
    14     8     9   ar
    15     9    10   ar
    16    10    11    1
    17    10    12   ar
    18    12    13   ar
    19    13     2    1
    20    19    14   ar
    21    13     7   ar
@<TRIPOS>MOLECULE
*****
 19 21 0 0 0
SMALL
GASTEIGER

@<TRIPOS>ATOM
      1 C         -13.6231   -4.0934   20.4177 C.3     1  UNL1        0.0065
      2 C         -12.8247   -3.3481   19.3895 C.3     1  UNL1        0.0427
      3 C         -13.2322   -1.9629   18.9830 C.3     1  UNL1        0.1028
      4 N         -12.4338   -1.2177   17.9548 N.am    1  UNL1       -0.2534
      5 C         -11.2280   -1.8575   17.3331 C.2     1  UNL1        0.2525
      6 O         -10.4296   -1.1122   16.3049 O.2     1  UNL1       -0.2696
      7 C         -10.8205   -3.2428   17.7396 C.ar    1  UNL1        0.0500
      8 C          -9.6147   -3.8826   17.1179 C.ar    1  UNL1        0.0051
      9 C          -9.2073   -5.2678   17.5244 C.ar    1  UNL1        0.0115
     10 C         -10.0056   -6.0131   18.5526 C.ar    1  UNL1        0.0574
     11 CL         -9.5981   -7.3983   18.9591 Cl      1  UNL1       -0.0823
     12 C         -11.2114   -5.3732   19.1743 C.ar    1  UNL1        0.0073
     13 C         -11.6189   -3.9880   18.7678 C.ar    1  UNL1       -0.0156
     14 C         -12.8413    0.1676   17.5483 C.ar    1  UNL1        0.0733
     15 C         -14.2768    0.4641   17.2302 C.ar    1  UNL1        0.0181
     16 C         -14.6842    1.8493   16.8238 C.ar    1  UNL1        0.0220
     17 C         -13.6561    2.9379   16.7354 C.ar    1  UNL1        0.0990
     18 N         -12.2206    2.6414   17.0535 N.ar    1  UNL1       -0.2410
     19 C         -11.8132    1.2562   17.4600 C.ar    1  UNL1        0.1137
@<TRIPOS>BOND
     1     1     2    1
     2     2     3    1
     3     3     4    1
     4     4    14    1
     5    14    15   ar
     6    15    16   ar
     7    16    17   ar
     8    17    18   ar
     9    18    19   ar
    10     4     5   am
    11     5     6    2
    12     5     7    1
    13     7     8   ar
    14     8     9   ar
    15     9    10   ar
    16    10    11    1
    17    10    12   ar
    18    12    13   ar
    19    13     2    1
    20    19    14   ar
    21    13     7   ar
@<TRIPOS>MOLECULE
*****
 19 21 0 0 0
SMALL
GASTEIGER

@<TRIPOS>ATOM
      1 C          -8.8621   -3.5384   15.9820 C.3     1  UNL1        0.0065
      2 C         -10.1436   -3.3975   16.7489 C.3     1  UNL1        0.0427
      3 C         -10.9331   -2.1250   16.6629 C.3     1  UNL1        0.1028
      4 N         -12.2145   -1.9841   17.4297 N.am    1  UNL1       -0.2534
      5 C         -12.7064   -3.1157   18.2827 C.2     1  UNL1        0.2525
      6 O         -13.9878   -2.9748   19.0496 O.2     1  UNL1       -0.2696
      7 C         -11.9169   -4.3882   18.3687 C.ar    1  UNL1        0.0500
      8 C         -12.4088   -5.5198   19.2217 C.ar    1  UNL1        0.0051
      9 C         -11.6193   -6.7923   19.3077 C.ar    1  UNL1        0.0115
     10 C         -10.3379   -6.9332   18.5408 C.ar    1  UNL1        0.0574
     11 CL         -9.5484   -8.2058   18.6269 Cl      1  UNL1       -0.0823
     12 C          -9.8460   -5.8016   17.6879 C.ar    1  UNL1        0.0073
     13 C         -10.6355   -4.5291   17.6018 C.ar    1  UNL1       -0.0156
     14 C         -13.0040   -0.7115   17.3437 C.ar    1  UNL1        0.0733
     15 C         -14.1419   -0.5991   16.3729 C.ar    1  UNL1        0.0181
     16 C         -14.9313    0.6734   16.2868 C.ar    1  UNL1        0.0220
     17 C         -14.5829    1.8335   17.1716 C.ar    1  UNL1        0.0990
     18 N         -13.4450    1.7210   18.1425 N.ar    1  UNL1       -0.2410
     19 C         -12.6556    0.4485   18.2285 C.ar    1  UNL1        0.1137
@<TRIPOS>BOND
     1     1     2    1
     2     2     3    1
     3     3     4    1
     4     4    14    1
     5    14    15   ar
     6    15    16   ar
     7    16    17   ar
     8    17    18   ar
     9    18    19   ar
    10     4     5   am
    11     5     6    2
    12     5     7    1
    13     7     8   ar
    14     8     9   ar
    15     9    10   ar
    16    10    11    1
    17    10    12   ar
    18    12    13   ar
    19    13     2    1
    20    19    14   ar
    21    13     7   ar
@<TRIPOS>MOLECULE
*****
 19 21 0 0 0
SMALL
GASTEIGER

@<TRIPOS>ATOM
      1 C           1.2764    0.1709   19.2185 C.3     1  UNL1        0.0065
      2 C           1.8011   -0.0805   20.6010 C.3     1  UNL1        0.0427
      3 C           1.3782    0.8042   21.7361 C.3     1  UNL1        0.1028
      4 N           1.9029    0.5528   23.1187 N.am    1  UNL1       -0.2534
      5 C           2.8505   -0.5833   23.3662 C.2     1  UNL1        0.2525
      6 O           3.3752   -0.8347   24.7488 O.2     1  UNL1       -0.2696
      7 C           3.2735   -1.4681   22.2311 C.ar    1  UNL1        0.0500
      8 C           4.2211   -2.6041   22.4786 C.ar    1  UNL1        0.0051
      9 C           4.6440   -3.4888   21.3435 C.ar    1  UNL1        0.0115
     10 C           4.1193   -3.2374   19.9610 C.ar    1  UNL1        0.0574
     11 CL          4.5422   -4.1222   18.8259 Cl      1  UNL1       -0.0823
     12 C           3.1717   -2.1014   19.7135 C.ar    1  UNL1        0.0073
     13 C           2.7488   -1.2167   20.8485 C.ar    1  UNL1       -0.0156
     14 C           1.4800    1.4376   24.2538 C.ar    1  UNL1        0.0733
     15 C           0.2110    1.1467   24.9988 C.ar    1  UNL1        0.0181
     16 C          -0.2119    2.0314   26.1338 C.ar    1  UNL1        0.0220
     17 C           0.6342    3.2071   26.5238 C.ar    1  UNL1        0.0990
     18 N           1.9031    3.4980   25.7788 N.ar    1  UNL1       -0.2410
     19 C           2.3260    2.6132   24.6438 C.ar    1  UNL1        0.1137
@<TRIPOS>BOND
     1     1     2    1
     2     2     3    1
     3     3     4    1
     4     4    14    1
     5    14    15   ar
     6    15    16   ar
     7    16    17   ar
     8    17    18   ar
     9    18    19   ar
    10     4     5   am
    11     5     6    2
    12     5     7    1
    13     7     8   ar
    14     8     9   ar
    15     9    10   ar
    16    10    11    1
    17    10    12   ar
    18    12    13   ar
    19    13     2    1
    20    19    14   ar
    21    13     7   ar
@<TRIPOS>MOLECULE
*****
 19 21 0 0 0
SMALL
GASTEIGER

@<TRIPOS>ATOM
      1 C           3.2663   -0.2129   24.8020 C.3     1  UNL1        0.0065
      2 C           4.0497   -1.2665   24.0765 C.3     1  UNL1        0.0427
      3 C           5.1450   -2.0074   24.7845 C.3     1  UNL1        0.1028
      4 N           5.9284   -3.0610   24.0591 N.am    1  UNL1       -0.2534
      5 C           5.6164   -3.3736   22.6256 C.2     1  UNL1        0.2525
      6 O           6.3998   -4.4272   21.9001 O.2     1  UNL1       -0.2696
      7 C           4.5211   -2.6327   21.9175 C.ar    1  UNL1        0.0500
      8 C           4.2091   -2.9453   20.4840 C.ar    1  UNL1        0.0051
      9 C           3.1138   -2.2044   19.7760 C.ar    1  UNL1        0.0115
     10 C           2.3305   -1.1508   20.5015 C.ar    1  UNL1        0.0574
     11 CL          1.2351   -0.4099   19.7934 Cl      1  UNL1       -0.0823
     12 C           2.6424   -0.8382   21.9350 C.ar    1  UNL1        0.0073
     13 C           3.7377   -1.5791   22.6430 C.ar    1  UNL1       -0.0156
     14 C           7.0237   -3.8019   24.7671 C.ar    1  UNL1        0.0733
     15 C           6.7031   -5.0291   25.5678 C.ar    1  UNL1        0.0181
     16 C           7.7984   -5.7700   26.2758 C.ar    1  UNL1        0.0220
     17 C           9.2143   -5.2836   26.1832 C.ar    1  UNL1        0.0990
     18 N           9.5350   -4.0564   25.3826 N.ar    1  UNL1       -0.2410
     19 C           8.4396   -3.3155   24.6745 C.ar    1  UNL1        0.1137
@<TRIPOS>BOND
     1     1     2    1
     2     2     3    1
     3     3     4    1
     4     4    14    1
     5    14    15   ar
     6    15    16   ar
     7    16    17   ar
     8    17    18   ar
     9    18    19   ar
    10     4     5   am
    11     5     6    2
    12     5     7    1
    13     7     8   ar
    14     8     9   ar
    15     9    10   ar
    16    10    11    1
    17    10    12   ar
    18    12    13   ar
    19    13     2    1
    20    19    14   ar
    21    13     7   ar
