@<TRIPOS>MOLECULE
*****
 29 33 0 0 0
SMALL
GASTEIGER

@<TRIPOS>ATOM
      1 C          -7.8173  -16.8794   24.0553 C.3     1  UNL1        0.0325
      2 C          -7.5538  -17.8691   22.9593 C.ar    1  UNL1       -0.0058
      3 C          -8.6874  -18.6552   22.3702 C.ar    1  UNL1       -0.0003
      4 C          -8.4239  -19.6448   21.2742 C.ar    1  UNL1       -0.0000
      5 C          -7.0270  -19.8485   20.7673 C.ar    1  UNL1        0.0045
      6 C          -5.8933  -19.0624   21.3564 C.ar    1  UNL1        0.0518
      7 C          -4.4963  -19.2659   20.8496 C.ar    1  UNL1        0.1709
      8 O          -3.9349  -20.1641   19.7874 O.2     1  UNL1       -0.4310
      9 C          -2.4543  -19.9330   19.7201 C.ar    1  UNL1        0.2852
     10 N          -2.1007  -18.8921   20.7407 N.ar    1  UNL1       -0.1994
     11 C          -3.3627  -18.4798   21.4387 C.ar    1  UNL1        0.1748
     12 C          -3.6262  -17.4902   22.5347 C.ar    1  UNL1        0.2816
     13 O          -2.4926  -16.7041   23.1238 O.2     1  UNL1       -0.2652
     14 N          -5.0232  -17.2866   23.0415 N.ar    1  UNL1       -0.2963
     15 C          -6.1567  -18.0727   22.4524 C.ar    1  UNL1        0.0614
     16 C         -10.0844  -18.4516   22.8770 C.ar    1  UNL1        0.0295
     17 C         -10.9244  -17.3345   22.3326 C.ar    1  UNL1        0.0331
     18 C         -12.3215  -17.1310   22.8395 C.ar    1  UNL1        0.1530
     19 F         -13.1615  -16.0138   22.2951 F       1  UNL1       -0.2029
     20 C         -12.8785  -18.0446   23.8907 C.ar    1  UNL1        0.0716
     21 N         -14.2755  -17.8410   24.3976 N.pl3   1  UNL1       -0.3552
     22 C         -12.0384  -19.1617   24.4351 C.ar    1  UNL1        0.0460
     23 C         -10.6414  -19.3652   23.9282 C.ar    1  UNL1        0.1414
     24 F          -9.8014  -20.4824   24.4726 F       1  UNL1       -0.2041
     25 H         -14.8268  -17.1078   24.0403 H       1  UNL1        0.1424
     26 H         -14.6411  -18.4406   25.0875 H       1  UNL1        0.1424
     27 C          -5.2866  -16.2969   24.1375 C.3     1  UNL1        0.0885
     28 C          -5.7924  -14.9573   24.5842 C.3     1  UNL1        0.0246
     29 C          -5.2369  -15.9224   25.5892 C.3     1  UNL1        0.0246
@<TRIPOS>BOND
     1     1     2    1
     2     2     3   ar
     3     3    16    1
     4    16    17   ar
     5    17    18   ar
     6    18    19    1
     7    18    20   ar
     8    20    21    1
     9    20    22   ar
    10    22    23   ar
    11    23    24    1
    12     3     4   ar
    13     4     5   ar
    14     5     6   ar
    15     6     7   ar
    16     7     8   ar
    17     8     9   ar
    18     9    10   ar
    19    10    11   ar
    20    11    12   ar
    21    12    13    2
    22    12    14   ar
    23    14    27    1
    24    27    28    1
    25    28    29    1
    26    14    15   ar
    27    15     2   ar
    28    23    16   ar
    29    15     6   ar
    30    11     7   ar
    31    29    27    1
    32    21    25    1
    33    21    26    1
@<TRIPOS>MOLECULE
*****
 29 33 0 0 0
SMALL
GASTEIGER

@<TRIPOS>ATOM
      1 C          -7.8258  -16.8760   23.7803 C.3     1  UNL1        0.0325
      2 C          -7.4829  -17.9410   22.7812 C.ar    1  UNL1       -0.0058
      3 C          -8.5721  -18.7592   22.1533 C.ar    1  UNL1       -0.0003
      4 C          -8.2292  -19.8241   21.1542 C.ar    1  UNL1       -0.0000
      5 C          -6.7970  -20.0710   20.7829 C.ar    1  UNL1        0.0045
      6 C          -5.7077  -19.2529   21.4107 C.ar    1  UNL1        0.0518
      7 C          -4.2755  -19.4997   21.0394 C.ar    1  UNL1        0.1709
      8 O          -3.6374  -20.4728   20.0929 O.2     1  UNL1       -0.4310
      9 C          -2.1538  -20.2561   20.1357 C.ar    1  UNL1        0.2852
     10 N          -1.8749  -19.1490   21.1087 N.ar    1  UNL1       -0.1994
     11 C          -3.1862  -18.6815   21.6672 C.ar    1  UNL1        0.1748
     12 C          -3.5292  -17.6165   22.6663 C.ar    1  UNL1        0.2816
     13 O          -2.4399  -16.7984   23.2941 O.2     1  UNL1       -0.2652
     14 N          -4.9614  -17.3697   23.0376 N.ar    1  UNL1       -0.2963
     15 C          -6.0506  -18.1878   22.4098 C.ar    1  UNL1        0.0614
     16 C         -10.0043  -18.5124   22.5246 C.ar    1  UNL1        0.0295
     17 C         -10.5064  -18.9087   23.8814 C.ar    1  UNL1        0.0331
     18 C         -11.9387  -18.6618   24.2526 C.ar    1  UNL1        0.1530
     19 F         -12.4407  -19.0582   25.6094 F       1  UNL1       -0.2029
     20 C         -12.8688  -18.0187   23.2671 C.ar    1  UNL1        0.0716
     21 N         -14.3010  -17.7719   23.6384 N.pl3   1  UNL1       -0.3552
     22 C         -12.3667  -17.6224   21.9103 C.ar    1  UNL1        0.0460
     23 C         -10.9345  -17.8692   21.5391 C.ar    1  UNL1        0.1414
     24 F         -10.4324  -17.4729   20.1824 F       1  UNL1       -0.2041
     25 H         -14.6305  -18.0320   24.5289 H       1  UNL1        0.1424
     26 H         -14.9115  -17.3498   22.9916 H       1  UNL1        0.1424
     27 C          -5.3043  -16.3047   24.0367 C.3     1  UNL1        0.0885
     28 C          -5.8513  -14.9432   24.3480 C.3     1  UNL1        0.0246
     29 C          -5.3510  -15.8217   25.4561 C.3     1  UNL1        0.0246
@<TRIPOS>BOND
     1     1     2    1
     2     2     3   ar
     3     3    16    1
     4    16    17   ar
     5    17    18   ar
     6    18    19    1
     7    18    20   ar
     8    20    21    1
     9    20    22   ar
    10    22    23   ar
    11    23    24    1
    12     3     4   ar
    13     4     5   ar
    14     5     6   ar
    15     6     7   ar
    16     7     8   ar
    17     8     9   ar
    18     9    10   ar
    19    10    11   ar
    20    11    12   ar
    21    12    13    2
    22    12    14   ar
    23    14    27    1
    24    27    28    1
    25    28    29    1
    26    14    15   ar
    27    15     2   ar
    28    23    16   ar
    29    15     6   ar
    30    11     7   ar
    31    29    27    1
    32    21    25    1
    33    21    26    1
@<TRIPOS>MOLECULE
*****
 29 33 0 0 0
SMALL
GASTEIGER

@<TRIPOS>ATOM
      1 C          -4.8319  -16.9312   23.0813 C.3     1  UNL1        0.0325
      2 C          -5.8548  -17.7372   22.3369 C.ar    1  UNL1       -0.0058
      3 C          -5.4332  -18.6127   21.1942 C.ar    1  UNL1       -0.0003
      4 C          -6.4561  -19.4187   20.4498 C.ar    1  UNL1       -0.0000
      5 C          -7.9005  -19.3493   20.8481 C.ar    1  UNL1        0.0045
      6 C          -8.3222  -18.4739   21.9909 C.ar    1  UNL1        0.0518
      7 C          -9.7666  -18.4045   22.3893 C.ar    1  UNL1        0.1709
      8 O         -10.9911  -19.0795   21.8462 O.2     1  UNL1       -0.4310
      9 C         -12.1695  -18.6212   22.6533 C.ar    1  UNL1        0.2852
     10 N         -11.6733  -17.6630   23.6952 N.ar    1  UNL1       -0.1994
     11 C         -10.1882  -17.5291   23.5321 C.ar    1  UNL1        0.1748
     12 C          -9.1653  -16.7230   24.2764 C.ar    1  UNL1        0.2816
     13 O          -9.5869  -15.8476   25.4192 O.2     1  UNL1       -0.2652
     14 N          -7.7209  -16.7925   23.8780 N.ar    1  UNL1       -0.2963
     15 C          -7.2993  -17.6678   22.7353 C.ar    1  UNL1        0.0614
     16 C          -3.9887  -18.6821   20.7958 C.ar    1  UNL1        0.0295
     17 C          -3.5436  -18.1040   19.4852 C.ar    1  UNL1        0.0331
     18 C          -2.0991  -18.1735   19.0868 C.ar    1  UNL1        0.1530
     19 F          -1.6539  -17.5954   17.7762 F       1  UNL1       -0.2029
     20 C          -1.0998  -18.8210   19.9990 C.ar    1  UNL1        0.0716
     21 N           0.3447  -18.8904   19.6006 N.pl3   1  UNL1       -0.3552
     22 C          -1.5450  -19.3991   21.3096 C.ar    1  UNL1        0.0460
     23 C          -2.9894  -19.3296   21.7080 C.ar    1  UNL1        0.1414
     24 F          -3.4346  -19.9077   23.0186 F       1  UNL1       -0.2041
     25 H           0.6368  -18.5110   18.7404 H       1  UNL1        0.1424
     26 H           1.0006  -19.3154   20.1993 H       1  UNL1        0.1424
     27 C          -6.6980  -15.9864   24.6225 C.3     1  UNL1        0.0885
     28 C          -5.9097  -15.7222   25.8710 C.3     1  UNL1        0.0246
     29 C          -5.7147  -14.8543   24.6632 C.3     1  UNL1        0.0246
@<TRIPOS>BOND
     1     1     2    1
     2     2     3   ar
     3     3    16    1
     4    16    17   ar
     5    17    18   ar
     6    18    19    1
     7    18    20   ar
     8    20    21    1
     9    20    22   ar
    10    22    23   ar
    11    23    24    1
    12     3     4   ar
    13     4     5   ar
    14     5     6   ar
    15     6     7   ar
    16     7     8   ar
    17     8     9   ar
    18     9    10   ar
    19    10    11   ar
    20    11    12   ar
    21    12    13    2
    22    12    14   ar
    23    14    27    1
    24    27    28    1
    25    28    29    1
    26    14    15   ar
    27    15     2   ar
    28    23    16   ar
    29    15     6   ar
    30    11     7   ar
    31    29    27    1
    32    21    25    1
    33    21    26    1
@<TRIPOS>MOLECULE
*****
 29 33 0 0 0
SMALL
GASTEIGER

@<TRIPOS>ATOM
      1 C         -13.9607   -7.9240   17.5210 C.3     1  UNL1        0.0325
      2 C         -14.5157   -6.5925   17.9321 C.ar    1  UNL1       -0.0058
      3 C         -15.9632   -6.4658   18.3046 C.ar    1  UNL1       -0.0003
      4 C         -16.5181   -5.1343   18.7157 C.ar    1  UNL1       -0.0000
      5 C         -15.6256   -3.9293   18.7544 C.ar    1  UNL1        0.0045
      6 C         -14.1781   -4.0559   18.3819 C.ar    1  UNL1        0.0518
      7 C         -13.2855   -2.8510   18.4205 C.ar    1  UNL1        0.1709
      8 O         -13.5475   -1.4191   18.7826 O.2     1  UNL1       -0.4310
      9 C         -12.2618   -0.6608   18.6339 C.ar    1  UNL1        0.2852
     10 N         -11.2053   -1.6240   18.1799 N.ar    1  UNL1       -0.1994
     11 C         -11.8380   -2.9776   18.0480 C.ar    1  UNL1        0.1748
     12 C         -11.2831   -4.3092   17.6369 C.ar    1  UNL1        0.2816
     13 O          -9.8356   -4.4358   17.2644 O.2     1  UNL1       -0.2652
     14 N         -12.1756   -5.5141   17.5983 N.ar    1  UNL1       -0.2963
     15 C         -13.6231   -5.3875   17.9707 C.ar    1  UNL1        0.0614
     16 C         -16.8557   -7.6707   18.2659 C.ar    1  UNL1        0.0295
     17 C         -17.8357   -7.8425   17.1433 C.ar    1  UNL1        0.0331
     18 C         -18.7282   -9.0475   17.1048 C.ar    1  UNL1        0.1530
     19 F         -19.7082   -9.2193   15.9822 F       1  UNL1       -0.2029
     20 C         -18.6409  -10.0806   18.1888 C.ar    1  UNL1        0.0716
     21 N         -19.5334  -11.2855   18.1501 N.pl3   1  UNL1       -0.3552
     22 C         -17.6609   -9.9088   19.3113 C.ar    1  UNL1        0.0460
     23 C         -16.7684   -8.7039   19.3499 C.ar    1  UNL1        0.1414
     24 F         -15.7884   -8.5321   20.4725 F       1  UNL1       -0.2041
     25 H         -20.1766  -11.3983   17.4133 H       1  UNL1        0.1424
     26 H         -19.4761  -11.9636   18.8616 H       1  UNL1        0.1424
     27 C         -11.6206   -6.8457   17.1871 C.3     1  UNL1        0.0885
     28 C         -11.5390   -7.9693   16.1969 C.3     1  UNL1        0.0246
     29 C         -10.7409   -8.0283   17.4655 C.3     1  UNL1        0.0246
@<TRIPOS>BOND
     1     1     2    1
     2     2     3   ar
     3     3    16    1
     4    16    17   ar
     5    17    18   ar
     6    18    19    1
     7    18    20   ar
     8    20    21    1
     9    20    22   ar
    10    22    23   ar
    11    23    24    1
    12     3     4   ar
    13     4     5   ar
    14     5     6   ar
    15     6     7   ar
    16     7     8   ar
    17     8     9   ar
    18     9    10   ar
    19    10    11   ar
    20    11    12   ar
    21    12    13    2
    22    12    14   ar
    23    14    27    1
    24    27    28    1
    25    28    29    1
    26    14    15   ar
    27    15     2   ar
    28    23    16   ar
    29    15     6   ar
    30    11     7   ar
    31    29    27    1
    32    21    25    1
    33    21    26    1
@<TRIPOS>MOLECULE
*****
 29 33 0 0 0
SMALL
GASTEIGER

@<TRIPOS>ATOM
      1 C         -13.3704   -7.2301   18.2777 C.3     1  UNL1        0.0325
      2 C         -13.9337   -5.8516   18.0976 C.ar    1  UNL1       -0.0058
      3 C         -15.4176   -5.6363   18.1401 C.ar    1  UNL1       -0.0003
      4 C         -15.9809   -4.2578   17.9600 C.ar    1  UNL1       -0.0000
      5 C         -15.0604   -3.0946   17.7373 C.ar    1  UNL1        0.0045
      6 C         -13.5765   -3.3098   17.6947 C.ar    1  UNL1        0.0518
      7 C         -12.6559   -2.1467   17.4721 C.ar    1  UNL1        0.1709
      8 O         -12.9183   -0.6845   17.2641 O.2     1  UNL1       -0.4310
      9 C         -11.5966    0.0038   17.0930 C.ar    1  UNL1        0.2852
     10 N         -10.5174   -1.0329   17.1952 N.ar    1  UNL1       -0.1994
     11 C         -11.1721   -2.3620   17.4296 C.ar    1  UNL1        0.1748
     12 C         -10.6088   -3.7405   17.6097 C.ar    1  UNL1        0.2816
     13 O          -9.1249   -3.9558   17.5671 O.2     1  UNL1       -0.2652
     14 N         -11.5293   -4.9036   17.8323 N.ar    1  UNL1       -0.2963
     15 C         -13.0131   -4.6884   17.8749 C.ar    1  UNL1        0.0614
     16 C         -16.3381   -6.7994   18.3628 C.ar    1  UNL1        0.0295
     17 C         -17.0706   -6.9378   19.6645 C.ar    1  UNL1        0.0331
     18 C         -17.9912   -8.1010   19.8870 C.ar    1  UNL1        0.1530
     19 F         -18.7236   -8.2394   21.1887 F       1  UNL1       -0.2029
     20 C         -18.1793   -9.1259   18.8080 C.ar    1  UNL1        0.0716
     21 N         -19.0999  -10.2890   19.0306 N.pl3   1  UNL1       -0.3552
     22 C         -17.4468   -8.9874   17.5063 C.ar    1  UNL1        0.0460
     23 C         -16.5263   -7.8242   17.2837 C.ar    1  UNL1        0.1414
     24 F         -15.7939   -7.6859   15.9820 F       1  UNL1       -0.2041
     25 H         -19.5806  -10.3798   19.8850 H       1  UNL1        0.1424
     26 H         -19.2234  -10.9616   18.3224 H       1  UNL1        0.1424
     27 C         -10.9660   -6.2822   18.0125 C.3     1  UNL1        0.0885
     28 C         -10.7154   -7.6627   17.4820 C.3     1  UNL1        0.0246
     29 C         -10.2407   -7.2892   18.8551 C.3     1  UNL1        0.0246
@<TRIPOS>BOND
     1     1     2    1
     2     2     3   ar
     3     3    16    1
     4    16    17   ar
     5    17    18   ar
     6    18    19    1
     7    18    20   ar
     8    20    21    1
     9    20    22   ar
    10    22    23   ar
    11    23    24    1
    12     3     4   ar
    13     4     5   ar
    14     5     6   ar
    15     6     7   ar
    16     7     8   ar
    17     8     9   ar
    18     9    10   ar
    19    10    11   ar
    20    11    12   ar
    21    12    13    2
    22    12    14   ar
    23    14    27    1
    24    27    28    1
    25    28    29    1
    26    14    15   ar
    27    15     2   ar
    28    23    16   ar
    29    15     6   ar
    30    11     7   ar
    31    29    27    1
    32    21    25    1
    33    21    26    1
@<TRIPOS>MOLECULE
*****
 29 33 0 0 0
SMALL
GASTEIGER

@<TRIPOS>ATOM
      1 C           7.2864   -5.2737   23.7217 C.3     1  UNL1        0.0325
      2 C           6.6609   -4.1951   24.5555 C.ar    1  UNL1       -0.0058
      3 C           5.8357   -3.1260   23.9027 C.ar    1  UNL1       -0.0003
      4 C           5.2102   -2.0474   24.7365 C.ar    1  UNL1       -0.0000
      5 C           5.4099   -2.0377   26.2231 C.ar    1  UNL1        0.0045
      6 C           6.2351   -3.1067   26.8760 C.ar    1  UNL1        0.0518
      7 C           6.4349   -3.0971   28.3626 C.ar    1  UNL1        0.1709
      8 O           5.9461   -2.1692   29.4350 O.2     1  UNL1       -0.4310
      9 C           6.4693   -2.6647   30.7505 C.ar    1  UNL1        0.2852
     10 N           7.2814   -3.8989   30.4912 N.ar    1  UNL1       -0.1994
     11 C           7.2602   -4.1662   29.0153 C.ar    1  UNL1        0.1748
     12 C           7.8857   -5.2448   28.1815 C.ar    1  UNL1        0.2816
     13 O           8.7109   -6.3138   28.8343 O.2     1  UNL1       -0.2652
     14 N           7.6859   -5.2544   26.6949 N.ar    1  UNL1       -0.2963
     15 C           6.8607   -4.1854   26.0422 C.ar    1  UNL1        0.0614
     16 C           5.6359   -3.1356   22.4161 C.ar    1  UNL1        0.0295
     17 C           4.4996   -3.9103   21.8171 C.ar    1  UNL1        0.0331
     18 C           4.2999   -3.9198   20.3304 C.ar    1  UNL1        0.1530
     19 F           3.1637   -4.6944   19.7313 F       1  UNL1       -0.2029
     20 C           5.2364   -3.1548   19.4428 C.ar    1  UNL1        0.0716
     21 N           5.0366   -3.1644   17.9563 N.pl3   1  UNL1       -0.3552
     22 C           6.3727   -2.3801   20.0420 C.ar    1  UNL1        0.0460
     23 C           6.5724   -2.3706   21.5286 C.ar    1  UNL1        0.1414
     24 F           7.7086   -1.5959   22.1277 F       1  UNL1       -0.2041
     25 H           4.2909   -3.6728   17.5631 H       1  UNL1        0.1424
     26 H           5.6513   -2.6622   17.3737 H       1  UNL1        0.1424
     27 C           8.3115   -6.3331   25.8611 C.3     1  UNL1        0.0885
     28 C           9.4886   -6.8707   25.1026 C.3     1  UNL1        0.0246
     29 C           8.2176   -7.6640   25.1755 C.3     1  UNL1        0.0246
@<TRIPOS>BOND
     1     1     2    1
     2     2     3   ar
     3     3    16    1
     4    16    17   ar
     5    17    18   ar
     6    18    19    1
     7    18    20   ar
     8    20    21    1
     9    20    22   ar
    10    22    23   ar
    11    23    24    1
    12     3     4   ar
    13     4     5   ar
    14     5     6   ar
    15     6     7   ar
    16     7     8   ar
    17     8     9   ar
    18     9    10   ar
    19    10    11   ar
    20    11    12   ar
    21    12    13    2
    22    12    14   ar
    23    14    27    1
    24    27    28    1
    25    28    29    1
    26    14    15   ar
    27    15     2   ar
    28    23    16   ar
    29    15     6   ar
    30    11     7   ar
    31    29    27    1
    32    21    25    1
    33    21    26    1
@<TRIPOS>MOLECULE
*****
 29 33 0 0 0
SMALL
GASTEIGER

@<TRIPOS>ATOM
      1 C           3.3210   -0.2930   31.6809 C.3     1  UNL1        0.0325
      2 C           2.8201    0.9080   32.4270 C.ar    1  UNL1       -0.0058
      3 C           1.8866    1.8719   31.7566 C.ar    1  UNL1       -0.0003
      4 C           1.3857    3.0729   32.5027 C.ar    1  UNL1       -0.0000
      5 C           1.8182    3.3101   33.9192 C.ar    1  UNL1        0.0045
      6 C           2.7518    2.3463   34.5897 C.ar    1  UNL1        0.0518
      7 C           3.1844    2.5834   36.0062 C.ar    1  UNL1        0.1709
      8 O           2.8584    3.6710   36.9865 O.2     1  UNL1       -0.4310
      9 C           3.5905    3.3792   38.2628 C.ar    1  UNL1        0.2852
     10 N           4.3689    2.1114   38.0713 N.ar    1  UNL1       -0.1994
     11 C           4.1180    1.6195   36.6767 C.ar    1  UNL1        0.1748
     12 C           4.6189    0.4185   35.9306 C.ar    1  UNL1        0.2816
     13 O           5.5524   -0.5453   36.6010 O.2     1  UNL1       -0.2652
     14 N           4.1862    0.1814   34.5141 N.ar    1  UNL1       -0.2963
     15 C           3.2528    1.1452   33.8436 C.ar    1  UNL1        0.0614
     16 C           1.4539    1.6348   30.3400 C.ar    1  UNL1        0.0295
     17 C           0.0889    1.0819   30.0553 C.ar    1  UNL1        0.0331
     18 C          -0.3436    0.8448   28.6387 C.ar    1  UNL1        0.1530
     19 F          -1.7087    0.2920   28.3539 F       1  UNL1       -0.2029
     20 C           0.5888    1.1605   27.5069 C.ar    1  UNL1        0.0716
     21 N           0.1561    0.9234   26.0903 N.pl3   1  UNL1       -0.3552
     22 C           1.9538    1.7134   27.7917 C.ar    1  UNL1        0.0460
     23 C           2.3863    1.9505   29.2083 C.ar    1  UNL1        0.1414
     24 F           3.7514    2.5033   29.4930 F       1  UNL1       -0.2041
     25 H          -0.7398    0.5605   25.9035 H       1  UNL1        0.1424
     26 H           0.7681    1.1306   25.3475 H       1  UNL1        0.1424
     27 C           4.6872   -1.0197   33.7680 C.3     1  UNL1        0.0885
     28 C           5.7269   -1.6736   32.9070 C.3     1  UNL1        0.0246
     29 C           4.5150   -2.4461   33.3369 C.3     1  UNL1        0.0246
@<TRIPOS>BOND
     1     1     2    1
     2     2     3   ar
     3     3    16    1
     4    16    17   ar
     5    17    18   ar
     6    18    19    1
     7    18    20   ar
     8    20    21    1
     9    20    22   ar
    10    22    23   ar
    11    23    24    1
    12     3     4   ar
    13     4     5   ar
    14     5     6   ar
    15     6     7   ar
    16     7     8   ar
    17     8     9   ar
    18     9    10   ar
    19    10    11   ar
    20    11    12   ar
    21    12    13    2
    22    12    14   ar
    23    14    27    1
    24    27    28    1
    25    28    29    1
    26    14    15   ar
    27    15     2   ar
    28    23    16   ar
    29    15     6   ar
    30    11     7   ar
    31    29    27    1
    32    21    25    1
    33    21    26    1
@<TRIPOS>MOLECULE
*****
 29 33 0 0 0
SMALL
GASTEIGER

@<TRIPOS>ATOM
      1 C           5.5432   -4.2797   21.3315 C.3     1  UNL1        0.0325
      2 C           6.6602   -3.2785   21.3288 C.ar    1  UNL1       -0.0058
      3 C           7.6558   -3.2625   22.4506 C.ar    1  UNL1       -0.0003
      4 C           8.7727   -2.2613   22.4478 C.ar    1  UNL1       -0.0000
      5 C           8.8941   -1.2761   21.3232 C.ar    1  UNL1        0.0045
      6 C           7.8985   -1.2921   20.2014 C.ar    1  UNL1        0.0518
      7 C           8.0198   -0.3069   19.0768 C.ar    1  UNL1        0.1709
      8 O           9.0074    0.7887   18.8044 O.2     1  UNL1       -0.4310
      9 C           8.6221    1.4498   17.5143 C.ar    1  UNL1        0.2852
     10 N           7.3964    0.7628   16.9893 N.ar    1  UNL1       -0.1994
     11 C           7.0241   -0.3230   17.9550 C.ar    1  UNL1        0.1748
     12 C           5.9072   -1.3242   17.9578 C.ar    1  UNL1        0.2816
     13 O           4.9116   -1.3402   16.8359 O.2     1  UNL1       -0.2652
     14 N           5.7859   -2.3093   19.0824 N.ar    1  UNL1       -0.2963
     15 C           6.7815   -2.2933   20.2041 C.ar    1  UNL1        0.0614
     16 C           7.5345   -4.2476   23.5752 C.ar    1  UNL1        0.0295
     17 C           8.1453   -5.6116   23.4465 C.ar    1  UNL1        0.0331
     18 C           8.0239   -6.5967   24.5713 C.ar    1  UNL1        0.1530
     19 F           8.6347   -7.9607   24.4426 F       1  UNL1       -0.2029
     20 C           7.2919   -6.2179   25.8245 C.ar    1  UNL1        0.0716
     21 N           7.1706   -7.2031   26.9491 N.pl3   1  UNL1       -0.3552
     22 C           6.6811   -4.8539   25.9530 C.ar    1  UNL1        0.0460
     23 C           6.8024   -3.8688   24.8284 C.ar    1  UNL1        0.1414
     24 F           6.1917   -2.5048   24.9570 F       1  UNL1       -0.2041
     25 H           7.5714   -8.0983   26.8646 H       1  UNL1        0.1424
     26 H           6.6901   -6.9544   27.7716 H       1  UNL1        0.1424
     27 C           4.6689   -3.3106   19.0851 C.3     1  UNL1        0.0885
     28 C           3.2232   -3.6434   19.3070 C.3     1  UNL1        0.0246
     29 C           4.1800   -4.7119   18.8678 C.3     1  UNL1        0.0246
@<TRIPOS>BOND
     1     1     2    1
     2     2     3   ar
     3     3    16    1
     4    16    17   ar
     5    17    18   ar
     6    18    19    1
     7    18    20   ar
     8    20    21    1
     9    20    22   ar
    10    22    23   ar
    11    23    24    1
    12     3     4   ar
    13     4     5   ar
    14     5     6   ar
    15     6     7   ar
    16     7     8   ar
    17     8     9   ar
    18     9    10   ar
    19    10    11   ar
    20    11    12   ar
    21    12    13    2
    22    12    14   ar
    23    14    27    1
    24    27    28    1
    25    28    29    1
    26    14    15   ar
    27    15     2   ar
    28    23    16   ar
    29    15     6   ar
    30    11     7   ar
    31    29    27    1
    32    21    25    1
    33    21    26    1
@<TRIPOS>MOLECULE
*****
 29 33 0 0 0
SMALL
GASTEIGER

@<TRIPOS>ATOM
      1 C           4.9381   -1.9767   24.1477 C.3     1  UNL1        0.0325
      2 C           5.9367   -3.0932   24.2263 C.ar    1  UNL1       -0.0058
      3 C           6.3767   -3.7954   22.9759 C.ar    1  UNL1       -0.0003
      4 C           7.3753   -4.9118   23.0545 C.ar    1  UNL1       -0.0000
      5 C           7.9341   -5.3262   24.3834 C.ar    1  UNL1        0.0045
      6 C           7.4942   -4.6240   25.6339 C.ar    1  UNL1        0.0518
      7 C           8.0529   -5.0383   26.9628 C.ar    1  UNL1        0.1709
      8 O           9.0440   -6.0958   27.3493 O.2     1  UNL1       -0.4310
      9 C           9.2166   -6.0473   28.8385 C.ar    1  UNL1        0.2852
     10 N           8.3322   -4.9597   29.3725 N.ar    1  UNL1       -0.1994
     11 C           7.6130   -4.3362   28.2132 C.ar    1  UNL1        0.1748
     12 C           6.6143   -3.2197   28.1346 C.ar    1  UNL1        0.2816
     13 O           6.1744   -2.5175   29.3850 O.2     1  UNL1       -0.2652
     14 N           6.0556   -2.8054   26.8056 N.ar    1  UNL1       -0.2963
     15 C           6.4955   -3.5075   25.5553 C.ar    1  UNL1        0.0614
     16 C           5.8179   -3.3811   21.6469 C.ar    1  UNL1        0.0295
     17 C           4.6038   -4.0688   21.0965 C.ar    1  UNL1        0.0331
     18 C           4.0452   -3.6544   19.7674 C.ar    1  UNL1        0.1530
     19 F           2.8311   -4.3421   19.2169 F       1  UNL1       -0.2029
     20 C           4.7006   -2.5524   18.9889 C.ar    1  UNL1        0.0716
     21 N           4.1418   -2.1381   17.6600 N.pl3   1  UNL1       -0.3552
     22 C           5.9147   -1.8647   19.5395 C.ar    1  UNL1        0.0460
     23 C           6.4733   -2.2791   20.8685 C.ar    1  UNL1        0.1414
     24 F           7.6874   -1.5914   21.4189 F       1  UNL1       -0.2041
     25 H           3.3450   -2.5895   17.2987 H       1  UNL1        0.1424
     26 H           4.5720   -1.4148   17.1490 H       1  UNL1        0.1424
     27 C           5.0569   -1.6889   26.7271 C.3     1  UNL1        0.0885
     28 C           3.6351   -1.2125   26.7671 C.3     1  UNL1        0.0246
     29 C           4.7491   -0.2314   26.5511 C.3     1  UNL1        0.0246
@<TRIPOS>BOND
     1     1     2    1
     2     2     3   ar
     3     3    16    1
     4    16    17   ar
     5    17    18   ar
     6    18    19    1
     7    18    20   ar
     8    20    21    1
     9    20    22   ar
    10    22    23   ar
    11    23    24    1
    12     3     4   ar
    13     4     5   ar
    14     5     6   ar
    15     6     7   ar
    16     7     8   ar
    17     8     9   ar
    18     9    10   ar
    19    10    11   ar
    20    11    12   ar
    21    12    13    2
    22    12    14   ar
    23    14    27    1
    24    27    28    1
    25    28    29    1
    26    14    15   ar
    27    15     2   ar
    28    23    16   ar
    29    15     6   ar
    30    11     7   ar
    31    29    27    1
    32    21    25    1
    33    21    26    1
