@<TRIPOS>MOLECULE
*****
 28 31 0 0 0
SMALL
GASTEIGER

@<TRIPOS>ATOM
      1 C           0.1744    4.9517   27.5638 C.3     1  UNL1        0.0233
      2 C           0.0238    3.5293   28.0155 C.3     1  UNL1        0.0953
      3 C           0.9441    2.9730   29.0612 C.3     1  UNL1        0.1106
      4 N           0.7934    1.5506   29.5128 N.pl3   1  UNL1       -0.3041
      5 C          -0.2775    0.6844   28.9188 C.3     1  UNL1        0.1123
      6 C          -1.1978    1.2408   27.8731 C.3     1  UNL1        0.1149
      7 N          -1.0471    2.6632   27.4214 N.pl3   1  UNL1       -0.2777
      8 C          -1.9675    3.2195   26.3756 C.ar    1  UNL1        0.2035
      9 N          -3.2465    3.8896   26.7820 N.ar    1  UNL1       -0.2133
     10 C          -4.1668    4.4458   25.7363 C.ar    1  UNL1        0.1065
     11 C          -3.8082    4.3321   24.2842 C.ar    1  UNL1        0.0815
     12 C          -2.5291    3.6620   23.8779 C.ar    1  UNL1        0.2646
     13 O          -2.1704    3.5483   22.4259 O.2     1  UNL1       -0.2668
     14 N          -1.6088    3.1057   24.9236 N.ar    1  UNL1       -0.2667
     15 C          -0.3297    2.4357   24.5173 C.3     1  UNL1        0.1363
     16 C          -5.4459    5.1159   26.1426 C.ar    1  UNL1        0.1024
     17 C          -6.5119    5.3796   25.1208 C.ar    1  UNL1        0.0414
     18 C          -7.7909    6.0497   25.5272 C.ar    1  UNL1        0.1023
     19 N          -8.0039    6.4560   26.9552 N.ar    1  UNL1       -0.2224
     20 C          -6.9379    6.1923   27.9771 C.ar    1  UNL1        0.1989
     21 N          -5.6589    5.5222   27.5708 N.ar    1  UNL1       -0.2224
     22 C           1.7138    0.9942   30.5586 C.ar    1  UNL1        0.0481
     23 C           2.4165   -0.3097   30.3223 C.ar    1  UNL1        0.0168
     24 C           3.3368   -0.8660   31.3679 C.ar    1  UNL1        0.0309
     25 C           3.5544   -0.1184   32.6501 C.ar    1  UNL1        0.1402
     26 F           4.4747   -0.6747   33.6957 F       1  UNL1       -0.2042
     27 C           2.8517    1.1856   32.8864 C.ar    1  UNL1        0.0309
     28 C           1.9314    1.7419   31.8406 C.ar    1  UNL1        0.0168
@<TRIPOS>BOND
     1     2     1    1
     2     2     3    1
     3     3     4    1
     4     4    22    1
     5    22    23   ar
     6    23    24   ar
     7    24    25   ar
     8    25    26    1
     9    25    27   ar
    10    27    28   ar
    11     4     5    1
    12     5     6    1
    13     6     7    1
    14     7     8    1
    15     8     9   ar
    16     9    10   ar
    17    10    16    1
    18    16    17   ar
    19    17    18   ar
    20    18    19   ar
    21    19    20   ar
    22    20    21   ar
    23    10    11   ar
    24    11    12   ar
    25    12    13    2
    26    12    14   ar
    27    14    15    1
    28     7     2    1
    29    14     8   ar
    30    28    22   ar
    31    21    16   ar
@<TRIPOS>MOLECULE
*****
 28 31 0 0 0
SMALL
GASTEIGER

@<TRIPOS>ATOM
      1 C           1.5363    3.2062   22.2717 C.3     1  UNL1        0.0233
      2 C           1.5467    1.8473   21.6368 C.3     1  UNL1        0.0953
      3 C           2.5376    0.8159   22.0888 C.3     1  UNL1        0.1106
      4 N           2.5480   -0.5431   21.4539 N.pl3   1  UNL1       -0.3041
      5 C           1.5677   -0.8707   20.3669 C.3     1  UNL1        0.1123
      6 C           0.5768    0.1607   19.9149 C.3     1  UNL1        0.1149
      7 N           0.5664    1.5197   20.5498 N.pl3   1  UNL1       -0.2777
      8 C          -0.4245    2.5511   20.0977 C.ar    1  UNL1        0.2035
      9 N          -1.7489    2.6736   20.7913 N.ar    1  UNL1       -0.2133
     10 C          -2.7398    3.7049   20.3393 C.ar    1  UNL1        0.1065
     11 C          -2.4063    4.6139   19.1935 C.ar    1  UNL1        0.0815
     12 C          -1.0820    4.4915   18.4999 C.ar    1  UNL1        0.2646
     13 O          -0.7486    5.4004   17.3542 O.2     1  UNL1       -0.2668
     14 N          -0.0911    3.4600   18.9520 N.ar    1  UNL1       -0.2667
     15 C           1.2332    3.3376   18.2583 C.3     1  UNL1        0.1363
     16 C          -4.0641    3.8274   21.0329 C.ar    1  UNL1        0.1024
     17 C          -5.2593    4.3362   20.2830 C.ar    1  UNL1        0.0414
     18 C          -6.5837    4.4587   20.9766 C.ar    1  UNL1        0.1023
     19 N          -6.7128    4.0723   22.4202 N.ar    1  UNL1       -0.2224
     20 C          -5.5175    3.5634   23.1702 C.ar    1  UNL1        0.1989
     21 N          -4.1932    3.4410   22.4766 N.ar    1  UNL1       -0.2224
     22 C           3.5390   -1.5745   21.9060 C.ar    1  UNL1        0.0481
     23 C           3.9682   -1.6232   23.3425 C.ar    1  UNL1        0.0168
     24 C           4.9591   -2.6546   23.7946 C.ar    1  UNL1        0.0309
     25 C           5.5207   -3.6373   22.8103 C.ar    1  UNL1        0.1402
     26 F           6.5116   -4.6687   23.2624 F       1  UNL1       -0.2042
     27 C           5.0915   -3.5886   21.3738 C.ar    1  UNL1        0.0309
     28 C           4.1006   -2.5572   20.9217 C.ar    1  UNL1        0.0168
@<TRIPOS>BOND
     1     2     1    1
     2     2     3    1
     3     3     4    1
     4     4    22    1
     5    22    23   ar
     6    23    24   ar
     7    24    25   ar
     8    25    26    1
     9    25    27   ar
    10    27    28   ar
    11     4     5    1
    12     5     6    1
    13     6     7    1
    14     7     8    1
    15     8     9   ar
    16     9    10   ar
    17    10    16    1
    18    16    17   ar
    19    17    18   ar
    20    18    19   ar
    21    19    20   ar
    22    20    21   ar
    23    10    11   ar
    24    11    12   ar
    25    12    13    2
    26    12    14   ar
    27    14    15    1
    28     7     2    1
    29    14     8   ar
    30    28    22   ar
    31    21    16   ar
@<TRIPOS>MOLECULE
*****
 28 31 0 0 0
SMALL
GASTEIGER

@<TRIPOS>ATOM
      1 C           3.6355   -3.2965   19.5238 C.3     1  UNL1        0.0233
      2 C           3.6946   -1.8600   19.9515 C.3     1  UNL1        0.0953
      3 C           2.5219   -0.9565   19.7097 C.3     1  UNL1        0.1106
      4 N           2.5810    0.4800   20.1374 N.pl3   1  UNL1       -0.3041
      5 C           3.8129    1.0131   20.8069 C.3     1  UNL1        0.1123
      6 C           4.9856    0.1097   21.0487 C.3     1  UNL1        0.1149
      7 N           4.9265   -1.3268   20.6210 N.pl3   1  UNL1       -0.2777
      8 C           6.0993   -2.2303   20.8629 C.ar    1  UNL1        0.2035
      9 N           6.1401   -3.0945   22.0882 N.ar    1  UNL1       -0.2133
     10 C           7.3128   -3.9979   22.3301 C.ar    1  UNL1        0.1065
     11 C           8.4448   -4.0371   21.3467 C.ar    1  UNL1        0.0815
     12 C           8.4040   -3.1728   20.1213 C.ar    1  UNL1        0.2646
     13 O           9.5359   -3.2120   19.1379 O.2     1  UNL1       -0.2668
     14 N           7.2312   -2.2694   19.8795 N.ar    1  UNL1       -0.2667
     15 C           7.1904   -1.4052   18.6541 C.3     1  UNL1        0.1363
     16 C           7.3536   -4.8621   23.5555 C.ar    1  UNL1        0.1024
     17 C           6.8140   -4.3453   24.8561 C.ar    1  UNL1        0.0414
     18 C           6.8548   -5.2095   26.0814 C.ar    1  UNL1        0.1023
     19 N           7.4353   -6.5905   26.0061 N.ar    1  UNL1       -0.2224
     20 C           7.9750   -7.1074   24.7055 C.ar    1  UNL1        0.1989
     21 N           7.9341   -6.2432   23.4801 N.ar    1  UNL1       -0.2224
     22 C           1.4082    1.3834   19.8955 C.ar    1  UNL1        0.0481
     23 C           1.2513    2.0704   18.5714 C.ar    1  UNL1        0.0168
     24 C           0.0785    2.9738   18.3295 C.ar    1  UNL1        0.0309
     25 C          -0.9373    3.1902   19.4117 C.ar    1  UNL1        0.1402
     26 F          -2.1101    4.0936   19.1698 F       1  UNL1       -0.2042
     27 C          -0.7804    2.5032   20.7359 C.ar    1  UNL1        0.0309
     28 C           0.3924    1.5997   20.9777 C.ar    1  UNL1        0.0168
@<TRIPOS>BOND
     1     2     1    1
     2     2     3    1
     3     3     4    1
     4     4    22    1
     5    22    23   ar
     6    23    24   ar
     7    24    25   ar
     8    25    26    1
     9    25    27   ar
    10    27    28   ar
    11     4     5    1
    12     5     6    1
    13     6     7    1
    14     7     8    1
    15     8     9   ar
    16     9    10   ar
    17    10    16    1
    18    16    17   ar
    19    17    18   ar
    20    18    19   ar
    21    19    20   ar
    22    20    21   ar
    23    10    11   ar
    24    11    12   ar
    25    12    13    2
    26    12    14   ar
    27    14    15    1
    28     7     2    1
    29    14     8   ar
    30    28    22   ar
    31    21    16   ar
@<TRIPOS>MOLECULE
*****
 28 31 0 0 0
SMALL
GASTEIGER

@<TRIPOS>ATOM
      1 C           4.7248    1.5806   21.2398 C.3     1  UNL1        0.0233
      2 C           3.3292    1.0777   21.0176 C.3     1  UNL1        0.0953
      3 C           2.1585    1.9854   21.2531 C.3     1  UNL1        0.1106
      4 N           0.7629    1.4824   21.0309 N.pl3   1  UNL1       -0.3041
      5 C           0.5380    0.0718   20.5733 C.3     1  UNL1        0.1123
      6 C           1.7087   -0.8359   20.3378 C.3     1  UNL1        0.1149
      7 N           3.1043   -0.3330   20.5600 N.pl3   1  UNL1       -0.2777
      8 C           4.2750   -1.2408   20.3246 C.ar    1  UNL1        0.2035
      9 N           4.8352   -2.0510   21.4558 N.ar    1  UNL1       -0.2133
     10 C           6.0059   -2.9587   21.2204 C.ar    1  UNL1        0.1065
     11 C           6.6164   -3.0563   19.8537 C.ar    1  UNL1        0.0815
     12 C           6.0562   -2.2461   18.7225 C.ar    1  UNL1        0.2646
     13 O           6.6667   -2.3437   17.3558 O.2     1  UNL1       -0.2668
     14 N           4.8855   -1.3383   18.9579 N.ar    1  UNL1       -0.2667
     15 C           4.3253   -0.5281   17.8267 C.3     1  UNL1        0.1363
     16 C           6.5661   -3.7690   22.3517 C.ar    1  UNL1        0.1024
     17 C           6.0907   -3.5285   23.7538 C.ar    1  UNL1        0.0414
     18 C           6.6509   -4.3387   24.8851 C.ar    1  UNL1        0.1023
     19 N           7.6865   -5.3894   24.6142 N.ar    1  UNL1       -0.2224
     20 C           8.1620   -5.6299   23.2119 C.ar    1  UNL1        0.1989
     21 N           7.6018   -4.8197   22.0807 N.ar    1  UNL1       -0.2224
     22 C          -0.4078    2.3902   21.2664 C.ar    1  UNL1        0.0481
     23 C          -1.2701    2.8160   20.1152 C.ar    1  UNL1        0.0168
     24 C          -2.4408    3.7238   20.3506 C.ar    1  UNL1        0.0309
     25 C          -2.7493    4.2058   21.7372 C.ar    1  UNL1        0.1402
     26 F          -3.9199    5.1135   21.9726 F       1  UNL1       -0.2042
     27 C          -1.8870    3.7800   22.8884 C.ar    1  UNL1        0.0309
     28 C          -0.7162    2.8722   22.6529 C.ar    1  UNL1        0.0168
@<TRIPOS>BOND
     1     2     1    1
     2     2     3    1
     3     3     4    1
     4     4    22    1
     5    22    23   ar
     6    23    24   ar
     7    24    25   ar
     8    25    26    1
     9    25    27   ar
    10    27    28   ar
    11     4     5    1
    12     5     6    1
    13     6     7    1
    14     7     8    1
    15     8     9   ar
    16     9    10   ar
    17    10    16    1
    18    16    17   ar
    19    17    18   ar
    20    18    19   ar
    21    19    20   ar
    22    20    21   ar
    23    10    11   ar
    24    11    12   ar
    25    12    13    2
    26    12    14   ar
    27    14    15    1
    28     7     2    1
    29    14     8   ar
    30    28    22   ar
    31    21    16   ar
@<TRIPOS>MOLECULE
*****
 28 31 0 0 0
SMALL
GASTEIGER

@<TRIPOS>ATOM
      1 C           2.2808    3.3327   21.5153 C.3     1  UNL1        0.0233
      2 C           2.0161    1.9192   21.0889 C.3     1  UNL1        0.0953
      3 C           3.1394    0.9261   21.0454 C.3     1  UNL1        0.1106
      4 N           2.8747   -0.4874   20.6189 N.pl3   1  UNL1       -0.3041
      5 C           1.4868   -0.9079   20.2360 C.3     1  UNL1        0.1123
      6 C           0.3635    0.0852   20.2795 C.3     1  UNL1        0.1149
      7 N           0.6282    1.4988   20.7059 N.pl3   1  UNL1       -0.2777
      8 C          -0.4952    2.4919   20.7494 C.ar    1  UNL1        0.2035
      9 N          -1.3398    2.6153   21.9829 N.ar    1  UNL1       -0.2133
     10 C          -2.4631    3.6084   22.0265 C.ar    1  UNL1        0.1065
     11 C          -2.7420    4.4780   20.8365 C.ar    1  UNL1        0.0815
     12 C          -1.8974    4.3545   19.6030 C.ar    1  UNL1        0.2646
     13 O          -2.1762    5.2241   18.4130 O.2     1  UNL1       -0.2668
     14 N          -0.7740    3.3614   19.5595 N.ar    1  UNL1       -0.2667
     15 C           0.0705    3.2380   18.3260 C.3     1  UNL1        0.1363
     16 C          -3.3076    3.7318   23.2600 C.ar    1  UNL1        0.1024
     17 C          -2.6697    3.6623   24.6157 C.ar    1  UNL1        0.0414
     18 C          -3.5143    3.7857   25.8492 C.ar    1  UNL1        0.1023
     19 N          -4.9967    3.9787   25.7270 N.ar    1  UNL1       -0.2224
     20 C          -5.6347    4.0483   24.3711 C.ar    1  UNL1        0.1989
     21 N          -4.7902    3.9248   23.1376 N.ar    1  UNL1       -0.2224
     22 C           3.9981   -1.4805   20.5754 C.ar    1  UNL1        0.0481
     23 C           4.1665   -2.4717   21.6887 C.ar    1  UNL1        0.0168
     24 C           5.2898   -3.4647   21.6452 C.ar    1  UNL1        0.0309
     25 C           6.2448   -3.4667   20.4885 C.ar    1  UNL1        0.1402
     26 F           7.3681   -4.4598   20.4451 F       1  UNL1       -0.2042
     27 C           6.0765   -2.4756   19.3752 C.ar    1  UNL1        0.0309
     28 C           4.9531   -1.4825   19.4187 C.ar    1  UNL1        0.0168
@<TRIPOS>BOND
     1     2     1    1
     2     2     3    1
     3     3     4    1
     4     4    22    1
     5    22    23   ar
     6    23    24   ar
     7    24    25   ar
     8    25    26    1
     9    25    27   ar
    10    27    28   ar
    11     4     5    1
    12     5     6    1
    13     6     7    1
    14     7     8    1
    15     8     9   ar
    16     9    10   ar
    17    10    16    1
    18    16    17   ar
    19    17    18   ar
    20    18    19   ar
    21    19    20   ar
    22    20    21   ar
    23    10    11   ar
    24    11    12   ar
    25    12    13    2
    26    12    14   ar
    27    14    15    1
    28     7     2    1
    29    14     8   ar
    30    28    22   ar
    31    21    16   ar
@<TRIPOS>MOLECULE
*****
 28 31 0 0 0
SMALL
GASTEIGER

@<TRIPOS>ATOM
      1 C           1.8003    5.1062   33.1059 C.3     1  UNL1        0.0233
      2 C           1.7864    3.8621   32.2680 C.3     1  UNL1        0.0953
      3 C           1.1113    3.8676   30.9285 C.3     1  UNL1        0.1106
      4 N           1.0974    2.6235   30.0906 N.pl3   1  UNL1       -0.3041
      5 C           1.7586    1.3740   30.5921 C.3     1  UNL1        0.1123
      6 C           2.4338    1.3686   31.9315 C.3     1  UNL1        0.1149
      7 N           2.4477    2.6126   32.7695 N.pl3   1  UNL1       -0.2777
      8 C           3.1229    2.6072   34.1090 C.ar    1  UNL1        0.2035
      9 N           2.3432    2.2524   35.3403 N.ar    1  UNL1       -0.2133
     10 C           3.0183    2.2469   36.6798 C.ar    1  UNL1        0.1065
     11 C           4.4731    2.5962   36.7879 C.ar    1  UNL1        0.0815
     12 C           5.2528    2.9509   35.5565 C.ar    1  UNL1        0.2646
     13 O           6.7075    3.3002   35.6646 O.2     1  UNL1       -0.2668
     14 N           4.5776    2.9564   34.2170 N.ar    1  UNL1       -0.2667
     15 C           5.3572    3.3112   32.9856 C.3     1  UNL1        0.1363
     16 C           2.2387    1.8921   37.9112 C.ar    1  UNL1        0.1024
     17 C           2.5664    0.6417   38.6720 C.ar    1  UNL1        0.0414
     18 C           1.7868    0.2869   39.9034 C.ar    1  UNL1        0.1023
     19 N           0.6795    1.1826   40.3740 N.ar    1  UNL1       -0.2224
     20 C           0.3517    2.4331   39.6131 C.ar    1  UNL1        0.1989
     21 N           1.1313    2.7879   38.3817 N.ar    1  UNL1       -0.2224
     22 C           0.4222    2.6290   28.7511 C.ar    1  UNL1        0.0481
     23 C           0.0280    3.9291   28.1153 C.ar    1  UNL1        0.0168
     24 C          -0.6471    3.9347   26.7758 C.ar    1  UNL1        0.0309
     25 C          -0.9281    2.6400   26.0722 C.ar    1  UNL1        0.1402
     26 F          -1.6033    2.6456   24.7328 F       1  UNL1       -0.2042
     27 C          -0.5339    1.3399   26.7080 C.ar    1  UNL1        0.0309
     28 C           0.1413    1.3344   28.0475 C.ar    1  UNL1        0.0168
@<TRIPOS>BOND
     1     2     1    1
     2     2     3    1
     3     3     4    1
     4     4    22    1
     5    22    23   ar
     6    23    24   ar
     7    24    25   ar
     8    25    26    1
     9    25    27   ar
    10    27    28   ar
    11     4     5    1
    12     5     6    1
    13     6     7    1
    14     7     8    1
    15     8     9   ar
    16     9    10   ar
    17    10    16    1
    18    16    17   ar
    19    17    18   ar
    20    18    19   ar
    21    19    20   ar
    22    20    21   ar
    23    10    11   ar
    24    11    12   ar
    25    12    13    2
    26    12    14   ar
    27    14    15    1
    28     7     2    1
    29    14     8   ar
    30    28    22   ar
    31    21    16   ar
@<TRIPOS>MOLECULE
*****
 28 31 0 0 0
SMALL
GASTEIGER

@<TRIPOS>ATOM
      1 C          -0.6708   -0.1394   29.3455 C.3     1  UNL1        0.0233
      2 C          -0.1304    0.9889   28.5179 C.3     1  UNL1        0.0953
      3 C          -0.8324    1.3972   27.2569 C.3     1  UNL1        0.1106
      4 N          -0.2921    2.5255   26.4293 N.pl3   1  UNL1       -0.3041
      5 C           0.9504    3.2455   26.8628 C.3     1  UNL1        0.1123
      6 C           1.6524    2.8372   28.1238 C.3     1  UNL1        0.1149
      7 N           1.1120    1.7089   28.9514 N.pl3   1  UNL1       -0.2777
      8 C           1.8141    1.3006   30.2126 C.ar    1  UNL1        0.2035
      9 N           2.8548    0.2209   30.1757 N.ar    1  UNL1       -0.2133
     10 C           3.5569   -0.1874   31.4368 C.ar    1  UNL1        0.1065
     11 C           3.2183    0.4839   32.7348 C.ar    1  UNL1        0.0815
     12 C           2.1776    1.5636   32.7716 C.ar    1  UNL1        0.2646
     13 O           1.8391    2.2349   34.0696 O.2     1  UNL1       -0.2668
     14 N           1.4755    1.9719   31.5105 N.ar    1  UNL1       -0.2667
     15 C           0.4348    3.0515   31.5474 C.3     1  UNL1        0.1363
     16 C           4.5976   -1.2670   31.3999 C.ar    1  UNL1        0.1024
     17 C           4.8114   -2.1439   32.5980 C.ar    1  UNL1        0.0414
     18 C           5.8521   -3.2235   32.5611 C.ar    1  UNL1        0.1023
     19 N           6.6790   -3.4263   31.3262 N.ar    1  UNL1       -0.2224
     20 C           6.4652   -2.5494   30.1280 C.ar    1  UNL1        0.1989
     21 N           5.4245   -1.4698   30.1649 N.ar    1  UNL1       -0.2224
     22 C          -0.9942    2.9338   25.1681 C.ar    1  UNL1        0.0481
     23 C          -2.4022    3.4477   25.2263 C.ar    1  UNL1        0.0168
     24 C          -3.1043    3.8560   23.9653 C.ar    1  UNL1        0.0309
     25 C          -2.3984    3.7504   22.6459 C.ar    1  UNL1        0.1402
     26 F          -3.1005    4.1587   21.3849 F       1  UNL1       -0.2042
     27 C          -0.9904    3.2364   22.5877 C.ar    1  UNL1        0.0309
     28 C          -0.2883    2.8281   23.8489 C.ar    1  UNL1        0.0168
@<TRIPOS>BOND
     1     2     1    1
     2     2     3    1
     3     3     4    1
     4     4    22    1
     5    22    23   ar
     6    23    24   ar
     7    24    25   ar
     8    25    26    1
     9    25    27   ar
    10    27    28   ar
    11     4     5    1
    12     5     6    1
    13     6     7    1
    14     7     8    1
    15     8     9   ar
    16     9    10   ar
    17    10    16    1
    18    16    17   ar
    19    17    18   ar
    20    18    19   ar
    21    19    20   ar
    22    20    21   ar
    23    10    11   ar
    24    11    12   ar
    25    12    13    2
    26    12    14   ar
    27    14    15    1
    28     7     2    1
    29    14     8   ar
    30    28    22   ar
    31    21    16   ar
@<TRIPOS>MOLECULE
*****
 28 31 0 0 0
SMALL
GASTEIGER

@<TRIPOS>ATOM
      1 C           6.5153    0.0730   21.2562 C.3     1  UNL1        0.0233
      2 C           5.9909   -1.2219   21.8022 C.3     1  UNL1        0.0953
      3 C           6.7171   -1.9149   22.9168 C.3     1  UNL1        0.1106
      4 N           6.1926   -3.2098   23.4627 N.pl3   1  UNL1       -0.3041
      5 C           4.9420   -3.8118   22.8941 C.3     1  UNL1        0.1123
      6 C           4.2158   -3.1189   21.7795 C.3     1  UNL1        0.1149
      7 N           4.7402   -1.8239   21.2335 N.pl3   1  UNL1       -0.2777
      8 C           4.0139   -1.1310   20.1188 C.ar    1  UNL1        0.2035
      9 N           2.9258   -0.1467   20.4305 N.ar    1  UNL1       -0.2133
     10 C           2.1995    0.5463   19.3159 C.ar    1  UNL1        0.1065
     11 C           2.5614    0.2549   17.8896 C.ar    1  UNL1        0.0815
     12 C           3.6495   -0.7294   17.5780 C.ar    1  UNL1        0.2646
     13 O           4.0113   -1.0208   16.1518 O.2     1  UNL1       -0.2668
     14 N           4.3758   -1.4224   18.6926 N.ar    1  UNL1       -0.2667
     15 C           5.4639   -2.4067   18.3810 C.3     1  UNL1        0.1363
     16 C           1.1114    1.5306   19.6276 C.ar    1  UNL1        0.1024
     17 C           0.6607    2.5065   18.5814 C.ar    1  UNL1        0.0414
     18 C          -0.4274    3.4908   18.8931 C.ar    1  UNL1        0.1023
     19 N          -1.0648    3.4992   20.2508 N.ar    1  UNL1       -0.2224
     20 C          -0.6141    2.5233   21.2971 C.ar    1  UNL1        0.1989
     21 N           0.4740    1.5390   20.9854 N.ar    1  UNL1       -0.2224
     22 C           6.9189   -3.9028   24.5774 C.ar    1  UNL1        0.0481
     23 C           6.8286   -3.3701   25.9767 C.ar    1  UNL1        0.0168
     24 C           7.5548   -4.0630   27.0913 C.ar    1  UNL1        0.0309
     25 C           8.3715   -5.2886   26.8067 C.ar    1  UNL1        0.1402
     26 F           9.0977   -5.9815   27.9213 F       1  UNL1       -0.2042
     27 C           8.4618   -5.8213   25.4074 C.ar    1  UNL1        0.0309
     28 C           7.7355   -5.1284   24.2927 C.ar    1  UNL1        0.0168
@<TRIPOS>BOND
     1     2     1    1
     2     2     3    1
     3     3     4    1
     4     4    22    1
     5    22    23   ar
     6    23    24   ar
     7    24    25   ar
     8    25    26    1
     9    25    27   ar
    10    27    28   ar
    11     4     5    1
    12     5     6    1
    13     6     7    1
    14     7     8    1
    15     8     9   ar
    16     9    10   ar
    17    10    16    1
    18    16    17   ar
    19    17    18   ar
    20    18    19   ar
    21    19    20   ar
    22    20    21   ar
    23    10    11   ar
    24    11    12   ar
    25    12    13    2
    26    12    14   ar
    27    14    15    1
    28     7     2    1
    29    14     8   ar
    30    28    22   ar
    31    21    16   ar
@<TRIPOS>MOLECULE
*****
 28 31 0 0 0
SMALL
GASTEIGER

@<TRIPOS>ATOM
      1 C          -0.1077    2.8485   18.2103 C.3     1  UNL1        0.0233
      2 C          -0.4360    2.8673   19.6738 C.3     1  UNL1        0.0953
      3 C          -1.8218    3.2192   20.1271 C.3     1  UNL1        0.1106
      4 N          -2.1501    3.2380   21.5907 N.pl3   1  UNL1       -0.3041
      5 C          -1.0925    2.9048   22.6008 C.3     1  UNL1        0.1123
      6 C           0.2933    2.5529   22.1475 C.3     1  UNL1        0.1149
      7 N           0.6216    2.5341   20.6840 N.pl3   1  UNL1       -0.2777
      8 C           2.0075    2.1821   20.2307 C.ar    1  UNL1        0.2035
      9 N           2.3642    0.7525   19.9495 N.ar    1  UNL1       -0.2133
     10 C           3.7500    0.4005   19.4962 C.ar    1  UNL1        0.1065
     11 C           4.7793    1.4781   19.3241 C.ar    1  UNL1        0.0815
     12 C           4.4226    2.9077   19.6053 C.ar    1  UNL1        0.2646
     13 O           5.4517    3.9853   19.4333 O.2     1  UNL1       -0.2668
     14 N           3.0367    3.2597   20.0586 N.ar    1  UNL1       -0.2667
     15 C           2.6800    4.6892   20.3399 C.3     1  UNL1        0.1363
     16 C           4.1067   -1.0291   19.2149 C.ar    1  UNL1        0.1024
     17 C           3.1785   -2.1301   19.6344 C.ar    1  UNL1        0.0414
     18 C           3.5351   -3.5597   19.3532 C.ar    1  UNL1        0.1023
     19 N           4.8201   -3.8882   18.6525 N.ar    1  UNL1       -0.2224
     20 C           5.7484   -2.7871   18.2330 C.ar    1  UNL1        0.1989
     21 N           5.3917   -1.3575   18.5142 N.ar    1  UNL1       -0.2224
     22 C          -3.5360    3.5900   22.0440 C.ar    1  UNL1        0.0481
     23 C          -4.5850    3.9542   21.0356 C.ar    1  UNL1        0.0168
     24 C          -5.9709    4.3062   21.4888 C.ar    1  UNL1        0.0309
     25 C          -6.3078    4.2939   22.9505 C.ar    1  UNL1        0.1402
     26 F          -7.6936    4.6459   23.4038 F       1  UNL1       -0.2042
     27 C          -5.2587    3.9297   23.9589 C.ar    1  UNL1        0.0309
     28 C          -3.8728    3.5778   23.5056 C.ar    1  UNL1        0.0168
@<TRIPOS>BOND
     1     2     1    1
     2     2     3    1
     3     3     4    1
     4     4    22    1
     5    22    23   ar
     6    23    24   ar
     7    24    25   ar
     8    25    26    1
     9    25    27   ar
    10    27    28   ar
    11     4     5    1
    12     5     6    1
    13     6     7    1
    14     7     8    1
    15     8     9   ar
    16     9    10   ar
    17    10    16    1
    18    16    17   ar
    19    17    18   ar
    20    18    19   ar
    21    19    20   ar
    22    20    21   ar
    23    10    11   ar
    24    11    12   ar
    25    12    13    2
    26    12    14   ar
    27    14    15    1
    28     7     2    1
    29    14     8   ar
    30    28    22   ar
    31    21    16   ar
