@<TRIPOS>MOLECULE
*****
 31 34 0 0 0
SMALL
GASTEIGER

@<TRIPOS>ATOM
      1 O          -9.9634  -21.1499   25.3168 O.2     1  UNL1       -0.2865
      2 C          -9.7271  -20.2401   24.1479 C.ar    1  UNL1        0.1981
      3 C          -8.4008  -20.2481   23.4473 C.ar    1  UNL1        0.0633
      4 C          -8.1645  -19.3383   22.2784 C.ar    1  UNL1        0.0817
      5 S          -9.2544  -18.4204   21.8100 S.2     1  UNL1       -0.0660
      6 C         -10.5807  -18.4124   22.5105 C.ar    1  UNL1        0.1030
      7 C         -11.6708  -17.4945   22.0422 C.ar    1  UNL1        0.2959
      8 C         -12.9971  -17.4864   22.7427 C.ar    1  UNL1        0.0797
      9 C         -13.2334  -18.3962   23.9116 C.ar    1  UNL1        0.0776
     10 C         -12.1435  -19.3141   24.3800 C.ar    1  UNL1        0.0079
     11 C         -10.8171  -19.3222   23.6795 C.ar    1  UNL1        0.0509
     12 N          -6.8381  -19.3464   21.5778 N.pl3   1  UNL1       -0.2997
     13 C          -6.7612  -19.0292   20.1138 C.3     1  UNL1        0.1086
     14 C          -5.4349  -19.0373   19.4132 C.3     1  UNL1        0.0938
     15 N          -4.1854  -19.3626   20.1767 N.3     1  UNL1       -0.2698
     16 C          -4.2622  -19.6799   21.6408 C.3     1  UNL1        0.0938
     17 C          -5.5886  -19.6718   22.3413 C.3     1  UNL1        0.1086
     18 C          -2.8591  -19.3707   19.4762 C.3     1  UNL1        0.0721
     19 C          -1.8115  -18.3614   19.8420 C.3     1  UNL1        0.0160
     20 C          -0.3886  -18.5689   19.4150 C.3     1  UNL1        0.0014
     21 C           0.6590  -17.5596   19.7808 C.3     1  UNL1        0.0000
     22 C           0.2838  -16.3428   20.5736 C.3     1  UNL1        0.0000
     23 C          -1.1391  -16.1354   21.0007 C.3     1  UNL1        0.0000
     24 C          -2.1867  -17.1447   20.6348 C.3     1  UNL1        0.0014
     25 C         -14.5598  -18.3881   24.6122 C.3     1  UNL1        0.4188
     26 F         -15.8862  -18.3800   25.3127 F       1  UNL1       -0.1659
     27 F         -15.2563  -18.5640   23.2954 F       1  UNL1       -0.1659
     28 F         -13.8633  -18.2122   25.9289 F       1  UNL1       -0.1659
     29 N         -11.4344  -16.5847   20.8732 N.pl3   1  UNL1        0.0814
     30 O         -12.2568  -16.7348   19.6277 O.2     1  UNL1        0.0415
     31 O         -10.3758  -15.5248   20.9498 O.co2   1  UNL1       -0.5760
@<TRIPOS>UNITY_ATOM_ATTR
29 1
charge 1
31 1
charge -1
@<TRIPOS>BOND
     1     1     2    2
     2     2     3   ar
     3     3     4   ar
     4     4    12    1
     5    12    13    1
     6    13    14    1
     7    14    15    1
     8    15    18    1
     9    18    19    1
    10    19    20    1
    11    20    21    1
    12    21    22    1
    13    22    23    1
    14    23    24    1
    15    15    16    1
    16    16    17    1
    17     4     5   ar
    18     5     6   ar
    19     6     7   ar
    20     7    29    1
    21    29    30    2
    22    29    31    1
    23     7     8   ar
    24     8     9   ar
    25     9    25    1
    26    25    26    1
    27    25    27    1
    28    25    28    1
    29     9    10   ar
    30    10    11   ar
    31    11     2   ar
    32    17    12    1
    33    11     6   ar
    34    24    19    1
@<TRIPOS>MOLECULE
*****
 31 34 0 0 0
SMALL
GASTEIGER

@<TRIPOS>ATOM
      1 O           0.3196    6.5015   28.5885 O.2     1  UNL1       -0.2865
      2 C           0.5003    5.1350   29.1801 C.ar    1  UNL1        0.1981
      3 C           1.0003    4.9867   30.5865 C.ar    1  UNL1        0.0633
      4 C           1.1810    3.6202   31.1782 C.ar    1  UNL1        0.0817
      5 S           0.8617    2.4020   30.3634 S.2     1  UNL1       -0.0660
      6 C           0.3616    2.5502   28.9571 C.ar    1  UNL1        0.1030
      7 C           0.0422    1.3319   28.1422 C.ar    1  UNL1        0.2959
      8 C          -0.4578    1.4802   26.7359 C.ar    1  UNL1        0.0797
      9 C          -0.6385    2.8467   26.1442 C.ar    1  UNL1        0.0776
     10 C          -0.3192    4.0649   26.9590 C.ar    1  UNL1        0.0079
     11 C           0.1809    3.9167   28.3654 C.ar    1  UNL1        0.0509
     12 N           1.6811    3.4720   32.5846 N.pl3   1  UNL1       -0.2997
     13 C           2.4978    2.2737   32.9678 C.3     1  UNL1        0.1086
     14 C           2.9979    2.1254   34.3742 C.3     1  UNL1        0.0938
     15 N           2.6812    3.1756   35.3974 N.3     1  UNL1       -0.2698
     16 C           1.8645    4.3740   35.0142 C.3     1  UNL1        0.0938
     17 C           1.3644    4.5222   33.6078 C.3     1  UNL1        0.1086
     18 C           3.1813    3.0274   36.8038 C.3     1  UNL1        0.0721
     19 C           2.3346    2.3378   37.8321 C.3     1  UNL1        0.0160
     20 C           1.1533    3.0448   38.4275 C.3     1  UNL1        0.0014
     21 C           0.3065    2.3552   39.4559 C.3     1  UNL1        0.0000
     22 C           0.6411    0.9586   39.8888 C.3     1  UNL1        0.0000
     23 C           1.8224    0.2516   39.2934 C.3     1  UNL1        0.0000
     24 C           2.6691    0.9411   38.2651 C.3     1  UNL1        0.0014
     25 C          -1.1386    2.9949   24.7378 C.3     1  UNL1        0.4188
     26 F          -1.6387    3.1431   23.3314 F       1  UNL1       -0.1659
     27 F          -2.5500    3.0363   25.2440 F       1  UNL1       -0.1659
     28 F           0.2727    2.9535   24.2315 F       1  UNL1       -0.1659
     29 N           0.2229   -0.0346   28.7339 N.pl3   1  UNL1        0.0814
     30 O          -0.9432   -0.7414   29.3590 O.2     1  UNL1        0.0415
     31 O           1.5696   -0.6942   28.7005 O.co2   1  UNL1       -0.5760
@<TRIPOS>UNITY_ATOM_ATTR
29 1
charge 1
31 1
charge -1
@<TRIPOS>BOND
     1     1     2    2
     2     2     3   ar
     3     3     4   ar
     4     4    12    1
     5    12    13    1
     6    13    14    1
     7    14    15    1
     8    15    18    1
     9    18    19    1
    10    19    20    1
    11    20    21    1
    12    21    22    1
    13    22    23    1
    14    23    24    1
    15    15    16    1
    16    16    17    1
    17     4     5   ar
    18     5     6   ar
    19     6     7   ar
    20     7    29    1
    21    29    30    2
    22    29    31    1
    23     7     8   ar
    24     8     9   ar
    25     9    25    1
    26    25    26    1
    27    25    27    1
    28    25    28    1
    29     9    10   ar
    30    10    11   ar
    31    11     2   ar
    32    17    12    1
    33    11     6   ar
    34    24    19    1
@<TRIPOS>MOLECULE
*****
 31 34 0 0 0
SMALL
GASTEIGER

@<TRIPOS>ATOM
      1 O           5.4050   -3.0366   24.3968 O.2     1  UNL1       -0.2865
      2 C           4.4223   -1.9844   23.9759 C.ar    1  UNL1        0.1981
      3 C           3.9590   -0.9534   24.9619 C.ar    1  UNL1        0.0633
      4 C           2.9762    0.0987   24.5410 C.ar    1  UNL1        0.0817
      5 S           2.4568    0.1199   23.1340 S.2     1  UNL1       -0.0660
      6 C           2.9201   -0.9111   22.1480 C.ar    1  UNL1        0.1030
      7 C           2.4007   -0.8900   20.7409 C.ar    1  UNL1        0.2959
      8 C           2.8640   -1.9210   19.7548 C.ar    1  UNL1        0.0797
      9 C           3.8467   -2.9732   20.1758 C.ar    1  UNL1        0.0776
     10 C           4.3661   -2.9943   21.5828 C.ar    1  UNL1        0.0079
     11 C           3.9028   -1.9633   22.5689 C.ar    1  UNL1        0.0509
     12 N           2.5129    1.1298   25.5271 N.pl3   1  UNL1       -0.2997
     13 C           1.0459    1.3705   25.7270 C.3     1  UNL1        0.1086
     14 C           0.5826    2.4015   26.7131 C.3     1  UNL1        0.0938
     15 N           1.5863    3.1918   27.4994 N.3     1  UNL1       -0.2698
     16 C           3.0533    2.9510   27.2995 C.3     1  UNL1        0.0938
     17 C           3.5166    1.9200   26.3133 C.3     1  UNL1        0.1086
     18 C           1.1230    4.2227   28.4854 C.3     1  UNL1        0.0721
     19 C           1.1282    3.9126   29.9530 C.3     1  UNL1        0.0160
     20 C           1.0766    2.4877   30.4187 C.3     1  UNL1        0.0014
     21 C           1.0819    2.1776   31.8863 C.3     1  UNL1        0.0000
     22 C           1.1387    3.2924   32.8882 C.3     1  UNL1        0.0000
     23 C           1.1903    4.7173   32.4225 C.3     1  UNL1        0.0000
     24 C           1.1851    5.0274   30.9550 C.3     1  UNL1        0.0014
     25 C           4.3100   -4.0042   19.1896 C.3     1  UNL1        0.4188
     26 F           4.7732   -5.0352   18.2035 F       1  UNL1       -0.1659
     27 F           2.8919   -4.4503   18.9899 F       1  UNL1       -0.1659
     28 F           5.7281   -3.5581   19.3893 F       1  UNL1       -0.1659
     29 N           1.4179    0.1622   20.3199 N.pl3   1  UNL1        0.0814
     30 O           1.8954    1.3912   19.6045 O.2     1  UNL1        0.0415
     31 O          -0.0422   -0.0146   20.6143 O.co2   1  UNL1       -0.5760
@<TRIPOS>UNITY_ATOM_ATTR
29 1
charge 1
31 1
charge -1
@<TRIPOS>BOND
     1     1     2    2
     2     2     3   ar
     3     3     4   ar
     4     4    12    1
     5    12    13    1
     6    13    14    1
     7    14    15    1
     8    15    18    1
     9    18    19    1
    10    19    20    1
    11    20    21    1
    12    21    22    1
    13    22    23    1
    14    23    24    1
    15    15    16    1
    16    16    17    1
    17     4     5   ar
    18     5     6   ar
    19     6     7   ar
    20     7    29    1
    21    29    30    2
    22    29    31    1
    23     7     8   ar
    24     8     9   ar
    25     9    25    1
    26    25    26    1
    27    25    27    1
    28    25    28    1
    29     9    10   ar
    30    10    11   ar
    31    11     2   ar
    32    17    12    1
    33    11     6   ar
    34    24    19    1
@<TRIPOS>MOLECULE
*****
 31 34 0 0 0
SMALL
GASTEIGER

@<TRIPOS>ATOM
      1 O           1.0832    1.6978   24.3272 O.2     1  UNL1       -0.2865
      2 C           2.1231    0.6168   24.3218 C.ar    1  UNL1        0.1981
      3 C           2.7958    0.2169   25.6014 C.ar    1  UNL1        0.0633
      4 C           3.8357   -0.8641   25.5961 C.ar    1  UNL1        0.0817
      5 S           4.2028   -1.5453   24.3111 S.2     1  UNL1       -0.0660
      6 C           3.5300   -1.1454   23.0315 C.ar    1  UNL1        0.1030
      7 C           3.8971   -1.8266   21.7464 C.ar    1  UNL1        0.2959
      8 C           3.2243   -1.4268   20.4668 C.ar    1  UNL1        0.0797
      9 C           2.1845   -0.3457   20.4722 C.ar    1  UNL1        0.0776
     10 C           1.8174    0.3355   21.7572 C.ar    1  UNL1        0.0079
     11 C           2.4901   -0.0644   23.0369 C.ar    1  UNL1        0.0509
     12 N           4.5084   -1.2640   26.8758 N.pl3   1  UNL1       -0.2997
     13 C           5.5792   -2.3144   26.8638 C.3     1  UNL1        0.1086
     14 C           6.2519   -2.7143   28.1434 C.3     1  UNL1        0.0938
     15 N           5.8540   -2.0638   29.4351 N.3     1  UNL1       -0.2698
     16 C           4.7832   -1.0133   29.4471 C.3     1  UNL1        0.0938
     17 C           4.1105   -0.6135   28.1674 C.3     1  UNL1        0.1086
     18 C           6.5267   -2.4636   30.7147 C.3     1  UNL1        0.0721
     19 C           6.0472   -1.9036   32.0210 C.3     1  UNL1        0.0160
     20 C           4.8333   -2.4828   32.6850 C.3     1  UNL1        0.0014
     21 C           4.3538   -1.9228   33.9913 C.3     1  UNL1        0.0000
     22 C           5.0882   -0.7835   34.6336 C.3     1  UNL1        0.0000
     23 C           6.3021   -0.2043   33.9697 C.3     1  UNL1        0.0000
     24 C           6.7816   -0.7643   32.6634 C.3     1  UNL1        0.0014
     25 C           1.5117    0.0542   19.1925 C.3     1  UNL1        0.4188
     26 F           0.8390    0.4540   17.9128 F       1  UNL1       -0.1659
     27 F           2.8175   -0.0750   18.4657 F       1  UNL1       -0.1659
     28 F           0.2059    0.1833   19.9193 F       1  UNL1       -0.1659
     29 N           4.9369   -2.9077   21.7411 N.pl3   1  UNL1        0.0814
     30 O           6.3842   -2.5553   21.5640 O.2     1  UNL1        0.0415
     31 O           4.5296   -4.3410   21.9128 O.co2   1  UNL1       -0.5760
@<TRIPOS>UNITY_ATOM_ATTR
29 1
charge 1
31 1
charge -1
@<TRIPOS>BOND
     1     1     2    2
     2     2     3   ar
     3     3     4   ar
     4     4    12    1
     5    12    13    1
     6    13    14    1
     7    14    15    1
     8    15    18    1
     9    18    19    1
    10    19    20    1
    11    20    21    1
    12    21    22    1
    13    22    23    1
    14    23    24    1
    15    15    16    1
    16    16    17    1
    17     4     5   ar
    18     5     6   ar
    19     6     7   ar
    20     7    29    1
    21    29    30    2
    22    29    31    1
    23     7     8   ar
    24     8     9   ar
    25     9    25    1
    26    25    26    1
    27    25    27    1
    28    25    28    1
    29     9    10   ar
    30    10    11   ar
    31    11     2   ar
    32    17    12    1
    33    11     6   ar
    34    24    19    1
@<TRIPOS>MOLECULE
*****
 31 34 0 0 0
SMALL
GASTEIGER

@<TRIPOS>ATOM
      1 O           2.8117   -1.0011   23.2900 O.2     1  UNL1       -0.2865
      2 C           2.7330   -0.5428   21.8639 C.ar    1  UNL1        0.1981
      3 C           1.6756    0.4365   21.4481 C.ar    1  UNL1        0.0633
      4 C           1.5969    0.8948   20.0220 C.ar    1  UNL1        0.0817
      5 S           2.5755    0.3738   19.0117 S.2     1  UNL1       -0.0660
      6 C           3.6329   -0.6055   19.4275 C.ar    1  UNL1        0.1030
      7 C           4.6116   -1.1265   18.4171 C.ar    1  UNL1        0.2959
      8 C           5.6689   -2.1058   18.8329 C.ar    1  UNL1        0.0797
      9 C           5.7477   -2.5642   20.2590 C.ar    1  UNL1        0.0776
     10 C           4.7690   -2.0432   21.2693 C.ar    1  UNL1        0.0079
     11 C           3.7116   -1.0638   20.8536 C.ar    1  UNL1        0.0509
     12 N           0.5395    1.8742   19.6063 N.pl3   1  UNL1       -0.2997
     13 C          -0.5494    2.2543   20.5654 C.3     1  UNL1        0.1086
     14 C          -1.6068    3.2336   20.1497 C.3     1  UNL1        0.0938
     15 N          -1.5753    3.8329   18.7749 N.3     1  UNL1       -0.2698
     16 C          -0.4864    3.4528   17.8158 C.3     1  UNL1        0.0938
     17 C           0.5710    2.4734   18.2316 C.3     1  UNL1        0.1086
     18 C          -2.6327    4.8122   18.3592 C.3     1  UNL1        0.0721
     19 C          -4.0389    4.6538   18.8567 C.3     1  UNL1        0.0160
     20 C          -4.5338    5.5032   19.9897 C.3     1  UNL1        0.0014
     21 C          -5.9400    5.3448   20.4872 C.3     1  UNL1        0.0000
     22 C          -6.8513    4.3371   19.8517 C.3     1  UNL1        0.0000
     23 C          -6.3565    3.4877   18.7188 C.3     1  UNL1        0.0000
     24 C          -4.9502    3.6461   18.2213 C.3     1  UNL1        0.0014
     25 C           6.8051   -3.5435   20.6747 C.3     1  UNL1        0.4188
     26 F           7.8624   -4.5229   21.0905 F       1  UNL1       -0.1659
     27 F           5.9636   -3.9547   21.8463 F       1  UNL1       -0.1659
     28 F           7.6466   -3.1324   19.5031 F       1  UNL1       -0.1659
     29 N           4.5329   -0.6682   16.9910 N.pl3   1  UNL1        0.0814
     30 O           3.5363   -1.2892   16.0576 O.2     1  UNL1        0.0415
     31 O           5.4507    0.4111   16.4984 O.co2   1  UNL1       -0.5760
@<TRIPOS>UNITY_ATOM_ATTR
29 1
charge 1
31 1
charge -1
@<TRIPOS>BOND
     1     1     2    2
     2     2     3   ar
     3     3     4   ar
     4     4    12    1
     5    12    13    1
     6    13    14    1
     7    14    15    1
     8    15    18    1
     9    18    19    1
    10    19    20    1
    11    20    21    1
    12    21    22    1
    13    22    23    1
    14    23    24    1
    15    15    16    1
    16    16    17    1
    17     4     5   ar
    18     5     6   ar
    19     6     7   ar
    20     7    29    1
    21    29    30    2
    22    29    31    1
    23     7     8   ar
    24     8     9   ar
    25     9    25    1
    26    25    26    1
    27    25    27    1
    28    25    28    1
    29     9    10   ar
    30    10    11   ar
    31    11     2   ar
    32    17    12    1
    33    11     6   ar
    34    24    19    1
@<TRIPOS>MOLECULE
*****
 31 34 0 0 0
SMALL
GASTEIGER

@<TRIPOS>ATOM
      1 O           7.1735   -2.6270   29.4090 O.2     1  UNL1       -0.2865
      2 C           5.9129   -1.9528   28.9547 C.ar    1  UNL1        0.1981
      3 C           5.5772   -1.8963   27.4939 C.ar    1  UNL1        0.0633
      4 C           4.3166   -1.2221   27.0396 C.ar    1  UNL1        0.0817
      5 S           3.3918   -0.6044   28.0462 S.2     1  UNL1       -0.0660
      6 C           3.7276   -0.6609   29.5070 C.ar    1  UNL1        0.1030
      7 C           2.8027   -0.0432   30.5136 C.ar    1  UNL1        0.2959
      8 C           3.1385   -0.0997   31.9744 C.ar    1  UNL1        0.0797
      9 C           4.3991   -0.7739   32.4287 C.ar    1  UNL1        0.0776
     10 C           5.3239   -1.3916   31.4221 C.ar    1  UNL1        0.0079
     11 C           4.9881   -1.3351   29.9612 C.ar    1  UNL1        0.0509
     12 N           3.9808   -1.1656   25.5787 N.pl3   1  UNL1       -0.2997
     13 C           2.9581   -0.1873   25.0815 C.3     1  UNL1        0.1086
     14 C           2.6224   -0.1308   23.6207 C.3     1  UNL1        0.0938
     15 N           3.3093   -1.0525   22.6570 N.3     1  UNL1       -0.2698
     16 C           4.3320   -2.0307   23.1542 C.3     1  UNL1        0.0938
     17 C           4.6677   -2.0872   24.6151 C.3     1  UNL1        0.1086
     18 C           2.9735   -0.9960   21.1962 C.3     1  UNL1        0.0721
     19 C           3.8645   -1.6699   20.1952 C.3     1  UNL1        0.0160
     20 C           5.0602   -0.9473   19.6492 C.3     1  UNL1        0.0014
     21 C           5.9512   -1.6212   18.6482 C.3     1  UNL1        0.0000
     22 C           5.6465   -3.0176   18.1932 C.3     1  UNL1        0.0000
     23 C           4.4508   -3.7402   18.7392 C.3     1  UNL1        0.0000
     24 C           3.5598   -3.0663   19.7402 C.3     1  UNL1        0.0014
     25 C           4.7349   -0.8304   33.8896 C.3     1  UNL1        0.4188
     26 F           5.0706   -0.8869   35.3504 F       1  UNL1       -0.1659
     27 F           5.2532    0.5756   33.8248 F       1  UNL1       -0.1659
     28 F           4.2166   -2.2365   33.9544 F       1  UNL1       -0.1659
     29 N           1.5422    0.6310   30.0593 N.pl3   1  UNL1        0.0814
     30 O           1.5151    2.1182   29.8652 O.2     1  UNL1        0.0415
     31 O           0.3087   -0.1818   29.7992 O.co2   1  UNL1       -0.5760
@<TRIPOS>UNITY_ATOM_ATTR
29 1
charge 1
31 1
charge -1
@<TRIPOS>BOND
     1     1     2    2
     2     2     3   ar
     3     3     4   ar
     4     4    12    1
     5    12    13    1
     6    13    14    1
     7    14    15    1
     8    15    18    1
     9    18    19    1
    10    19    20    1
    11    20    21    1
    12    21    22    1
    13    22    23    1
    14    23    24    1
    15    15    16    1
    16    16    17    1
    17     4     5   ar
    18     5     6   ar
    19     6     7   ar
    20     7    29    1
    21    29    30    2
    22    29    31    1
    23     7     8   ar
    24     8     9   ar
    25     9    25    1
    26    25    26    1
    27    25    27    1
    28    25    28    1
    29     9    10   ar
    30    10    11   ar
    31    11     2   ar
    32    17    12    1
    33    11     6   ar
    34    24    19    1
@<TRIPOS>MOLECULE
*****
 31 34 0 0 0
SMALL
GASTEIGER

@<TRIPOS>ATOM
      1 O           3.9104    0.4866   29.0189 O.2     1  UNL1       -0.2865
      2 C           4.7778   -0.7207   28.8193 C.ar    1  UNL1        0.1981
      3 C           5.1648   -1.1453   27.4337 C.ar    1  UNL1        0.0633
      4 C           6.0322   -2.3527   27.2340 C.ar    1  UNL1        0.0817
      5 S           6.5127   -3.1354   28.4200 S.2     1  UNL1       -0.0660
      6 C           6.1257   -2.7108   29.8055 C.ar    1  UNL1        0.1030
      7 C           6.6061   -3.4936   30.9916 C.ar    1  UNL1        0.2959
      8 C           6.2191   -3.0690   32.3771 C.ar    1  UNL1        0.0797
      9 C           5.3517   -1.8616   32.5768 C.ar    1  UNL1        0.0776
     10 C           4.8713   -1.0789   31.3909 C.ar    1  UNL1        0.0079
     11 C           5.2582   -1.5035   30.0052 C.ar    1  UNL1        0.0509
     12 N           6.4192   -2.7773   25.8484 N.pl3   1  UNL1       -0.2997
     13 C           6.7883   -4.2057   25.5773 C.3     1  UNL1        0.1086
     14 C           7.1753   -4.6303   24.1917 C.3     1  UNL1        0.0938
     15 N           7.1932   -3.6265   23.0771 N.3     1  UNL1       -0.2698
     16 C           6.8240   -2.1982   23.3482 C.3     1  UNL1        0.0938
     17 C           6.4371   -1.7735   24.7339 C.3     1  UNL1        0.1086
     18 C           7.5802   -4.0512   21.6915 C.3     1  UNL1        0.0721
     19 C           6.7886   -3.5710   20.5113 C.3     1  UNL1        0.0160
     20 C           5.3610   -3.9988   20.3416 C.3     1  UNL1        0.0014
     21 C           4.5694   -3.5186   19.1614 C.3     1  UNL1        0.0000
     22 C           5.2053   -2.6106   18.1510 C.3     1  UNL1        0.0000
     23 C           6.6329   -2.1828   18.3208 C.3     1  UNL1        0.0000
     24 C           7.4245   -2.6630   19.5009 C.3     1  UNL1        0.0014
     25 C           4.9647   -1.4370   33.9625 C.3     1  UNL1        0.4188
     26 F           4.5778   -1.0124   35.3481 F       1  UNL1       -0.1659
     27 F           5.9793   -0.3336   33.9077 F       1  UNL1       -0.1659
     28 F           3.9501   -2.5404   34.0173 F       1  UNL1       -0.1659
     29 N           7.4735   -4.7009   30.7919 N.pl3   1  UNL1        0.0814
     30 O           6.8489   -6.0562   30.6391 O.2     1  UNL1        0.0415
     31 O           8.9655   -4.5531   30.7451 O.co2   1  UNL1       -0.5760
@<TRIPOS>UNITY_ATOM_ATTR
29 1
charge 1
31 1
charge -1
@<TRIPOS>BOND
     1     1     2    2
     2     2     3   ar
     3     3     4   ar
     4     4    12    1
     5    12    13    1
     6    13    14    1
     7    14    15    1
     8    15    18    1
     9    18    19    1
    10    19    20    1
    11    20    21    1
    12    21    22    1
    13    22    23    1
    14    23    24    1
    15    15    16    1
    16    16    17    1
    17     4     5   ar
    18     5     6   ar
    19     6     7   ar
    20     7    29    1
    21    29    30    2
    22    29    31    1
    23     7     8   ar
    24     8     9   ar
    25     9    25    1
    26    25    26    1
    27    25    27    1
    28    25    28    1
    29     9    10   ar
    30    10    11   ar
    31    11     2   ar
    32    17    12    1
    33    11     6   ar
    34    24    19    1
@<TRIPOS>MOLECULE
*****
 31 34 0 0 0
SMALL
GASTEIGER

@<TRIPOS>ATOM
      1 O          -4.0159    4.3935   21.3384 O.2     1  UNL1       -0.2865
      2 C          -2.8241    3.7981   22.0277 C.ar    1  UNL1        0.1981
      3 C          -1.7005    3.2210   21.2186 C.ar    1  UNL1        0.0633
      4 C          -0.5087    2.6256   21.9079 C.ar    1  UNL1        0.0817
      5 S          -0.4405    2.6073   23.4062 S.2     1  UNL1       -0.0660
      6 C          -1.5641    3.1844   24.2152 C.ar    1  UNL1        0.1030
      7 C          -1.4959    3.1661   25.7136 C.ar    1  UNL1        0.2959
      8 C          -2.6194    3.7431   26.5226 C.ar    1  UNL1        0.0797
      9 C          -3.8112    4.3385   25.8334 C.ar    1  UNL1        0.0776
     10 C          -3.8795    4.3569   24.3351 C.ar    1  UNL1        0.0079
     11 C          -2.7559    3.7798   23.5260 C.ar    1  UNL1        0.0509
     12 N           0.6149    2.0486   21.0988 N.pl3   1  UNL1       -0.2997
     13 C           0.4106    1.7392   19.6454 C.3     1  UNL1        0.1086
     14 C           1.5341    1.1621   18.8363 C.3     1  UNL1        0.0938
     15 N           2.8620    0.8944   19.4807 N.3     1  UNL1       -0.2698
     16 C           3.0663    1.2038   20.9341 C.3     1  UNL1        0.0938
     17 C           1.9427    1.7809   21.7432 C.3     1  UNL1        0.1086
     18 C           3.9855    0.3174   18.6716 C.3     1  UNL1        0.0721
     19 C           4.2661   -1.1553   18.7211 C.3     1  UNL1        0.0160
     20 C           5.5595   -1.6909   18.1824 C.3     1  UNL1        0.0014
     21 C           5.8401   -3.1636   18.2320 C.3     1  UNL1        0.0000
     22 C           4.8274   -4.1007   18.8203 C.3     1  UNL1        0.0000
     23 C           3.5340   -3.5651   19.3590 C.3     1  UNL1        0.0000
     24 C           3.2534   -2.0924   19.3095 C.3     1  UNL1        0.0014
     25 C          -4.9348    4.9156   26.6425 C.3     1  UNL1        0.4188
     26 F          -6.0584    5.4927   27.4515 F       1  UNL1       -0.1659
     27 F          -3.9428    5.4948   27.6069 F       1  UNL1       -0.1659
     28 F          -5.9269    4.3364   25.6780 F       1  UNL1       -0.1659
     29 N          -0.3041    2.5707   26.4029 N.pl3   1  UNL1        0.0814
     30 O           0.8893    3.4259   26.7105 O.2     1  UNL1        0.0415
     31 O          -0.3056    1.1201   26.7847 O.co2   1  UNL1       -0.5760
@<TRIPOS>UNITY_ATOM_ATTR
29 1
charge 1
31 1
charge -1
@<TRIPOS>BOND
     1     1     2    2
     2     2     3   ar
     3     3     4   ar
     4     4    12    1
     5    12    13    1
     6    13    14    1
     7    14    15    1
     8    15    18    1
     9    18    19    1
    10    19    20    1
    11    20    21    1
    12    21    22    1
    13    22    23    1
    14    23    24    1
    15    15    16    1
    16    16    17    1
    17     4     5   ar
    18     5     6   ar
    19     6     7   ar
    20     7    29    1
    21    29    30    2
    22    29    31    1
    23     7     8   ar
    24     8     9   ar
    25     9    25    1
    26    25    26    1
    27    25    27    1
    28    25    28    1
    29     9    10   ar
    30    10    11   ar
    31    11     2   ar
    32    17    12    1
    33    11     6   ar
    34    24    19    1
@<TRIPOS>MOLECULE
*****
 31 34 0 0 0
SMALL
GASTEIGER

@<TRIPOS>ATOM
      1 O           0.9437    0.2676   29.8445 O.2     1  UNL1       -0.2865
      2 C           2.1973   -0.1745   29.1497 C.ar    1  UNL1        0.1981
      3 C           2.2897   -0.1066   27.6541 C.ar    1  UNL1        0.0633
      4 C           3.5433   -0.5488   26.9592 C.ar    1  UNL1        0.0817
      5 S           4.7046   -1.0589   27.7599 S.2     1  UNL1       -0.0660
      6 C           4.6123   -1.1268   29.2555 C.ar    1  UNL1        0.1030
      7 C           5.7736   -1.6369   30.0563 C.ar    1  UNL1        0.2959
      8 C           5.6812   -1.7048   31.5519 C.ar    1  UNL1        0.0797
      9 C           4.4276   -1.2627   32.2467 C.ar    1  UNL1        0.0776
     10 C           3.2663   -0.7526   31.4460 C.ar    1  UNL1        0.0079
     11 C           3.3586   -0.6846   29.9504 C.ar    1  UNL1        0.0509
     12 N           3.6357   -0.4809   25.4635 N.pl3   1  UNL1       -0.2997
     13 C           2.5836    0.2461   24.6795 C.3     1  UNL1        0.1086
     14 C           2.6759    0.3141   23.1839 C.3     1  UNL1        0.0938
     15 N           3.8203   -0.3450   22.4723 N.3     1  UNL1       -0.2698
     16 C           4.8723   -1.0719   23.2564 C.3     1  UNL1        0.0938
     17 C           4.7800   -1.1399   24.7521 C.3     1  UNL1        0.1086
     18 C           3.9125   -0.2770   20.9767 C.3     1  UNL1        0.0721
     19 C           4.2389   -1.5108   20.1886 C.3     1  UNL1        0.0160
     20 C           5.6221   -1.7081   19.6429 C.3     1  UNL1        0.0014
     21 C           5.9485   -2.9419   18.8548 C.3     1  UNL1        0.0000
     22 C           4.8918   -3.9784   18.6123 C.3     1  UNL1        0.0000
     23 C           3.5086   -3.7811   19.1580 C.3     1  UNL1        0.0000
     24 C           3.1822   -2.5473   19.9461 C.3     1  UNL1        0.0014
     25 C           4.3352   -1.3306   33.7424 C.3     1  UNL1        0.4188
     26 F           4.2429   -1.3985   35.2380 F       1  UNL1       -0.1659
     27 F           4.4223    0.1650   33.8157 F       1  UNL1       -0.1659
     28 F           4.2482   -2.8262   33.6692 F       1  UNL1       -0.1659
     29 N           7.0272   -2.0791   29.3614 N.pl3   1  UNL1        0.0814
     30 O           7.1493   -3.4871   28.8585 O.2     1  UNL1        0.0415
     31 O           8.1588   -1.1134   29.1694 O.co2   1  UNL1       -0.5760
@<TRIPOS>UNITY_ATOM_ATTR
29 1
charge 1
31 1
charge -1
@<TRIPOS>BOND
     1     1     2    2
     2     2     3   ar
     3     3     4   ar
     4     4    12    1
     5    12    13    1
     6    13    14    1
     7    14    15    1
     8    15    18    1
     9    18    19    1
    10    19    20    1
    11    20    21    1
    12    21    22    1
    13    22    23    1
    14    23    24    1
    15    15    16    1
    16    16    17    1
    17     4     5   ar
    18     5     6   ar
    19     6     7   ar
    20     7    29    1
    21    29    30    2
    22    29    31    1
    23     7     8   ar
    24     8     9   ar
    25     9    25    1
    26    25    26    1
    27    25    27    1
    28    25    28    1
    29     9    10   ar
    30    10    11   ar
    31    11     2   ar
    32    17    12    1
    33    11     6   ar
    34    24    19    1
