@<TRIPOS>MOLECULE
*****
 42 45 0 0 0
SMALL
GASTEIGER

@<TRIPOS>ATOM
      1 C           7.0849   -2.6211   27.1834 C.ar    1  UNL1        0.0611
      2 C           7.5264   -3.8049   26.3748 C.ar    1  UNL1        0.1037
      3 N           7.5961   -4.9913   27.2900 N.ar    1  UNL1       -0.2269
      4 C           7.1977   -4.5408   28.6641 C.ar    1  UNL1        0.1407
      5 N           7.0817   -5.2752   29.9669 N.ar    1  UNL1       -0.3374
      6 C           6.6499   -4.5448   31.2037 C.ar    1  UNL1        0.0735
      7 C           6.3340   -3.0799   31.1379 C.ar    1  UNL1        0.0186
      8 C           6.4499   -2.3455   29.8351 C.ar    1  UNL1        0.0047
      9 C           6.8817   -3.0760   28.5983 C.ar    1  UNL1        0.0386
     10 H           7.2891   -6.2367   30.0101 H       1  UNL1        0.1674
     11 C           5.9021   -2.3494   32.3748 C.ar    1  UNL1        0.0207
     12 C           6.8249   -1.3598   33.0221 C.ar    1  UNL1        0.0038
     13 C           6.3930   -0.6293   34.2591 C.ar    1  UNL1        0.0276
     14 C           5.0383   -0.8886   34.8487 C.ar    1  UNL1        0.1226
     15 N           4.1155   -1.8783   34.2013 N.ar    1  UNL1       -0.2356
     16 C           4.5474   -2.6087   32.9644 C.ar    1  UNL1        0.0996
     17 C           4.6064   -0.1582   36.0855 C.1     1  UNL1       -0.0437
     18 C           4.1745    0.5722   37.3224 C.1     1  UNL1       -0.0670
     19 C           3.7426    1.3027   38.5594 C.3     1  UNL1        0.1502
     20 N           2.4603    2.0811   38.5615 N.3     1  UNL1       -0.2618
     21 C           2.4449    3.5022   38.0818 C.3     1  UNL1        0.0730
     22 C           2.0361    3.8138   36.6726 C.3     1  UNL1        0.0188
     23 C           1.1936    1.4383   39.0432 C.3     1  UNL1        0.0730
     24 C           1.2448    0.1150   39.7476 C.3     1  UNL1        0.0188
     25 C           6.8821   -1.2273   26.6677 C.2     1  UNL1        0.2015
     26 O           8.0678   -0.3642   26.3527 O.2     1  UNL1       -0.2864
     27 C           3.5259    0.8099   27.2475 C.ar    1  UNL1        0.0920
     28 C           2.7166    0.3653   26.0654 C.ar    1  UNL1        0.0204
     29 C           3.2959   -0.6101   25.0840 C.ar    1  UNL1        0.0312
     30 C           4.6843   -1.1410   25.2847 C.ar    1  UNL1        0.1454
     31 F           5.2635   -2.1164   24.3034 F       1  UNL1       -0.2040
     32 C           5.4936   -0.6964   26.4669 C.ar    1  UNL1        0.0951
     33 C           4.9143    0.2790   27.4482 C.ar    1  UNL1        0.1598
     34 F           5.7237    0.7235   28.6304 F       1  UNL1       -0.2026
     35 N           2.9467    1.7853   28.2289 N.pl3   1  UNL1       -0.2166
     36 H           3.4286    2.6178   28.4383 H       1  UNL1        0.1734
     37 S           1.6331    1.4922   28.8912 S.O2    1  UNL1        0.0540
     38 O           2.2918    0.4382   29.7310 O.2     1  UNL1       -0.1545
     39 O           0.9745    2.5462   28.0514 O.2     1  UNL1       -0.1545
     40 C           0.3196    1.1992   29.5535 C.3     1  UNL1        0.1724
     41 C          -1.3521   -0.6240   28.7587 C.3     1  UNL1        0.0019
     42 C          -0.8639    0.7939   28.7257 C.3     1  UNL1        0.0273
@<TRIPOS>BOND
     1    41    42    1
     2    42    40    1
     3    40    37    1
     4    37    38    2
     5    37    39    2
     6    37    35    1
     7    35    27    1
     8    27    28   ar
     9    28    29   ar
    10    29    30   ar
    11    30    31    1
    12    30    32   ar
    13    32    25    1
    14    25    26    2
    15    25     1    1
    16     1     2   ar
    17     2     3   ar
    18     3     4   ar
    19     4     5   ar
    20     5     6   ar
    21     6     7   ar
    22     7    11    1
    23    11    12   ar
    24    12    13   ar
    25    13    14   ar
    26    14    17    1
    27    17    18    3
    28    18    19    1
    29    19    20    1
    30    20    21    1
    31    21    22    1
    32    20    23    1
    33    23    24    1
    34    14    15   ar
    35    15    16   ar
    36     7     8   ar
    37     8     9   ar
    38    32    33   ar
    39    33    34    1
    40    33    27   ar
    41     9     1   ar
    42     9     4    1
    43    16    11   ar
    44    35    36    1
    45     5    10    1
@<TRIPOS>MOLECULE
*****
 42 45 0 0 0
SMALL
GASTEIGER

@<TRIPOS>ATOM
      1 C           7.6102   -4.0969   27.3585 C.ar    1  UNL1        0.0611
      2 C           7.9969   -5.4437   26.8232 C.ar    1  UNL1        0.1037
      3 N           7.9488   -6.4244   27.9572 N.ar    1  UNL1       -0.2269
      4 C           7.5324   -5.6836   29.1933 C.ar    1  UNL1        0.1407
      5 N           7.3168   -6.1331   30.6080 N.ar    1  UNL1       -0.3374
      6 C           6.8919   -5.1441   31.6527 C.ar    1  UNL1        0.0735
      7 C           6.6827   -3.7056   31.2826 C.ar    1  UNL1        0.0186
      8 C           6.8983   -3.2561   29.8679 C.ar    1  UNL1        0.0047
      9 C           7.3232   -4.2451   28.8233 C.ar    1  UNL1        0.0386
     10 H           7.4541   -7.0772   30.8509 H       1  UNL1        0.1674
     11 C           6.2578   -2.7166   32.3273 C.ar    1  UNL1        0.0207
     12 C           7.2226   -1.6745   32.8101 C.ar    1  UNL1        0.0038
     13 C           6.7977   -0.6855   33.8548 C.ar    1  UNL1        0.0276
     14 C           5.4080   -0.7386   34.4167 C.ar    1  UNL1        0.1226
     15 N           4.4431   -1.7807   33.9338 N.ar    1  UNL1       -0.2356
     16 C           4.8680   -2.7697   32.8892 C.ar    1  UNL1        0.0996
     17 C           4.9831    0.2504   35.4614 C.1     1  UNL1       -0.0437
     18 C           4.5581    1.2393   36.5060 C.1     1  UNL1       -0.0670
     19 C           4.1332    2.2283   37.5507 C.3     1  UNL1        0.1502
     20 N           2.7617    2.1414   38.1520 N.3     1  UNL1       -0.2618
     21 C           2.3173    0.8775   38.8265 C.3     1  UNL1        0.0730
     22 C           0.9071    0.7472   39.3210 C.3     1  UNL1        0.0188
     23 C           1.8347    3.3184   38.0787 C.3     1  UNL1        0.0730
     24 C           1.6602    4.0563   36.7845 C.3     1  UNL1        0.0188
     25 C           7.5255   -2.8250   26.5677 C.2     1  UNL1        0.2015
     26 O           8.4689   -1.6961   26.8597 O.2     1  UNL1       -0.2864
     27 C           5.6831   -3.2005   23.0728 C.ar    1  UNL1        0.0920
     28 C           4.4410   -2.3965   23.3193 C.ar    1  UNL1        0.0204
     29 C           4.2271   -1.7354   24.6486 C.ar    1  UNL1        0.0312
     30 C           5.2552   -1.8782   25.7315 C.ar    1  UNL1        0.1454
     31 F           5.0413   -1.2171   27.0608 F       1  UNL1       -0.2040
     32 C           6.4973   -2.6822   25.4849 C.ar    1  UNL1        0.0951
     33 C           6.7112   -3.3433   24.1556 C.ar    1  UNL1        0.1598
     34 F           7.9534   -4.1473   23.9091 F       1  UNL1       -0.2026
     35 N           5.8970   -3.8616   21.7434 N.pl3   1  UNL1       -0.2166
     36 H           6.6143   -4.5271   21.6344 H       1  UNL1        0.1734
     37 S           5.0181   -3.5088   20.5802 S.O2    1  UNL1        0.0540
     38 O           4.1480   -4.6937   20.8783 O.2     1  UNL1       -0.1545
     39 O           5.8882   -2.3238   20.2822 O.2     1  UNL1       -0.1545
     40 C           4.1393   -3.1558   19.4171 C.3     1  UNL1        0.1724
     41 C           2.5234   -1.3620   20.3771 C.3     1  UNL1        0.0019
     42 C           3.5127   -1.7953   19.3361 C.3     1  UNL1        0.0273
@<TRIPOS>BOND
     1    41    42    1
     2    42    40    1
     3    40    37    1
     4    37    38    2
     5    37    39    2
     6    37    35    1
     7    35    27    1
     8    27    28   ar
     9    28    29   ar
    10    29    30   ar
    11    30    31    1
    12    30    32   ar
    13    32    25    1
    14    25    26    2
    15    25     1    1
    16     1     2   ar
    17     2     3   ar
    18     3     4   ar
    19     4     5   ar
    20     5     6   ar
    21     6     7   ar
    22     7    11    1
    23    11    12   ar
    24    12    13   ar
    25    13    14   ar
    26    14    17    1
    27    17    18    3
    28    18    19    1
    29    19    20    1
    30    20    21    1
    31    21    22    1
    32    20    23    1
    33    23    24    1
    34    14    15   ar
    35    15    16   ar
    36     7     8   ar
    37     8     9   ar
    38    32    33   ar
    39    33    34    1
    40    33    27   ar
    41     9     1   ar
    42     9     4    1
    43    16    11   ar
    44    35    36    1
    45     5    10    1
@<TRIPOS>MOLECULE
*****
 42 45 0 0 0
SMALL
GASTEIGER

@<TRIPOS>ATOM
      1 C           5.0762   -3.4017   22.4079 C.ar    1  UNL1        0.0611
      2 C           6.1521   -4.0570   23.2221 C.ar    1  UNL1        0.1037
      3 N           6.1984   -3.3800   24.5598 N.ar    1  UNL1       -0.2269
      4 C           5.1510   -2.3062   24.5724 C.ar    1  UNL1        0.1407
      5 N           4.7393   -1.3180   25.6230 N.ar    1  UNL1       -0.3374
      6 C           3.6340   -0.3432   25.3437 C.ar    1  UNL1        0.0735
      7 C           2.9404   -0.3567   24.0137 C.ar    1  UNL1        0.0186
      8 C           3.3521   -1.3449   22.9631 C.ar    1  UNL1        0.0047
      9 C           4.4574   -2.3197   23.2424 C.ar    1  UNL1        0.0386
     10 H           5.1945   -1.3092   26.4959 H       1  UNL1        0.1674
     11 C           1.8350    0.6181   23.7344 C.ar    1  UNL1        0.0207
     12 C           1.3783    0.8504   22.3247 C.ar    1  UNL1        0.0038
     13 C           0.2729    1.8253   22.0454 C.ar    1  UNL1        0.0276
     14 C          -0.3757    2.5678   23.1759 C.ar    1  UNL1        0.1226
     15 N           0.0811    2.3354   24.5857 N.ar    1  UNL1       -0.2356
     16 C           1.1864    1.3606   24.8649 C.ar    1  UNL1        0.0996
     17 C          -1.4810    3.5425   22.8966 C.1     1  UNL1       -0.0437
     18 C          -2.5863    4.5173   22.6174 C.1     1  UNL1       -0.0670
     19 C          -3.6916    5.4922   22.3381 C.3     1  UNL1        0.1502
     20 N          -5.0349    5.3068   22.9793 N.3     1  UNL1       -0.2618
     21 C          -5.1487    5.2293   24.4729 C.3     1  UNL1        0.0730
     22 C          -5.1721    3.8934   25.1550 C.3     1  UNL1        0.0188
     23 C          -6.2645    5.1991   22.1269 C.3     1  UNL1        0.0730
     24 C          -6.2321    4.3929   20.8624 C.3     1  UNL1        0.0188
     25 C           4.6872   -3.7647   21.0055 C.2     1  UNL1        0.2015
     26 O           3.9603   -5.0491   20.7373 O.2     1  UNL1       -0.2864
     27 C           4.2951   -1.0672   18.1210 C.ar    1  UNL1        0.0920
     28 C           5.7010   -1.0005   17.6023 C.ar    1  UNL1        0.0204
     29 C           6.7689   -1.8551   18.2180 C.ar    1  UNL1        0.0312
     30 C           6.4311   -2.7765   19.3524 C.ar    1  UNL1        0.1454
     31 F           7.4990   -3.6311   19.9681 F       1  UNL1       -0.2040
     32 C           5.0251   -2.8433   19.8710 C.ar    1  UNL1        0.0951
     33 C           3.9572   -1.9886   19.2553 C.ar    1  UNL1        0.1598
     34 F           2.5513   -2.0555   19.7741 F       1  UNL1       -0.2026
     35 N           3.2271   -0.2126   17.5053 N.pl3   1  UNL1       -0.2166
     36 H           2.8567   -0.4466   16.6237 H       1  UNL1        0.1734
     37 S           2.7236    0.9986   18.2328 S.O2    1  UNL1        0.0540
     38 O           4.0991    1.5953   18.1915 O.2     1  UNL1       -0.1545
     39 O           1.3480    0.4019   18.2742 O.2     1  UNL1       -0.1545
     40 C           2.2199    2.2098   18.9604 C.3     1  UNL1        0.1724
     41 C           0.4956    4.1418   19.1714 C.3     1  UNL1        0.0019
     42 C           0.9219    2.8427   18.5546 C.3     1  UNL1        0.0273
@<TRIPOS>BOND
     1    41    42    1
     2    42    40    1
     3    40    37    1
     4    37    38    2
     5    37    39    2
     6    37    35    1
     7    35    27    1
     8    27    28   ar
     9    28    29   ar
    10    29    30   ar
    11    30    31    1
    12    30    32   ar
    13    32    25    1
    14    25    26    2
    15    25     1    1
    16     1     2   ar
    17     2     3   ar
    18     3     4   ar
    19     4     5   ar
    20     5     6   ar
    21     6     7   ar
    22     7    11    1
    23    11    12   ar
    24    12    13   ar
    25    13    14   ar
    26    14    17    1
    27    17    18    3
    28    18    19    1
    29    19    20    1
    30    20    21    1
    31    21    22    1
    32    20    23    1
    33    23    24    1
    34    14    15   ar
    35    15    16   ar
    36     7     8   ar
    37     8     9   ar
    38    32    33   ar
    39    33    34    1
    40    33    27   ar
    41     9     1   ar
    42     9     4    1
    43    16    11   ar
    44    35    36    1
    45     5    10    1
@<TRIPOS>MOLECULE
*****
 42 45 0 0 0
SMALL
GASTEIGER

@<TRIPOS>ATOM
      1 C          -0.3227    3.2335   20.4898 C.ar    1  UNL1        0.0611
      2 C          -1.4617    4.1372   20.8586 C.ar    1  UNL1        0.1037
      3 N          -1.7099    3.9927   22.3309 N.ar    1  UNL1       -0.2269
      4 C          -0.7243    2.9998   22.8719 C.ar    1  UNL1        0.1407
      5 N          -0.4968    2.4623   24.2537 N.ar    1  UNL1       -0.3374
      6 C           0.5881    1.4556   24.4976 C.ar    1  UNL1        0.0735
      7 C           1.4454    0.9863   23.3597 C.ar    1  UNL1        0.0186
      8 C           1.2179    1.5238   21.9780 C.ar    1  UNL1        0.0047
      9 C           0.1330    2.5305   21.7341 C.ar    1  UNL1        0.0386
     10 H          -1.0595    2.7703   25.0005 H       1  UNL1        0.1674
     11 C           2.5303   -0.0205   23.6037 C.ar    1  UNL1        0.0207
     12 C           3.0476   -0.8552   22.4699 C.ar    1  UNL1        0.0038
     13 C           4.1325   -1.8620   22.7138 C.ar    1  UNL1        0.0276
     14 C           4.7000   -2.0340   24.0916 C.ar    1  UNL1        0.1226
     15 N           4.1827   -1.1992   25.2255 N.ar    1  UNL1       -0.2356
     16 C           3.0978   -0.1925   24.9815 C.ar    1  UNL1        0.0996
     17 C           5.7849   -3.0407   24.3356 C.1     1  UNL1       -0.0437
     18 C           6.8697   -4.0474   24.5796 C.1     1  UNL1       -0.0670
     19 C           7.9546   -5.0542   24.8235 C.3     1  UNL1        0.1502
     20 N           7.6536   -6.3121   25.5832 N.3     1  UNL1       -0.2618
     21 C           8.2742   -7.6104   25.1602 C.3     1  UNL1        0.0730
     22 C           9.0933   -7.6765   23.9052 C.3     1  UNL1        0.0188
     23 C           6.7318   -6.2715   26.7659 C.3     1  UNL1        0.0730
     24 C           7.2821   -6.0133   28.1372 C.3     1  UNL1        0.0188
     25 C           0.2586    3.0626   19.1176 C.2     1  UNL1        0.2015
     26 O          -0.5627    3.3978   17.9081 O.2     1  UNL1       -0.2864
     27 C           3.3094    0.7084   18.1687 C.ar    1  UNL1        0.0920
     28 C           4.4665    1.5444   18.6295 C.ar    1  UNL1        0.0204
     29 C           4.2210    2.8864   19.2529 C.ar    1  UNL1        0.0312
     30 C           2.8184    3.3925   19.4156 C.ar    1  UNL1        0.1454
     31 F           2.5728    4.7346   20.0390 F       1  UNL1       -0.2040
     32 C           1.6613    2.5566   18.9549 C.ar    1  UNL1        0.0951
     33 C           1.9068    1.2145   18.3315 C.ar    1  UNL1        0.1598
     34 F           0.7497    0.3786   17.8708 F       1  UNL1       -0.2026
     35 N           3.5550   -0.6336   17.5453 N.pl3   1  UNL1       -0.2166
     36 H           3.2652   -0.8073   16.6206 H       1  UNL1        0.1734
     37 S           4.2421   -1.7110   18.3308 S.O2    1  UNL1        0.0540
     38 O           3.0957   -1.7371   19.2979 O.2     1  UNL1       -0.1545
     39 O           5.3884   -1.6850   17.3638 O.2     1  UNL1       -0.1545
     40 C           4.9292   -2.7885   19.1163 C.3     1  UNL1        0.1724
     41 C           3.8219   -5.1151   19.4493 C.3     1  UNL1        0.0019
     42 C           4.7772   -4.2248   18.7113 C.3     1  UNL1        0.0273
@<TRIPOS>BOND
     1    41    42    1
     2    42    40    1
     3    40    37    1
     4    37    38    2
     5    37    39    2
     6    37    35    1
     7    35    27    1
     8    27    28   ar
     9    28    29   ar
    10    29    30   ar
    11    30    31    1
    12    30    32   ar
    13    32    25    1
    14    25    26    2
    15    25     1    1
    16     1     2   ar
    17     2     3   ar
    18     3     4   ar
    19     4     5   ar
    20     5     6   ar
    21     6     7   ar
    22     7    11    1
    23    11    12   ar
    24    12    13   ar
    25    13    14   ar
    26    14    17    1
    27    17    18    3
    28    18    19    1
    29    19    20    1
    30    20    21    1
    31    21    22    1
    32    20    23    1
    33    23    24    1
    34    14    15   ar
    35    15    16   ar
    36     7     8   ar
    37     8     9   ar
    38    32    33   ar
    39    33    34    1
    40    33    27   ar
    41     9     1   ar
    42     9     4    1
    43    16    11   ar
    44    35    36    1
    45     5    10    1
@<TRIPOS>MOLECULE
*****
 42 45 0 0 0
SMALL
GASTEIGER

@<TRIPOS>ATOM
      1 C           6.9790   -3.5724   30.3371 C.ar    1  UNL1        0.0611
      2 C           7.1035   -4.5423   31.4745 C.ar    1  UNL1        0.1037
      3 N           7.2190   -5.9218   30.8967 N.ar    1  UNL1       -0.2269
      4 C           7.1660   -5.8044   29.4023 C.ar    1  UNL1        0.1407
      5 N           7.2336   -6.8320   28.3117 N.ar    1  UNL1       -0.3374
      6 C           7.1529   -6.4076   26.8753 C.ar    1  UNL1        0.0735
      7 C           7.0045   -4.9556   26.5294 C.ar    1  UNL1        0.0186
      8 C           6.9369   -3.9280   27.6200 C.ar    1  UNL1        0.0047
      9 C           7.0177   -4.3523   29.0564 C.ar    1  UNL1        0.0386
     10 H           7.3310   -7.7850   28.5388 H       1  UNL1        0.1674
     11 C           6.9238   -4.5313   25.0929 C.ar    1  UNL1        0.0207
     12 C           6.1554   -3.2992   24.7169 C.ar    1  UNL1        0.0038
     13 C           6.0746   -2.8749   23.2804 C.ar    1  UNL1        0.0276
     14 C           6.7624   -3.6826   22.2200 C.ar    1  UNL1        0.1226
     15 N           7.5309   -4.9148   22.5961 N.ar    1  UNL1       -0.2356
     16 C           7.6116   -5.3391   24.0325 C.ar    1  UNL1        0.0996
     17 C           6.6817   -3.2584   20.7835 C.1     1  UNL1       -0.0437
     18 C           6.6010   -2.8341   19.3471 C.1     1  UNL1       -0.0670
     19 C           6.5203   -2.4097   17.9106 C.3     1  UNL1        0.1502
     20 N           5.6817   -1.2278   17.5237 N.3     1  UNL1       -0.2618
     21 C           4.1854   -1.3253   17.5614 C.3     1  UNL1        0.0730
     22 C           3.4358   -0.8863   18.7844 C.3     1  UNL1        0.0188
     23 C           6.3394    0.0517   17.0990 C.3     1  UNL1        0.0730
     24 C           6.9573    0.9540   18.1256 C.3     1  UNL1        0.0188
     25 C           6.8403   -2.0838   30.4590 C.2     1  UNL1        0.2015
     26 O           8.0576   -1.2096   30.3988 O.2     1  UNL1       -0.2864
     27 C           3.2990   -0.4983   29.6247 C.ar    1  UNL1        0.0920
     28 C           2.7716   -0.2405   31.0051 C.ar    1  UNL1        0.0204
     29 C           3.6004   -0.5971   32.2034 C.ar    1  UNL1        0.0312
     30 C           4.9566   -1.2115   32.0214 C.ar    1  UNL1        0.1454
     31 F           5.7854   -1.5682   33.2197 F       1  UNL1       -0.2040
     32 C           5.4840   -1.4693   30.6410 C.ar    1  UNL1        0.0951
     33 C           4.6552   -1.1127   29.4428 C.ar    1  UNL1        0.1598
     34 F           5.1827   -1.3705   28.0624 F       1  UNL1       -0.2026
     35 N           2.4702   -0.1417   28.4265 N.pl3   1  UNL1       -0.2166
     36 H           2.7009   -0.5072   27.5419 H       1  UNL1        0.1734
     37 S           1.2899    0.7719   28.5759 S.O2    1  UNL1        0.0540
     38 O           2.1834    1.9595   28.3733 O.2     1  UNL1       -0.1545
     39 O           0.3963   -0.4158   28.7785 O.2     1  UNL1       -0.1545
     40 C           0.1096    1.6853   28.7253 C.3     1  UNL1        0.1724
     41 C          -0.6178    1.8164   26.2345 C.3     1  UNL1        0.0019
     42 C          -0.9724    1.6887   27.6864 C.3     1  UNL1        0.0273
@<TRIPOS>BOND
     1    41    42    1
     2    42    40    1
     3    40    37    1
     4    37    38    2
     5    37    39    2
     6    37    35    1
     7    35    27    1
     8    27    28   ar
     9    28    29   ar
    10    29    30   ar
    11    30    31    1
    12    30    32   ar
    13    32    25    1
    14    25    26    2
    15    25     1    1
    16     1     2   ar
    17     2     3   ar
    18     3     4   ar
    19     4     5   ar
    20     5     6   ar
    21     6     7   ar
    22     7    11    1
    23    11    12   ar
    24    12    13   ar
    25    13    14   ar
    26    14    17    1
    27    17    18    3
    28    18    19    1
    29    19    20    1
    30    20    21    1
    31    21    22    1
    32    20    23    1
    33    23    24    1
    34    14    15   ar
    35    15    16   ar
    36     7     8   ar
    37     8     9   ar
    38    32    33   ar
    39    33    34    1
    40    33    27   ar
    41     9     1   ar
    42     9     4    1
    43    16    11   ar
    44    35    36    1
    45     5    10    1
@<TRIPOS>MOLECULE
*****
 42 45 0 0 0
SMALL
GASTEIGER

@<TRIPOS>ATOM
      1 C           0.9460    1.8092   20.3169 C.ar    1  UNL1        0.0611
      2 C          -0.1355    2.8124   20.5884 C.ar    1  UNL1        0.1037
      3 N          -0.3505    2.8722   22.0717 N.ar    1  UNL1       -0.2269
      4 C           0.5982    1.9060   22.7170 C.ar    1  UNL1        0.1407
      5 N           0.8360    1.5395   24.1519 N.ar    1  UNL1       -0.3374
      6 C           1.8750    0.5161   24.5023 C.ar    1  UNL1        0.0735
      7 C           2.6763   -0.1409   23.4178 C.ar    1  UNL1        0.0186
      8 C           2.4386    0.2255   21.9828 C.ar    1  UNL1        0.0047
      9 C           1.3995    1.2490   21.6324 C.ar    1  UNL1        0.0386
     10 H           0.3100    1.9707   24.8638 H       1  UNL1        0.1674
     11 C           3.7154   -1.1645   23.7683 C.ar    1  UNL1        0.0207
     12 C           4.0597   -2.2489   22.7908 C.ar    1  UNL1        0.0038
     13 C           5.0988   -3.2724   23.1413 C.ar    1  UNL1        0.0276
     14 C           5.7936   -3.2114   24.4693 C.ar    1  UNL1        0.1226
     15 N           5.4493   -2.1269   25.4468 N.ar    1  UNL1       -0.2356
     16 C           4.4103   -1.1035   25.0962 C.ar    1  UNL1        0.0996
     17 C           6.8326   -4.2349   24.8198 C.1     1  UNL1       -0.0437
     18 C           7.8717   -5.2583   25.1703 C.1     1  UNL1       -0.0670
     19 C           8.9108   -6.2817   25.5208 C.3     1  UNL1        0.1502
     20 N           8.9920   -6.8199   26.9186 N.3     1  UNL1       -0.2618
     21 C           8.8069   -5.8995   28.0884 C.3     1  UNL1        0.0730
     22 C           7.4901   -5.8531   28.8053 C.3     1  UNL1        0.0188
     23 C           9.2582   -8.2783   27.1465 C.3     1  UNL1        0.0730
     24 C           8.1261   -9.2043   27.4793 C.3     1  UNL1        0.0188
     25 C           1.4804    1.4323   18.9669 C.2     1  UNL1        0.2015
     26 O           0.5535    0.8967   17.9163 O.2     1  UNL1       -0.2864
     27 C           5.2520    0.5398   18.1134 C.ar    1  UNL1        0.0920
     28 C           5.8641    1.9085   18.0690 C.ar    1  UNL1        0.0204
     29 C           5.0150    3.1185   18.3240 C.ar    1  UNL1        0.0312
     30 C           3.5538    2.9598   18.6233 C.ar    1  UNL1        0.1454
     31 F           2.7047    4.1697   18.8782 F       1  UNL1       -0.2040
     32 C           2.9417    1.5911   18.6676 C.ar    1  UNL1        0.0951
     33 C           3.7908    0.3811   18.4127 C.ar    1  UNL1        0.1598
     34 F           3.1786   -0.9876   18.4571 F       1  UNL1       -0.2026
     35 N           6.1011   -0.6702   17.8584 N.pl3   1  UNL1       -0.2166
     36 H           6.7637   -0.6620   17.1303 H       1  UNL1        0.1734
     37 S           5.9407   -1.8925   18.7128 S.O2    1  UNL1        0.0540
     38 O           6.2405   -1.0772   19.9357 O.2     1  UNL1       -0.1545
     39 O           5.6409   -2.7079   17.4900 O.2     1  UNL1       -0.1545
     40 C           5.7802   -3.1149   19.5672 C.3     1  UNL1        0.1724
     41 C           3.5905   -4.5098   19.4683 C.3     1  UNL1        0.0019
     42 C           5.0150   -4.2966   19.0494 C.3     1  UNL1        0.0273
@<TRIPOS>BOND
     1    41    42    1
     2    42    40    1
     3    40    37    1
     4    37    38    2
     5    37    39    2
     6    37    35    1
     7    35    27    1
     8    27    28   ar
     9    28    29   ar
    10    29    30   ar
    11    30    31    1
    12    30    32   ar
    13    32    25    1
    14    25    26    2
    15    25     1    1
    16     1     2   ar
    17     2     3   ar
    18     3     4   ar
    19     4     5   ar
    20     5     6   ar
    21     6     7   ar
    22     7    11    1
    23    11    12   ar
    24    12    13   ar
    25    13    14   ar
    26    14    17    1
    27    17    18    3
    28    18    19    1
    29    19    20    1
    30    20    21    1
    31    21    22    1
    32    20    23    1
    33    23    24    1
    34    14    15   ar
    35    15    16   ar
    36     7     8   ar
    37     8     9   ar
    38    32    33   ar
    39    33    34    1
    40    33    27   ar
    41     9     1   ar
    42     9     4    1
    43    16    11   ar
    44    35    36    1
    45     5    10    1
@<TRIPOS>MOLECULE
*****
 42 45 0 0 0
SMALL
GASTEIGER

@<TRIPOS>ATOM
      1 C          -7.0763    5.4611   24.9465 C.ar    1  UNL1        0.0611
      2 C          -7.8221    6.4367   25.8080 C.ar    1  UNL1        0.1037
      3 N          -6.9358    6.8105   26.9589 N.ar    1  UNL1       -0.2269
      4 C          -5.6422    6.0660   26.8088 C.ar    1  UNL1        0.1407
      5 N          -4.3965    6.0397   27.6439 N.ar    1  UNL1       -0.3374
      6 C          -3.2377    5.1794   27.2352 C.ar    1  UNL1        0.0735
      7 C          -3.3246    4.3454   25.9915 C.ar    1  UNL1        0.0186
      8 C          -4.5703    4.3717   25.1564 C.ar    1  UNL1        0.0047
      9 C          -5.7291    5.2320   25.5650 C.ar    1  UNL1        0.0386
     10 H          -4.3395    6.5870   28.4602 H       1  UNL1        0.1674
     11 C          -2.1657    3.4852   25.5828 C.ar    1  UNL1        0.0207
     12 C          -1.5944    2.4888   26.5476 C.ar    1  UNL1        0.0038
     13 C          -0.4355    1.6285   26.1389 C.ar    1  UNL1        0.0276
     14 C           0.1521    1.7647   24.7655 C.ar    1  UNL1        0.1226
     15 N          -0.4193    2.7611   23.8008 N.ar    1  UNL1       -0.2356
     16 C          -1.5781    3.6213   24.2094 C.ar    1  UNL1        0.0996
     17 C           1.3109    0.9044   24.3569 C.1     1  UNL1       -0.0437
     18 C           2.4698    0.0442   23.9482 C.1     1  UNL1       -0.0670
     19 C           3.6287   -0.8160   23.5395 C.3     1  UNL1        0.1502
     20 N           3.6826   -1.3940   22.1564 N.3     1  UNL1       -0.2618
     21 C           4.2624   -2.7598   21.9364 C.3     1  UNL1        0.0730
     22 C           4.9975   -3.4503   23.0468 C.3     1  UNL1        0.0188
     23 C           3.1568   -0.6062   20.9933 C.3     1  UNL1        0.0730
     24 C           1.8116   -0.9306   20.4144 C.3     1  UNL1        0.0188
     25 C          -7.5880    4.8262   23.6875 C.2     1  UNL1        0.2015
     26 O          -8.7656    3.8988   23.7402 O.2     1  UNL1       -0.2864
     27 C          -5.3104    4.4129   20.4638 C.ar    1  UNL1        0.0920
     28 C          -5.5895    5.7035   19.7522 C.ar    1  UNL1        0.0204
     29 C          -6.5347    6.7017   20.3524 C.ar    1  UNL1        0.0312
     30 C          -7.2009    6.4093   21.6641 C.ar    1  UNL1        0.1454
     31 F          -8.1461    7.4075   22.2643 F       1  UNL1       -0.2040
     32 C          -6.9218    5.1186   22.3757 C.ar    1  UNL1        0.0951
     33 C          -5.9766    4.1205   21.7755 C.ar    1  UNL1        0.1598
     34 F          -5.6975    2.8298   22.4872 F       1  UNL1       -0.2026
     35 N          -4.3652    3.4147   19.8636 N.pl3   1  UNL1       -0.2166
     36 H          -4.7169    2.6161   19.4078 H       1  UNL1        0.1734
     37 S          -2.8843    3.6334   19.9579 S.O2    1  UNL1        0.0540
     38 O          -2.9129    4.3868   18.6611 O.2     1  UNL1       -0.1545
     39 O          -2.8556    2.8800   21.2546 O.2     1  UNL1       -0.1545
     40 C          -1.4033    3.8520   20.0523 C.3     1  UNL1        0.1724
     41 C           0.2712    2.5845   18.5226 C.3     1  UNL1        0.0019
     42 C          -0.4603    2.7075   19.8263 C.3     1  UNL1        0.0273
@<TRIPOS>BOND
     1    41    42    1
     2    42    40    1
     3    40    37    1
     4    37    38    2
     5    37    39    2
     6    37    35    1
     7    35    27    1
     8    27    28   ar
     9    28    29   ar
    10    29    30   ar
    11    30    31    1
    12    30    32   ar
    13    32    25    1
    14    25    26    2
    15    25     1    1
    16     1     2   ar
    17     2     3   ar
    18     3     4   ar
    19     4     5   ar
    20     5     6   ar
    21     6     7   ar
    22     7    11    1
    23    11    12   ar
    24    12    13   ar
    25    13    14   ar
    26    14    17    1
    27    17    18    3
    28    18    19    1
    29    19    20    1
    30    20    21    1
    31    21    22    1
    32    20    23    1
    33    23    24    1
    34    14    15   ar
    35    15    16   ar
    36     7     8   ar
    37     8     9   ar
    38    32    33   ar
    39    33    34    1
    40    33    27   ar
    41     9     1   ar
    42     9     4    1
    43    16    11   ar
    44    35    36    1
    45     5    10    1
@<TRIPOS>MOLECULE
*****
 42 45 0 0 0
SMALL
GASTEIGER

@<TRIPOS>ATOM
      1 C           6.5252   -3.6047   27.1004 C.ar    1  UNL1        0.0611
      2 C           7.0397   -4.8341   26.4122 C.ar    1  UNL1        0.1037
      3 N           7.4393   -5.8228   27.4671 N.ar    1  UNL1       -0.2269
      4 C           7.1718   -5.2044   28.8073 C.ar    1  UNL1        0.1407
      5 N           7.3697   -5.7125   30.2046 N.ar    1  UNL1       -0.3374
      6 C           7.0026   -4.8496   31.3754 C.ar    1  UNL1        0.0735
      7 C           6.4376   -3.4787   31.1487 C.ar    1  UNL1        0.0186
      8 C           6.2397   -2.9706   29.7514 C.ar    1  UNL1        0.0047
      9 C           6.6068   -3.8335   28.5806 C.ar    1  UNL1        0.0386
     10 H           7.7405   -6.6123   30.3534 H       1  UNL1        0.1674
     11 C           6.0705   -2.6158   32.3196 C.ar    1  UNL1        0.0207
     12 C           4.7013   -2.7147   32.9240 C.ar    1  UNL1        0.0038
     13 C           4.3342   -1.8519   34.0949 C.ar    1  UNL1        0.0276
     14 C           5.3363   -0.8901   34.6612 C.ar    1  UNL1        0.1226
     15 N           6.7056   -0.7912   34.0566 N.ar    1  UNL1       -0.2356
     16 C           7.0727   -1.6541   32.8859 C.ar    1  UNL1        0.0996
     17 C           4.9693   -0.0273   35.8319 C.1     1  UNL1       -0.0437
     18 C           4.6022    0.8356   37.0027 C.1     1  UNL1       -0.0670
     19 C           4.2351    1.6984   38.1735 C.3     1  UNL1        0.1502
     20 N           2.7933    1.8960   38.5367 N.3     1  UNL1       -0.2618
     21 C           2.1145    3.1981   38.2309 C.3     1  UNL1        0.0730
     22 C           2.1848    3.7739   36.8476 C.3     1  UNL1        0.0188
     23 C           2.0302    0.7914   39.2057 C.3     1  UNL1        0.0730
     24 C           0.5456    0.9075   39.3858 C.3     1  UNL1        0.0188
     25 C           6.0181   -2.3641   26.4267 C.2     1  UNL1        0.2015
     26 O           5.8402   -2.3386   24.9376 O.2     1  UNL1       -0.2864
     27 C           3.9418    0.3306   28.4708 C.ar    1  UNL1        0.0920
     28 C           5.0301    1.2812   28.8733 C.ar    1  UNL1        0.0204
     29 C           6.4477    1.0167   28.4604 C.ar    1  UNL1        0.0312
     30 C           6.7770   -0.1983   27.6449 C.ar    1  UNL1        0.1454
     31 F           8.1946   -0.4629   27.2319 F       1  UNL1       -0.2040
     32 C           5.6887   -1.1489   27.2423 C.ar    1  UNL1        0.0951
     33 C           4.2712   -0.8844   27.6553 C.ar    1  UNL1        0.1598
     34 F           3.1830   -1.8351   27.2526 F       1  UNL1       -0.2026
     35 N           2.5243    0.5952   28.8837 N.pl3   1  UNL1       -0.2166
     36 H           1.7956    0.5060   28.2277 H       1  UNL1        0.1734
     37 S           2.2169    0.9955   30.2962 S.O2    1  UNL1        0.0540
     38 O           2.0545    2.4205   29.8570 O.2     1  UNL1       -0.1545
     39 O           2.3793   -0.4295   30.7354 O.2     1  UNL1       -0.1545
     40 C           1.9095    1.3957   31.7088 C.3     1  UNL1        0.1724
     41 C           4.3122    1.9297   32.5407 C.3     1  UNL1        0.0019
     42 C           2.9708    1.2968   32.7642 C.3     1  UNL1        0.0273
@<TRIPOS>BOND
     1    41    42    1
     2    42    40    1
     3    40    37    1
     4    37    38    2
     5    37    39    2
     6    37    35    1
     7    35    27    1
     8    27    28   ar
     9    28    29   ar
    10    29    30   ar
    11    30    31    1
    12    30    32   ar
    13    32    25    1
    14    25    26    2
    15    25     1    1
    16     1     2   ar
    17     2     3   ar
    18     3     4   ar
    19     4     5   ar
    20     5     6   ar
    21     6     7   ar
    22     7    11    1
    23    11    12   ar
    24    12    13   ar
    25    13    14   ar
    26    14    17    1
    27    17    18    3
    28    18    19    1
    29    19    20    1
    30    20    21    1
    31    21    22    1
    32    20    23    1
    33    23    24    1
    34    14    15   ar
    35    15    16   ar
    36     7     8   ar
    37     8     9   ar
    38    32    33   ar
    39    33    34    1
    40    33    27   ar
    41     9     1   ar
    42     9     4    1
    43    16    11   ar
    44    35    36    1
    45     5    10    1
@<TRIPOS>MOLECULE
*****
 42 45 0 0 0
SMALL
GASTEIGER

@<TRIPOS>ATOM
      1 C           5.5008   -1.2651   31.4538 C.ar    1  UNL1        0.0611
      2 C           4.8597   -0.9902   32.7817 C.ar    1  UNL1        0.1037
      3 N           3.4532   -0.5327   32.5314 N.ar    1  UNL1       -0.2269
      4 C           3.2251   -0.5250   31.0489 C.ar    1  UNL1        0.1407
      5 N           2.0286   -0.1642   30.2194 N.ar    1  UNL1       -0.3374
      6 C           2.0976   -0.2561   28.7238 C.ar    1  UNL1        0.0735
      7 C           3.3632   -0.7088   28.0578 C.ar    1  UNL1        0.0186
      8 C           4.5597   -1.0695   28.8873 C.ar    1  UNL1        0.0047
      9 C           4.4907   -0.9776   30.3829 C.ar    1  UNL1        0.0386
     10 H           1.1980    0.1328   30.6565 H       1  UNL1        0.1674
     11 C           3.4321   -0.8007   26.5621 C.ar    1  UNL1        0.0207
     12 C           2.5837    0.1010   25.7154 C.ar    1  UNL1        0.0038
     13 C           2.6526    0.0091   24.2198 C.ar    1  UNL1        0.0276
     14 C           3.5701   -0.9845   23.5709 C.ar    1  UNL1        0.1226
     15 N           4.4186   -1.8862   24.4177 N.ar    1  UNL1       -0.2356
     16 C           4.3496   -1.7943   25.9133 C.ar    1  UNL1        0.0996
     17 C           3.6391   -1.0764   22.0754 C.1     1  UNL1       -0.0437
     18 C           3.7080   -1.1683   20.5798 C.1     1  UNL1       -0.0670
     19 C           3.7770   -1.2602   19.0842 C.3     1  UNL1        0.1502
     20 N           4.9833   -1.8599   18.4244 N.3     1  UNL1       -0.2618
     21 C           5.2950   -3.3150   18.6120 C.3     1  UNL1        0.0730
     22 C           4.1950   -4.2820   18.9364 C.3     1  UNL1        0.0188
     23 C           5.8779   -1.0043   17.5772 C.3     1  UNL1        0.0730
     24 C           5.4580    0.3888   17.2128 C.3     1  UNL1        0.0188
     25 C           6.9056   -1.7436   31.2352 C.2     1  UNL1        0.2015
     26 O           8.0627   -0.8469   31.5619 O.2     1  UNL1       -0.2864
     27 C           8.0478   -4.6631   28.8017 C.ar    1  UNL1        0.0920
     28 C           7.6483   -5.8693   29.5989 C.ar    1  UNL1        0.0204
     29 C           7.0013   -5.7002   30.9416 C.ar    1  UNL1        0.0312
     30 C           6.7537   -4.3250   31.4870 C.ar    1  UNL1        0.1454
     31 F           6.1066   -4.1559   32.8297 F       1  UNL1       -0.2040
     32 C           7.1532   -3.1189   30.6898 C.ar    1  UNL1        0.0951
     33 C           7.8002   -3.2880   29.3471 C.ar    1  UNL1        0.1598
     34 F           8.1997   -2.0817   28.5499 F       1  UNL1       -0.2026
     35 N           8.6949   -4.8322   27.4590 N.pl3   1  UNL1       -0.2166
     36 H           9.5447   -5.3230   27.3804 H       1  UNL1        0.1734
     37 S           8.0471   -4.2535   26.2361 S.O2    1  UNL1        0.0540
     38 O           6.8282   -5.0915   26.4853 O.2     1  UNL1       -0.1545
     39 O           9.2660   -3.4156   25.9869 O.2     1  UNL1       -0.1545
     40 C           7.3994   -3.6748   25.0132 C.3     1  UNL1        0.1724
     41 C           6.7466   -3.9512   22.5137 C.3     1  UNL1        0.0019
     42 C           7.0806   -4.5586   23.8439 C.3     1  UNL1        0.0273
@<TRIPOS>BOND
     1    41    42    1
     2    42    40    1
     3    40    37    1
     4    37    38    2
     5    37    39    2
     6    37    35    1
     7    35    27    1
     8    27    28   ar
     9    28    29   ar
    10    29    30   ar
    11    30    31    1
    12    30    32   ar
    13    32    25    1
    14    25    26    2
    15    25     1    1
    16     1     2   ar
    17     2     3   ar
    18     3     4   ar
    19     4     5   ar
    20     5     6   ar
    21     6     7   ar
    22     7    11    1
    23    11    12   ar
    24    12    13   ar
    25    13    14   ar
    26    14    17    1
    27    17    18    3
    28    18    19    1
    29    19    20    1
    30    20    21    1
    31    21    22    1
    32    20    23    1
    33    23    24    1
    34    14    15   ar
    35    15    16   ar
    36     7     8   ar
    37     8     9   ar
    38    32    33   ar
    39    33    34    1
    40    33    27   ar
    41     9     1   ar
    42     9     4    1
    43    16    11   ar
    44    35    36    1
    45     5    10    1
