@<TRIPOS>MOLECULE
*****
 32 34 0 0 0
SMALL
GASTEIGER

@<TRIPOS>ATOM
      1 C          -8.0203  -18.7359   22.1772 C.2     1  UNL1        0.2270
      2 O          -8.0176  -17.3897   21.5155 O.2     1  UNL1       -0.2748
      3 N          -9.0927  -19.0831   23.1668 N.am    1  UNL1       -0.2794
      4 C          -9.2246  -20.3827   23.9043 C.3     1  UNL1        0.0935
      5 C         -10.4350  -20.2945   24.7860 C.3     1  UNL1        0.0233
      6 C         -11.0511  -18.9405   24.5933 C.3     1  UNL1        0.0233
      7 C         -10.2216  -18.1919   23.5926 C.3     1  UNL1        0.0949
      8 C          -6.9505  -19.7349   21.8493 C.3     1  UNL1        0.1010
      9 N          -7.0843  -19.1572   19.3197 N.3     1  UNL1       -0.3215
     10 C          -6.3466  -19.7637   20.4765 C.3     1  UNL1        0.0644
     11 H          -7.9716  -18.7739   19.6457 H       1  UNL1        0.1188
     12 H          -7.2616  -19.8740   18.6161 H       1  UNL1        0.1188
     13 C          -5.0051  -20.3990   20.2603 C.3     1  UNL1        0.0447
     14 C          -3.7639  -19.5571   20.2841 C.ar    1  UNL1        0.0090
     15 C          -3.1793  -19.0466   19.0005 C.ar    1  UNL1        0.0300
     16 C          -1.9381  -18.2047   19.0243 C.ar    1  UNL1        0.1672
     17 F          -1.3533  -17.6941   17.7407 F       1  UNL1       -0.2018
     18 C          -1.2815  -17.8733   20.3316 C.ar    1  UNL1        0.1696
     19 F          -0.0403  -17.0314   20.3554 F       1  UNL1       -0.2017
     20 C          -1.8662  -18.3838   21.6152 C.ar    1  UNL1        0.0612
     21 C          -3.1074  -19.2257   21.5914 C.ar    1  UNL1        0.1386
     22 F          -3.6921  -19.7362   22.8749 F       1  UNL1       -0.2044
     23 C         -10.4762  -16.7969   23.1036 C.3     1  UNL1        0.1093
     24 N         -10.0777  -15.6221   23.9468 N.pl3   1  UNL1       -0.3013
     25 H         -10.7143  -14.8867   24.0988 H       1  UNL1        0.1497
     26 C          -8.7091  -15.5678   24.5586 C.ar    1  UNL1        0.2171
     27 N          -7.5165  -15.2607   23.7022 N.ar    1  UNL1       -0.2099
     28 C          -6.1480  -15.2064   24.3140 C.ar    1  UNL1        0.1330
     29 C          -5.9722  -15.4591   25.7821 C.ar    1  UNL1        0.1784
     30 F          -4.6036  -15.4048   26.3938 F       1  UNL1       -0.2009
     31 C          -7.1648  -15.7661   26.6384 C.ar    1  UNL1        0.1330
     32 N          -8.5333  -15.8204   26.0266 N.ar    1  UNL1       -0.2099
@<TRIPOS>BOND
     1    10     9    1
     2    10     8    1
     3     8     1    1
     4     1     2    2
     5     1     3   am
     6     3     4    1
     7     4     5    1
     8     5     6    1
     9     6     7    1
    10     7    23    1
    11    23    24    1
    12    24    26    1
    13    26    27   ar
    14    27    28   ar
    15    28    29   ar
    16    29    30    1
    17    29    31   ar
    18    31    32   ar
    19    10    13    1
    20    13    14    1
    21    14    15   ar
    22    15    16   ar
    23    16    17    1
    24    16    18   ar
    25    18    19    1
    26    18    20   ar
    27    20    21   ar
    28    21    22    1
    29     7     3    1
    30    32    26   ar
    31    21    14   ar
    32     9    11    1
    33     9    12    1
    34    24    25    1
@<TRIPOS>MOLECULE
*****
 32 34 0 0 0
SMALL
GASTEIGER

@<TRIPOS>ATOM
      1 C          -8.1565  -16.4474   23.9308 C.2     1  UNL1        0.2270
      2 O          -7.4750  -16.7043   22.6195 O.2     1  UNL1       -0.2748
      3 N          -7.3701  -15.9194   25.0939 N.am    1  UNL1       -0.2794
      4 C          -7.9119  -15.6156   26.4594 C.3     1  UNL1        0.0935
      5 C          -6.7806  -15.1109   27.3052 C.3     1  UNL1        0.0233
      6 C          -5.5396  -15.1027   26.4626 C.3     1  UNL1        0.0233
      7 C          -5.9040  -15.6024   25.0960 C.3     1  UNL1        0.0949
      8 C          -9.6243  -16.7185   24.0790 C.3     1  UNL1        0.1010
      9 N          -9.8567  -18.5903   25.8658 N.3     1  UNL1       -0.3215
     10 C         -10.0983  -18.0857   24.4740 C.3     1  UNL1        0.0644
     11 H          -9.3615  -17.8793   26.4040 H       1  UNL1        0.1188
     12 H          -9.2939  -19.4401   25.8264 H       1  UNL1        0.1188
     13 C         -10.8140  -18.9484   23.4773 C.3     1  UNL1        0.0447
     14 C         -10.2360  -19.1499   22.1078 C.ar    1  UNL1        0.0090
     15 C          -8.8114  -19.5930   21.9528 C.ar    1  UNL1        0.0300
     16 C          -8.2334  -19.7944   20.5834 C.ar    1  UNL1        0.1672
     17 F          -6.8087  -20.2375   20.4283 F       1  UNL1       -0.2018
     18 C          -9.0801  -19.5528   19.3690 C.ar    1  UNL1        0.1696
     19 F          -8.5021  -19.7542   17.9996 F       1  UNL1       -0.2017
     20 C         -10.5047  -19.1096   19.5240 C.ar    1  UNL1        0.0612
     21 C         -11.0827  -18.9082   20.8934 C.ar    1  UNL1        0.1386
     22 F         -12.5073  -18.4651   21.0485 F       1  UNL1       -0.2044
     23 C          -4.9668  -15.7578   23.9351 C.3     1  UNL1        0.1093
     24 N          -4.3799  -17.1016   23.6197 N.pl3   1  UNL1       -0.3013
     25 H          -4.5172  -17.8560   24.2372 H       1  UNL1        0.1497
     26 C          -3.5837  -17.2962   22.3634 C.ar    1  UNL1        0.2171
     27 N          -3.9505  -18.3901   21.4048 N.ar    1  UNL1       -0.2099
     28 C          -3.1543  -18.5846   20.1486 C.ar    1  UNL1        0.1330
     29 C          -1.9913  -17.6853   19.8509 C.ar    1  UNL1        0.1784
     30 F          -1.1952  -17.8799   18.5945 F       1  UNL1       -0.2009
     31 C          -1.6245  -16.5914   20.8094 C.ar    1  UNL1        0.1330
     32 N          -2.4207  -16.3969   22.0657 N.ar    1  UNL1       -0.2099
@<TRIPOS>BOND
     1    10     9    1
     2    10     8    1
     3     8     1    1
     4     1     2    2
     5     1     3   am
     6     3     4    1
     7     4     5    1
     8     5     6    1
     9     6     7    1
    10     7    23    1
    11    23    24    1
    12    24    26    1
    13    26    27   ar
    14    27    28   ar
    15    28    29   ar
    16    29    30    1
    17    29    31   ar
    18    31    32   ar
    19    10    13    1
    20    13    14    1
    21    14    15   ar
    22    15    16   ar
    23    16    17    1
    24    16    18   ar
    25    18    19    1
    26    18    20   ar
    27    20    21   ar
    28    21    22    1
    29     7     3    1
    30    32    26   ar
    31    21    14   ar
    32     9    11    1
    33     9    12    1
    34    24    25    1
@<TRIPOS>MOLECULE
*****
 32 34 0 0 0
SMALL
GASTEIGER

@<TRIPOS>ATOM
      1 C          -8.8336  -17.2737   24.6939 C.2     1  UNL1        0.2270
      2 O          -8.4015  -17.5583   23.2860 O.2     1  UNL1       -0.2748
      3 N          -7.9594  -16.4536   25.5956 N.am    1  UNL1       -0.2794
      4 C          -8.2576  -16.0888   27.0197 C.3     1  UNL1        0.0935
      5 C          -7.1159  -15.2640   27.5358 C.3     1  UNL1        0.0233
      6 C          -6.1121  -15.1190   26.4306 C.3     1  UNL1        0.0233
      7 C          -6.6334  -15.8542   25.2316 C.3     1  UNL1        0.0949
      8 C         -10.1401  -17.8093   25.2002 C.3     1  UNL1        0.1010
      9 N          -9.9611  -20.3940   25.3928 N.3     1  UNL1       -0.3215
     10 C         -10.5991  -19.1773   24.7906 C.3     1  UNL1        0.0644
     11 H          -9.2406  -20.1074   26.0554 H       1  UNL1        0.1188
     12 H          -9.5394  -20.9575   24.6545 H       1  UNL1        0.1188
     13 C         -11.6960  -19.3287   23.7788 C.3     1  UNL1        0.0447
     14 C         -11.6724  -18.5143   22.5194 C.ar    1  UNL1        0.0090
     15 C         -10.8136  -18.9412   21.3661 C.ar    1  UNL1        0.0300
     16 C         -10.7900  -18.1268   20.1067 C.ar    1  UNL1        0.1672
     17 F          -9.9311  -18.5536   18.9533 F       1  UNL1       -0.2018
     18 C         -11.6253  -16.8854   20.0006 C.ar    1  UNL1        0.1696
     19 F         -11.6017  -16.0709   18.7412 F       1  UNL1       -0.2017
     20 C         -12.4842  -16.4585   21.1538 C.ar    1  UNL1        0.0612
     21 C         -12.5078  -17.2729   22.4132 C.ar    1  UNL1        0.1386
     22 F         -13.3666  -16.8461   23.5665 F       1  UNL1       -0.2044
     23 C          -5.9488  -15.9699   23.9018 C.3     1  UNL1        0.1093
     24 N          -4.5973  -16.6136   23.8075 N.pl3   1  UNL1       -0.3013
     25 H          -3.8618  -16.3007   24.3824 H       1  UNL1        0.1497
     26 C          -4.3662  -17.7340   22.8373 C.ar    1  UNL1        0.2171
     27 N          -5.5130  -18.2890   22.0456 N.ar    1  UNL1       -0.2099
     28 C          -5.2820  -19.4094   21.0754 C.ar    1  UNL1        0.1330
     29 C          -3.9041  -19.9748   20.8969 C.ar    1  UNL1        0.1784
     30 F          -3.6731  -21.0953   19.9267 F       1  UNL1       -0.2009
     31 C          -2.7573  -19.4198   21.6886 C.ar    1  UNL1        0.1330
     32 N          -2.9884  -18.2994   22.6588 N.ar    1  UNL1       -0.2099
@<TRIPOS>BOND
     1    10     9    1
     2    10     8    1
     3     8     1    1
     4     1     2    2
     5     1     3   am
     6     3     4    1
     7     4     5    1
     8     5     6    1
     9     6     7    1
    10     7    23    1
    11    23    24    1
    12    24    26    1
    13    26    27   ar
    14    27    28   ar
    15    28    29   ar
    16    29    30    1
    17    29    31   ar
    18    31    32   ar
    19    10    13    1
    20    13    14    1
    21    14    15   ar
    22    15    16   ar
    23    16    17    1
    24    16    18   ar
    25    18    19    1
    26    18    20   ar
    27    20    21   ar
    28    21    22    1
    29     7     3    1
    30    32    26   ar
    31    21    14   ar
    32     9    11    1
    33     9    12    1
    34    24    25    1
@<TRIPOS>MOLECULE
*****
 32 34 0 0 0
SMALL
GASTEIGER

@<TRIPOS>ATOM
      1 C          -7.6687  -18.6576   22.6261 C.2     1  UNL1        0.2270
      2 O          -8.4640  -19.9204   22.7771 O.2     1  UNL1       -0.2748
      3 N          -8.0168  -17.4497   23.4444 N.am    1  UNL1       -0.2794
      4 C          -7.3159  -16.1241   23.4021 C.3     1  UNL1        0.0935
      5 C          -7.9928  -15.2103   24.3803 C.3     1  UNL1        0.0233
      6 C          -9.1121  -15.9711   25.0272 C.3     1  UNL1        0.0233
      7 C          -9.1269  -17.3550   24.4488 C.3     1  UNL1        0.0949
      8 C          -6.5254  -18.6027   21.6567 C.3     1  UNL1        0.1010
      9 N          -7.6072  -19.9618   19.7247 N.3     1  UNL1       -0.3215
     10 C          -6.4133  -19.6308   20.5703 C.3     1  UNL1        0.0644
     11 H          -8.4028  -19.3982   20.0244 H       1  UNL1        0.1188
     12 H          -7.8332  -20.9511   19.8279 H       1  UNL1        0.1188
     13 C          -5.1072  -20.3280   20.3293 C.3     1  UNL1        0.0447
     14 C          -3.8288  -19.5435   20.3196 C.ar    1  UNL1        0.0090
     15 C          -3.2796  -19.0205   19.0255 C.ar    1  UNL1        0.0300
     16 C          -2.0012  -18.2360   19.0158 C.ar    1  UNL1        0.1672
     17 F          -1.4519  -17.7128   17.7217 F       1  UNL1       -0.2018
     18 C          -1.2719  -17.9745   20.3003 C.ar    1  UNL1        0.1696
     19 F           0.0066  -17.1900   20.2906 F       1  UNL1       -0.2017
     20 C          -1.8211  -18.4976   21.5944 C.ar    1  UNL1        0.0612
     21 C          -3.0995  -19.2821   21.6041 C.ar    1  UNL1        0.1386
     22 F          -3.6488  -19.8052   22.8981 F       1  UNL1       -0.2044
     23 C         -10.0839  -18.4519   24.8112 C.3     1  UNL1        0.1093
     24 N         -11.1409  -18.8776   23.8358 N.pl3   1  UNL1       -0.3013
     25 H         -11.6634  -19.6953   24.0019 H       1  UNL1        0.1497
     26 C         -11.4018  -18.0574   22.6072 C.ar    1  UNL1        0.2171
     27 N         -10.9816  -18.5685   21.2611 N.ar    1  UNL1       -0.2099
     28 C         -11.2426  -17.7484   20.0326 C.ar    1  UNL1        0.1330
     29 C         -11.9238  -16.4172   20.1502 C.ar    1  UNL1        0.1784
     30 F         -12.1847  -15.5970   18.9216 F       1  UNL1       -0.2009
     31 C         -12.3440  -15.9061   21.4964 C.ar    1  UNL1        0.1330
     32 N         -12.0830  -16.7262   22.7249 N.ar    1  UNL1       -0.2099
@<TRIPOS>BOND
     1    10     9    1
     2    10     8    1
     3     8     1    1
     4     1     2    2
     5     1     3   am
     6     3     4    1
     7     4     5    1
     8     5     6    1
     9     6     7    1
    10     7    23    1
    11    23    24    1
    12    24    26    1
    13    26    27   ar
    14    27    28   ar
    15    28    29   ar
    16    29    30    1
    17    29    31   ar
    18    31    32   ar
    19    10    13    1
    20    13    14    1
    21    14    15   ar
    22    15    16   ar
    23    16    17    1
    24    16    18   ar
    25    18    19    1
    26    18    20   ar
    27    20    21   ar
    28    21    22    1
    29     7     3    1
    30    32    26   ar
    31    21    14   ar
    32     9    11    1
    33     9    12    1
    34    24    25    1
@<TRIPOS>MOLECULE
*****
 32 34 0 0 0
SMALL
GASTEIGER

@<TRIPOS>ATOM
      1 C          -8.5144  -19.6735   22.6854 C.2     1  UNL1        0.2270
      2 O          -7.0187  -19.7632   22.7555 O.2     1  UNL1       -0.2748
      3 N          -9.1971  -19.5553   21.3550 N.am    1  UNL1       -0.2794
      4 C         -10.6768  -19.4572   21.1289 C.3     1  UNL1        0.0935
      5 C         -10.9142  -19.3557   19.6512 C.3     1  UNL1        0.0233
      6 C          -9.5813  -19.3910   18.9641 C.3     1  UNL1        0.0233
      7 C          -8.5201  -19.5144   20.0170 C.3     1  UNL1        0.0949
      8 C          -9.3273  -19.7020   23.9456 C.3     1  UNL1        0.1010
      9 N         -11.5915  -18.8830   24.9218 N.3     1  UNL1       -0.3215
     10 C         -10.2857  -18.5877   24.2452 C.3     1  UNL1        0.0644
     11 H         -11.6613  -19.8842   25.1038 H       1  UNL1        0.1188
     12 H         -12.3606  -18.5927   24.3180 H       1  UNL1        0.1188
     13 C          -9.9384  -17.1780   23.8683 C.3     1  UNL1        0.0447
     14 C          -8.6679  -16.5586   24.3707 C.ar    1  UNL1        0.0090
     15 C          -8.4923  -16.2910   25.8361 C.ar    1  UNL1        0.0300
     16 C          -7.2219  -15.6716   26.3385 C.ar    1  UNL1        0.1672
     17 F          -7.0462  -15.4040   27.8040 F       1  UNL1       -0.2018
     18 C          -6.1271  -15.3198   25.3753 C.ar    1  UNL1        0.1696
     19 F          -4.8566  -14.7005   25.8777 F       1  UNL1       -0.2017
     20 C          -6.3027  -15.5874   23.9099 C.ar    1  UNL1        0.0612
     21 C          -7.5731  -16.2068   23.4076 C.ar    1  UNL1        0.1386
     22 F          -7.7488  -16.4744   21.9422 F       1  UNL1       -0.2044
     23 C          -7.0414  -19.5845   19.7747 C.3     1  UNL1        0.1093
     24 N          -6.1674  -18.4178   20.1279 N.pl3   1  UNL1       -0.3013
     25 H          -6.5734  -17.5598   20.3890 H       1  UNL1        0.1497
     26 C          -4.6746  -18.5584   20.0834 C.ar    1  UNL1        0.2171
     27 N          -3.8762  -17.7684   19.0893 N.ar    1  UNL1       -0.2099
     28 C          -2.3835  -17.9090   19.0449 C.ar    1  UNL1        0.1330
     29 C          -1.6892  -18.8397   19.9945 C.ar    1  UNL1        0.1784
     30 F          -0.1964  -18.9803   19.9500 F       1  UNL1       -0.2009
     31 C          -2.4876  -19.6297   20.9886 C.ar    1  UNL1        0.1330
     32 N          -3.9803  -19.4891   21.0331 N.ar    1  UNL1       -0.2099
@<TRIPOS>BOND
     1    10     9    1
     2    10     8    1
     3     8     1    1
     4     1     2    2
     5     1     3   am
     6     3     4    1
     7     4     5    1
     8     5     6    1
     9     6     7    1
    10     7    23    1
    11    23    24    1
    12    24    26    1
    13    26    27   ar
    14    27    28   ar
    15    28    29   ar
    16    29    30    1
    17    29    31   ar
    18    31    32   ar
    19    10    13    1
    20    13    14    1
    21    14    15   ar
    22    15    16   ar
    23    16    17    1
    24    16    18   ar
    25    18    19    1
    26    18    20   ar
    27    20    21   ar
    28    21    22    1
    29     7     3    1
    30    32    26   ar
    31    21    14   ar
    32     9    11    1
    33     9    12    1
    34    24    25    1
@<TRIPOS>MOLECULE
*****
 32 34 0 0 0
SMALL
GASTEIGER

@<TRIPOS>ATOM
      1 C          -8.9402  -19.0153   22.2427 C.2     1  UNL1        0.2270
      2 O          -7.5470  -18.9125   22.7891 O.2     1  UNL1       -0.2748
      3 N          -9.1581  -19.4257   20.8166 N.am    1  UNL1       -0.2794
      4 C         -10.4860  -19.5713   20.1340 C.3     1  UNL1        0.0935
      5 C         -10.2350  -19.9983   18.7181 C.3     1  UNL1        0.0233
      6 C          -8.7521  -20.1166   18.5255 C.3     1  UNL1        0.0233
      7 C          -8.0866  -19.7627   19.8224 C.3     1  UNL1        0.0949
      8 C         -10.1155  -18.7076   23.1225 C.3     1  UNL1        0.1010
      9 N          -9.9066  -19.0564   25.6886 N.3     1  UNL1       -0.3215
     10 C          -9.8973  -18.1462   24.4963 C.3     1  UNL1        0.0644
     11 H         -10.0737  -20.0152   25.3832 H       1  UNL1        0.1188
     12 H         -10.6467  -18.7698   26.3294 H       1  UNL1        0.1188
     13 C          -9.6697  -16.6748   24.6779 C.3     1  UNL1        0.0447
     14 C          -8.3161  -16.1692   25.0804 C.ar    1  UNL1        0.0090
     15 C          -7.3359  -15.7337   24.0318 C.ar    1  UNL1        0.0300
     16 C          -5.9823  -15.2281   24.4342 C.ar    1  UNL1        0.1672
     17 F          -5.0020  -14.7926   23.3856 F       1  UNL1       -0.2018
     18 C          -5.6088  -15.1580   25.8853 C.ar    1  UNL1        0.1696
     19 F          -4.2551  -14.6524   26.2878 F       1  UNL1       -0.2017
     20 C          -6.5889  -15.5935   26.9339 C.ar    1  UNL1        0.0612
     21 C          -7.9426  -16.0991   26.5315 C.ar    1  UNL1        0.1386
     22 F          -8.9228  -16.5346   27.5800 F       1  UNL1       -0.2044
     23 C          -6.6089  -19.7484   20.0800 C.3     1  UNL1        0.1093
     24 N          -5.8355  -18.4710   19.9394 N.pl3   1  UNL1       -0.3013
     25 H          -6.3121  -17.6135   19.8571 H       1  UNL1        0.1497
     26 C          -4.3358  -18.5000   19.9241 C.ar    1  UNL1        0.2171
     27 N          -3.5778  -17.6033   18.9907 N.ar    1  UNL1       -0.2099
     28 C          -2.0781  -17.6324   18.9755 C.ar    1  UNL1        0.1330
     29 C          -1.3366  -18.5582   19.8936 C.ar    1  UNL1        0.1784
     30 F           0.1631  -18.5872   19.8783 F       1  UNL1       -0.2009
     31 C          -2.0946  -19.4549   20.8270 C.ar    1  UNL1        0.1330
     32 N          -3.5942  -19.4258   20.8422 N.ar    1  UNL1       -0.2099
@<TRIPOS>BOND
     1    10     9    1
     2    10     8    1
     3     8     1    1
     4     1     2    2
     5     1     3   am
     6     3     4    1
     7     4     5    1
     8     5     6    1
     9     6     7    1
    10     7    23    1
    11    23    24    1
    12    24    26    1
    13    26    27   ar
    14    27    28   ar
    15    28    29   ar
    16    29    30    1
    17    29    31   ar
    18    31    32   ar
    19    10    13    1
    20    13    14    1
    21    14    15   ar
    22    15    16   ar
    23    16    17    1
    24    16    18   ar
    25    18    19    1
    26    18    20   ar
    27    20    21   ar
    28    21    22    1
    29     7     3    1
    30    32    26   ar
    31    21    14   ar
    32     9    11    1
    33     9    12    1
    34    24    25    1
@<TRIPOS>MOLECULE
*****
 32 34 0 0 0
SMALL
GASTEIGER

@<TRIPOS>ATOM
      1 C          -8.9190  -19.8936   22.6720 C.2     1  UNL1        0.2270
      2 O          -7.5338  -19.7802   23.2362 O.2     1  UNL1       -0.2748
      3 N          -9.1410  -19.7538   21.1951 N.am    1  UNL1       -0.2794
      4 C         -10.4619  -19.8428   20.4898 C.3     1  UNL1        0.0935
      5 C         -10.2184  -19.6446   19.0230 C.3     1  UNL1        0.0233
      6 C          -8.7471  -19.4330   18.8218 C.3     1  UNL1        0.0233
      7 C          -8.0813  -19.5006   20.1642 C.3     1  UNL1        0.0949
      8 C         -10.0822  -20.1466   23.5846 C.3     1  UNL1        0.1010
      9 N          -9.9905  -18.8913   25.8575 N.3     1  UNL1       -0.3215
     10 C         -10.5783  -19.0562   24.4873 C.3     1  UNL1        0.0644
     11 H          -9.2724  -19.6001   26.0069 H       1  UNL1        0.1188
     12 H         -10.7246  -18.9981   26.5575 H       1  UNL1        0.1188
     13 C         -11.6622  -18.1306   24.0199 C.3     1  UNL1        0.0447
     14 C         -11.4838  -17.3452   22.7545 C.ar    1  UNL1        0.0090
     15 C         -10.2424  -16.5292   22.5470 C.ar    1  UNL1        0.0300
     16 C         -10.0641  -15.7437   21.2816 C.ar    1  UNL1        0.1672
     17 F          -8.8226  -14.9277   21.0740 F       1  UNL1       -0.2018
     18 C         -11.1271  -15.7742   20.2238 C.ar    1  UNL1        0.1696
     19 F         -10.9487  -14.9888   18.9584 F       1  UNL1       -0.2017
     20 C         -12.3685  -16.5902   20.4313 C.ar    1  UNL1        0.0612
     21 C         -12.5469  -17.3757   21.6967 C.ar    1  UNL1        0.1386
     22 F         -13.7882  -18.1916   21.9043 F       1  UNL1       -0.2044
     23 C          -6.6133  -19.3426   20.4293 C.3     1  UNL1        0.1093
     24 N          -5.7522  -18.5918   19.4573 N.pl3   1  UNL1       -0.3013
     25 H          -6.1636  -18.1216   18.6964 H       1  UNL1        0.1497
     26 C          -4.2643  -18.5576   19.6445 C.ar    1  UNL1        0.2171
     27 N          -3.4389  -17.5445   18.9081 N.ar    1  UNL1       -0.2099
     28 C          -1.9510  -17.5102   19.0953 C.ar    1  UNL1        0.1330
     29 C          -1.2886  -18.4891   20.0190 C.ar    1  UNL1        0.1784
     30 F           0.1993  -18.4548   20.2062 F       1  UNL1       -0.2009
     31 C          -2.1140  -19.5022   20.7553 C.ar    1  UNL1        0.1330
     32 N          -3.6018  -19.5364   20.5681 N.ar    1  UNL1       -0.2099
@<TRIPOS>BOND
     1    10     9    1
     2    10     8    1
     3     8     1    1
     4     1     2    2
     5     1     3   am
     6     3     4    1
     7     4     5    1
     8     5     6    1
     9     6     7    1
    10     7    23    1
    11    23    24    1
    12    24    26    1
    13    26    27   ar
    14    27    28   ar
    15    28    29   ar
    16    29    30    1
    17    29    31   ar
    18    31    32   ar
    19    10    13    1
    20    13    14    1
    21    14    15   ar
    22    15    16   ar
    23    16    17    1
    24    16    18   ar
    25    18    19    1
    26    18    20   ar
    27    20    21   ar
    28    21    22    1
    29     7     3    1
    30    32    26   ar
    31    21    14   ar
    32     9    11    1
    33     9    12    1
    34    24    25    1
@<TRIPOS>MOLECULE
*****
 32 34 0 0 0
SMALL
GASTEIGER

@<TRIPOS>ATOM
      1 C          -6.5210  -18.3201   22.2373 C.2     1  UNL1        0.2270
      2 O          -5.6423  -19.4569   21.8065 O.2     1  UNL1       -0.2748
      3 N          -5.9854  -17.2665   23.1610 N.am    1  UNL1       -0.2794
      4 C          -6.7417  -16.0773   23.6749 C.3     1  UNL1        0.0935
      5 C          -5.8232  -15.2930   24.5644 C.3     1  UNL1        0.0233
      6 C          -4.4993  -15.9973   24.6003 C.3     1  UNL1        0.0233
      7 C          -4.5996  -17.2170   23.7329 C.3     1  UNL1        0.0949
      8 C          -7.9352  -18.2368   21.7445 C.3     1  UNL1        0.1010
      9 N          -7.3234  -19.2407   19.4276 N.3     1  UNL1       -0.3215
     10 C          -8.3388  -18.9651   20.4968 C.3     1  UNL1        0.0644
     11 H          -6.4187  -18.8661   19.7132 H       1  UNL1        0.1188
     12 H          -7.6164  -18.7959   18.5577 H       1  UNL1        0.1188
     13 C          -9.7576  -19.4178   20.3182 C.3     1  UNL1        0.0447
     14 C         -10.8272  -18.9149   21.2417 C.ar    1  UNL1        0.0090
     15 C         -10.8793  -19.3960   22.6615 C.ar    1  UNL1        0.0300
     16 C         -11.9490  -18.8931   23.5850 C.ar    1  UNL1        0.1672
     17 F         -12.0012  -19.3740   25.0049 F       1  UNL1       -0.2018
     18 C         -12.9666  -17.9091   23.0887 C.ar    1  UNL1        0.1696
     19 F         -14.0363  -17.4062   24.0122 F       1  UNL1       -0.2017
     20 C         -12.9145  -17.4281   21.6689 C.ar    1  UNL1        0.0612
     21 C         -11.8449  -17.9310   20.7454 C.ar    1  UNL1        0.1386
     22 F         -11.7927  -17.4500   19.3256 F       1  UNL1       -0.2044
     23 C          -3.5060  -18.2125   23.4815 C.3     1  UNL1        0.1093
     24 N          -2.1941  -17.7581   22.9139 N.pl3   1  UNL1       -0.3013
     25 H          -1.4765  -17.4538   23.5153 H       1  UNL1        0.1497
     26 C          -1.9754  -17.7674   21.4299 C.ar    1  UNL1        0.2171
     27 N          -0.6051  -18.0214   20.8753 N.ar    1  UNL1       -0.2099
     28 C          -0.3865  -18.0307   19.3913 C.ar    1  UNL1        0.1330
     29 C          -1.5383  -17.7860   18.4620 C.ar    1  UNL1        0.1784
     30 F          -1.3196  -17.7952   16.9780 F       1  UNL1       -0.2009
     31 C          -2.9086  -17.5320   19.0167 C.ar    1  UNL1        0.1330
     32 N          -3.1272  -17.5227   20.5006 N.ar    1  UNL1       -0.2099
@<TRIPOS>BOND
     1    10     9    1
     2    10     8    1
     3     8     1    1
     4     1     2    2
     5     1     3   am
     6     3     4    1
     7     4     5    1
     8     5     6    1
     9     6     7    1
    10     7    23    1
    11    23    24    1
    12    24    26    1
    13    26    27   ar
    14    27    28   ar
    15    28    29   ar
    16    29    30    1
    17    29    31   ar
    18    31    32   ar
    19    10    13    1
    20    13    14    1
    21    14    15   ar
    22    15    16   ar
    23    16    17    1
    24    16    18   ar
    25    18    19    1
    26    18    20   ar
    27    20    21   ar
    28    21    22    1
    29     7     3    1
    30    32    26   ar
    31    21    14   ar
    32     9    11    1
    33     9    12    1
    34    24    25    1
@<TRIPOS>MOLECULE
*****
 32 34 0 0 0
SMALL
GASTEIGER

@<TRIPOS>ATOM
      1 C          -5.2821  -18.3087   22.5431 C.2     1  UNL1        0.2270
      2 O          -6.7637  -18.1589   22.7227 O.2     1  UNL1       -0.2748
      3 N          -4.7434  -19.2611   21.5171 N.am    1  UNL1       -0.2794
      4 C          -3.2942  -19.5160   21.2255 C.3     1  UNL1        0.0935
      5 C          -3.2145  -20.5383   20.1307 C.3     1  UNL1        0.0233
      6 C          -4.6144  -20.9152   19.7456 C.3     1  UNL1        0.0233
      7 C          -5.5592  -20.1259   20.6025 C.3     1  UNL1        0.0949
      8 C          -4.3390  -17.5061   23.3896 C.3     1  UNL1        0.1010
      9 N          -2.8733  -15.8169   22.0673 N.3     1  UNL1       -0.3215
     10 C          -4.0072  -16.0935   23.0095 C.3     1  UNL1        0.0644
     11 H          -2.4422  -16.6976   21.7863 H       1  UNL1        0.1188
     12 H          -2.1794  -15.2319   22.5328 H       1  UNL1        0.1188
     13 C          -4.8093  -14.9574   23.5717 C.3     1  UNL1        0.0447
     14 C          -5.8797  -15.2255   24.5876 C.ar    1  UNL1        0.0090
     15 C          -5.5056  -15.5473   26.0041 C.ar    1  UNL1        0.0300
     16 C          -6.5761  -15.8154   27.0201 C.ar    1  UNL1        0.1672
     17 F          -6.2021  -16.1373   28.4367 F       1  UNL1       -0.2018
     18 C          -8.0206  -15.7617   26.6196 C.ar    1  UNL1        0.1696
     19 F          -9.0911  -16.0298   27.6356 F       1  UNL1       -0.2017
     20 C          -8.3947  -15.4399   25.2031 C.ar    1  UNL1        0.0612
     21 C          -7.3243  -15.1718   24.1871 C.ar    1  UNL1        0.1386
     22 F          -7.6983  -14.8499   22.7706 F       1  UNL1       -0.2044
     23 C          -7.0571  -20.1900   20.5533 C.3     1  UNL1        0.1093
     24 N          -7.8390  -19.0404   19.9903 N.pl3   1  UNL1       -0.3013
     25 H          -7.4360  -18.4598   19.3049 H       1  UNL1        0.1497
     26 C          -9.2349  -18.7755   20.4714 C.ar    1  UNL1        0.2171
     27 N         -10.1273  -17.8431   19.7070 N.ar    1  UNL1       -0.2099
     28 C         -11.5231  -17.5782   20.1881 C.ar    1  UNL1        0.1330
     29 C         -12.0265  -18.2457   21.4336 C.ar    1  UNL1        0.1784
     30 F         -13.4224  -17.9808   21.9147 F       1  UNL1       -0.2009
     31 C         -11.1340  -19.1781   22.1979 C.ar    1  UNL1        0.1330
     32 N          -9.7382  -19.4430   21.7168 N.ar    1  UNL1       -0.2099
@<TRIPOS>BOND
     1    10     9    1
     2    10     8    1
     3     8     1    1
     4     1     2    2
     5     1     3   am
     6     3     4    1
     7     4     5    1
     8     5     6    1
     9     6     7    1
    10     7    23    1
    11    23    24    1
    12    24    26    1
    13    26    27   ar
    14    27    28   ar
    15    28    29   ar
    16    29    30    1
    17    29    31   ar
    18    31    32   ar
    19    10    13    1
    20    13    14    1
    21    14    15   ar
    22    15    16   ar
    23    16    17    1
    24    16    18   ar
    25    18    19    1
    26    18    20   ar
    27    20    21   ar
    28    21    22    1
    29     7     3    1
    30    32    26   ar
    31    21    14   ar
    32     9    11    1
    33     9    12    1
    34    24    25    1
