@<TRIPOS>MOLECULE
*****
 29 32 0 0 0
SMALL
GASTEIGER

@<TRIPOS>ATOM
      1 C         -14.5376   -8.0357   17.9732 C.ar    1  UNL1        0.1311
      2 C         -14.6027   -6.9558   19.0123 C.ar    1  UNL1        0.0339
      3 C         -13.3703   -6.1748   19.3604 C.ar    1  UNL1        0.0027
      4 C         -12.0729   -6.4735   18.6694 C.ar    1  UNL1        0.0283
      5 C         -12.0078   -7.5533   17.6303 C.ar    1  UNL1        0.2196
      6 F         -10.7104   -7.8520   16.9393 F       1  UNL1       -0.1835
      7 N         -13.2402   -8.3344   17.2822 N.ar    1  UNL1       -0.2035
      8 N         -15.7699   -8.8168   17.6250 N.pl3   1  UNL1       -0.3143
      9 H         -15.7118   -9.7887   17.4793 H       1  UNL1        0.1485
     10 C         -17.0908   -8.1171   17.4989 C.3     1  UNL1        0.1200
     11 C         -19.2321   -9.4890   18.0307 C.ar    1  UNL1        0.2224
     12 N         -20.3556   -9.8341   18.9626 N.ar    1  UNL1       -0.2104
     13 C         -20.4614   -9.1527   20.2947 C.ar    1  UNL1        0.1020
     14 C         -19.4436   -8.1260   20.6948 C.ar    1  UNL1        0.0206
     15 C         -18.3201   -7.7809   19.7629 C.ar    1  UNL1        0.0036
     16 C         -18.2143   -8.4623   18.4308 C.ar    1  UNL1        0.0506
     17 C         -20.3673  -10.6148   15.9828 C.3     1  UNL1        0.2542
     18 O         -19.1264  -10.1704   16.6986 O.3     1  UNL1       -0.4563
     19 C         -10.8405   -5.6924   19.0175 C.3     1  UNL1        0.0582
     20 C         -10.3418   -4.6251   18.0890 C.ar    1  UNL1        0.0044
     21 C          -9.2844   -4.7939   17.0385 C.ar    1  UNL1        0.0966
     22 N          -9.1021   -3.4747   16.3483 N.ar    1  UNL1       -0.2273
     23 C         -10.0467   -2.4906   16.9721 C.ar    1  UNL1        0.1402
     24 N         -10.3082   -1.0390   16.6995 N.ar    1  UNL1       -0.3374
     25 C         -11.3359   -0.2983   17.5027 C.ar    1  UNL1        0.0735
     26 C         -12.1021   -1.0093   18.5786 C.ar    1  UNL1        0.0186
     27 C         -11.8406   -2.4609   18.8512 C.ar    1  UNL1        0.0043
     28 C         -10.8129   -3.2016   18.0479 C.ar    1  UNL1        0.0318
     29 H          -9.8053   -0.5723   15.9933 H       1  UNL1        0.1674
@<TRIPOS>BOND
     1    17    18    1
     2    18    11    1
     3    11    12   ar
     4    12    13   ar
     5    13    14   ar
     6    14    15   ar
     7    15    16   ar
     8    16    10    1
     9    10     8    1
    10     8     1    1
    11     1     2   ar
    12     2     3   ar
    13     3     4   ar
    14     4    19    1
    15    19    20    1
    16    20    21   ar
    17    21    22   ar
    18    22    23   ar
    19    23    24   ar
    20    24    25   ar
    21    25    26   ar
    22    26    27   ar
    23    27    28   ar
    24     4     5   ar
    25     5     6    1
    26     5     7   ar
    27    16    11   ar
    28     7     1   ar
    29    28    20   ar
    30    28    23    1
    31     8     9    1
    32    24    29    1
@<TRIPOS>MOLECULE
*****
 29 32 0 0 0
SMALL
GASTEIGER

@<TRIPOS>ATOM
      1 C          -0.4591    2.1385   20.4406 C.ar    1  UNL1        0.1311
      2 C           0.2641    2.9021   19.3711 C.ar    1  UNL1        0.0339
      3 C           1.3089    2.2199   18.5387 C.ar    1  UNL1        0.0027
      4 C           1.6305    0.7741   18.7758 C.ar    1  UNL1        0.0283
      5 C           0.9073    0.0105   19.8453 C.ar    1  UNL1        0.2196
      6 F           1.2290   -1.4353   20.0823 F       1  UNL1       -0.1835
      7 N          -0.1374    0.6927   20.6777 N.ar    1  UNL1       -0.2035
      8 N          -1.5039    2.8206   21.2731 N.pl3   1  UNL1       -0.3143
      9 H          -1.7751    2.4336   22.1368 H       1  UNL1        0.1485
     10 C          -2.1355    4.0925   20.7898 C.3     1  UNL1        0.1200
     11 C          -4.5546    3.2929   20.2810 C.ar    1  UNL1        0.2224
     12 N          -5.7390    3.2401   19.3621 N.ar    1  UNL1       -0.2104
     13 C          -5.6888    3.9340   18.0332 C.ar    1  UNL1        0.1020
     14 C          -4.4542    4.6807   17.6232 C.ar    1  UNL1        0.0206
     15 C          -3.2698    4.7335   18.5421 C.ar    1  UNL1        0.0036
     16 C          -3.3200    4.0396   19.8710 C.ar    1  UNL1        0.0506
     17 C          -5.2200    3.2867   22.7924 C.3     1  UNL1        0.2542
     18 O          -4.6048    2.5990   21.6099 O.3     1  UNL1       -0.4563
     19 C           2.6754    0.0919   17.9432 C.3     1  UNL1        0.0582
     20 C           4.0123   -0.2365   18.5389 C.ar    1  UNL1        0.0044
     21 C           5.1201    0.7378   18.8101 C.ar    1  UNL1        0.0966
     22 N           6.2685   -0.0206   19.4068 N.ar    1  UNL1       -0.2273
     23 C           5.8705   -1.4635   19.5044 C.ar    1  UNL1        0.1402
     24 N           6.5977   -2.6731   20.0124 N.ar    1  UNL1       -0.3374
     25 C           5.9304   -4.0162   19.9840 C.ar    1  UNL1        0.0735
     26 C           4.5359   -4.1496   19.4476 C.ar    1  UNL1        0.0186
     27 C           3.8088   -2.9401   18.9396 C.ar    1  UNL1        0.0043
     28 C           4.4761   -1.5970   18.9680 C.ar    1  UNL1        0.0318
     29 H           7.5129   -2.5855   20.3644 H       1  UNL1        0.1674
@<TRIPOS>BOND
     1    17    18    1
     2    18    11    1
     3    11    12   ar
     4    12    13   ar
     5    13    14   ar
     6    14    15   ar
     7    15    16   ar
     8    16    10    1
     9    10     8    1
    10     8     1    1
    11     1     2   ar
    12     2     3   ar
    13     3     4   ar
    14     4    19    1
    15    19    20    1
    16    20    21   ar
    17    21    22   ar
    18    22    23   ar
    19    23    24   ar
    20    24    25   ar
    21    25    26   ar
    22    26    27   ar
    23    27    28   ar
    24     4     5   ar
    25     5     6    1
    26     5     7   ar
    27    16    11   ar
    28     7     1   ar
    29    28    20   ar
    30    28    23    1
    31     8     9    1
    32    24    29    1
@<TRIPOS>MOLECULE
*****
 29 32 0 0 0
SMALL
GASTEIGER

@<TRIPOS>ATOM
      1 C           6.4042   -2.9658   24.4384 C.ar    1  UNL1        0.1311
      2 C           4.9682   -2.6469   24.1452 C.ar    1  UNL1        0.0339
      3 C           4.3844   -2.9809   22.8044 C.ar    1  UNL1        0.0027
      4 C           5.2366   -3.6338   21.7569 C.ar    1  UNL1        0.0283
      5 C           6.6727   -3.9528   22.0501 C.ar    1  UNL1        0.2196
      6 F           7.5250   -4.6058   21.0026 F       1  UNL1       -0.1835
      7 N           7.2565   -3.6188   23.3908 N.ar    1  UNL1       -0.2035
      8 N           6.9881   -2.6318   25.7791 N.pl3   1  UNL1       -0.3143
      9 H           7.9554   -2.4718   25.8687 H       1  UNL1        0.1485
     10 C           6.0983   -2.5416   26.9833 C.3     1  UNL1        0.1200
     11 C           6.5511   -4.8760   28.0299 C.ar    1  UNL1        0.2224
     12 N           6.8276   -5.7290   29.2324 N.ar    1  UNL1       -0.2104
     13 C           6.9277   -5.1005   30.5907 C.ar    1  UNL1        0.1020
     14 C           6.7513   -3.6191   30.7465 C.ar    1  UNL1        0.0206
     15 C           6.4749   -2.7662   29.5440 C.ar    1  UNL1        0.0036
     16 C           6.3747   -3.3946   28.1857 C.ar    1  UNL1        0.0506
     17 C           7.6200   -6.2531   26.1035 C.3     1  UNL1        0.2542
     18 O           6.4510   -5.5045   26.6716 O.3     1  UNL1       -0.4563
     19 C           4.6528   -3.9678   20.4161 C.3     1  UNL1        0.0582
     20 C           4.5738   -2.9162   19.3494 C.ar    1  UNL1        0.0044
     21 C           5.5115   -2.7659   18.1883 C.ar    1  UNL1        0.0966
     22 N           5.0605   -1.5870   17.3779 N.ar    1  UNL1       -0.2273
     23 C           3.8441   -1.0087   18.0381 C.ar    1  UNL1        0.1402
     24 N           2.9715    0.1598   17.6873 N.ar    1  UNL1       -0.3374
     25 C           1.7981    0.5068   18.5549 C.ar    1  UNL1        0.0735
     26 C           1.4974   -0.3146   19.7734 C.ar    1  UNL1        0.0186
     27 C           2.3700   -1.4831   20.1242 C.ar    1  UNL1        0.0043
     28 C           3.5433   -1.8302   19.2566 C.ar    1  UNL1        0.0318
     29 H           3.1689    0.6990   16.8875 H       1  UNL1        0.1674
@<TRIPOS>BOND
     1    17    18    1
     2    18    11    1
     3    11    12   ar
     4    12    13   ar
     5    13    14   ar
     6    14    15   ar
     7    15    16   ar
     8    16    10    1
     9    10     8    1
    10     8     1    1
    11     1     2   ar
    12     2     3   ar
    13     3     4   ar
    14     4    19    1
    15    19    20    1
    16    20    21   ar
    17    21    22   ar
    18    22    23   ar
    19    23    24   ar
    20    24    25   ar
    21    25    26   ar
    22    26    27   ar
    23    27    28   ar
    24     4     5   ar
    25     5     6    1
    26     5     7   ar
    27    16    11   ar
    28     7     1   ar
    29    28    20   ar
    30    28    23    1
    31     8     9    1
    32    24    29    1
@<TRIPOS>MOLECULE
*****
 29 32 0 0 0
SMALL
GASTEIGER

@<TRIPOS>ATOM
      1 C           5.3807   -3.9862   21.1190 C.ar    1  UNL1        0.1311
      2 C           4.5600   -3.4906   22.2726 C.ar    1  UNL1        0.0339
      3 C           5.2092   -3.2377   23.6010 C.ar    1  UNL1        0.0027
      4 C           6.6790   -3.4805   23.7758 C.ar    1  UNL1        0.0283
      5 C           7.4998   -3.9762   22.6222 C.ar    1  UNL1        0.2196
      6 F           8.9696   -4.2190   22.7971 F       1  UNL1       -0.1835
      7 N           6.8506   -4.2291   21.2939 N.ar    1  UNL1       -0.2035
      8 N           4.7316   -4.2391   19.7906 N.pl3   1  UNL1       -0.3143
      9 H           5.1654   -4.8327   19.1359 H       1  UNL1        0.1485
     10 C           3.4216   -3.5876   19.4597 C.3     1  UNL1        0.1200
     11 C           4.3465   -1.4533   18.3025 C.ar    1  UNL1        0.2224
     12 N           4.2836    0.0264   18.0649 N.ar    1  UNL1       -0.2104
     13 C           3.2329    0.8515   18.7470 C.ar    1  UNL1        0.1020
     14 C           2.2452    0.1969   19.6667 C.ar    1  UNL1        0.0206
     15 C           2.3081   -1.2828   19.9042 C.ar    1  UNL1        0.0036
     16 C           3.3588   -2.1079   19.2221 C.ar    1  UNL1        0.0506
     17 C           6.8368   -2.1365   18.0168 C.3     1  UNL1        0.2542
     18 O           5.3972   -2.2784   17.6204 O.3     1  UNL1       -0.4563
     19 C           7.3282   -3.2276   25.1043 C.3     1  UNL1        0.0582
     20 C           7.1357   -4.1998   26.2303 C.ar    1  UNL1        0.0044
     21 C           6.4281   -3.9223   27.5234 C.ar    1  UNL1        0.0966
     22 N           6.4721   -5.1711   28.3531 N.ar    1  UNL1       -0.2273
     23 C           7.2068   -6.2205   27.5728 C.ar    1  UNL1        0.1402
     24 N           7.5554   -7.6451   27.8874 N.ar    1  UNL1       -0.3374
     25 C           8.3141   -8.4693   26.8900 C.ar    1  UNL1        0.0735
     26 C           8.7243   -7.8690   25.5779 C.ar    1  UNL1        0.0186
     27 C           8.3757   -6.4444   25.2633 C.ar    1  UNL1        0.0043
     28 C           7.6170   -5.6202   26.2608 C.ar    1  UNL1        0.0318
     29 H           7.2862   -8.0391   28.7485 H       1  UNL1        0.1674
@<TRIPOS>BOND
     1    17    18    1
     2    18    11    1
     3    11    12   ar
     4    12    13   ar
     5    13    14   ar
     6    14    15   ar
     7    15    16   ar
     8    16    10    1
     9    10     8    1
    10     8     1    1
    11     1     2   ar
    12     2     3   ar
    13     3     4   ar
    14     4    19    1
    15    19    20    1
    16    20    21   ar
    17    21    22   ar
    18    22    23   ar
    19    23    24   ar
    20    24    25   ar
    21    25    26   ar
    22    26    27   ar
    23    27    28   ar
    24     4     5   ar
    25     5     6    1
    26     5     7   ar
    27    16    11   ar
    28     7     1   ar
    29    28    20   ar
    30    28    23    1
    31     8     9    1
    32    24    29    1
@<TRIPOS>MOLECULE
*****
 29 32 0 0 0
SMALL
GASTEIGER

@<TRIPOS>ATOM
      1 C          -0.5732    2.2149   20.4245 C.ar    1  UNL1        0.1311
      2 C           0.1488    2.9697   19.3480 C.ar    1  UNL1        0.0339
      3 C           1.2065    2.2861   18.5331 C.ar    1  UNL1        0.0027
      4 C           1.5420    0.8477   18.7947 C.ar    1  UNL1        0.0283
      5 C           0.8200    0.0929   19.8712 C.ar    1  UNL1        0.2196
      6 F           1.1555   -1.3455   20.1328 F       1  UNL1       -0.1835
      7 N          -0.2377    0.7765   20.6861 N.ar    1  UNL1       -0.2035
      8 N          -1.6309    2.8985   21.2394 N.pl3   1  UNL1       -0.3143
      9 H          -1.4486    3.1454   22.1748 H       1  UNL1        0.1485
     10 C          -2.9663    3.2058   20.6291 C.3     1  UNL1        0.1200
     11 C          -5.4345    3.9707   20.8995 C.ar    1  UNL1        0.2224
     12 N          -6.6036    4.2990   21.7799 N.ar    1  UNL1       -0.2104
     13 C          -6.4738    4.1908   23.2704 C.ar    1  UNL1        0.1020
     14 C          -5.1749    3.7543   23.8804 C.ar    1  UNL1        0.0206
     15 C          -4.0057    3.4260   23.0000 C.ar    1  UNL1        0.0036
     16 C          -4.1355    3.5342   21.5095 C.ar    1  UNL1        0.0506
     17 C          -6.6086    3.2801   18.6871 C.3     1  UNL1        0.2542
     18 O          -5.5642    4.0789   19.4090 O.3     1  UNL1       -0.4563
     19 C           2.5998    0.1641   17.9798 C.3     1  UNL1        0.0582
     20 C           3.9220   -0.1764   18.6010 C.ar    1  UNL1        0.0044
     21 C           5.0193    0.7934   18.9257 C.ar    1  UNL1        0.0966
     22 N           6.1545    0.0227   19.5319 N.ar    1  UNL1       -0.2273
     23 C           5.7587   -1.4233   19.5818 C.ar    1  UNL1        0.1402
     24 N           6.4764   -2.6439   20.0768 N.ar    1  UNL1       -0.3374
     25 C           5.8144   -3.9874   19.9964 C.ar    1  UNL1        0.0735
     26 C           4.4346   -4.1104   19.4210 C.ar    1  UNL1        0.0186
     27 C           3.7169   -2.8899   18.9260 C.ar    1  UNL1        0.0043
     28 C           4.3789   -1.5463   19.0064 C.ar    1  UNL1        0.0318
     29 H           7.3821   -2.5631   20.4544 H       1  UNL1        0.1674
@<TRIPOS>BOND
     1    17    18    1
     2    18    11    1
     3    11    12   ar
     4    12    13   ar
     5    13    14   ar
     6    14    15   ar
     7    15    16   ar
     8    16    10    1
     9    10     8    1
    10     8     1    1
    11     1     2   ar
    12     2     3   ar
    13     3     4   ar
    14     4    19    1
    15    19    20    1
    16    20    21   ar
    17    21    22   ar
    18    22    23   ar
    19    23    24   ar
    20    24    25   ar
    21    25    26   ar
    22    26    27   ar
    23    27    28   ar
    24     4     5   ar
    25     5     6    1
    26     5     7   ar
    27    16    11   ar
    28     7     1   ar
    29    28    20   ar
    30    28    23    1
    31     8     9    1
    32    24    29    1
@<TRIPOS>MOLECULE
*****
 29 32 0 0 0
SMALL
GASTEIGER

@<TRIPOS>ATOM
      1 C           5.4025   -3.4745   23.3786 C.ar    1  UNL1        0.1311
      2 C           4.3908   -2.3697   23.3014 C.ar    1  UNL1        0.0339
      3 C           3.7560   -2.0247   21.9869 C.ar    1  UNL1        0.0027
      4 C           4.1328   -2.7844   20.7497 C.ar    1  UNL1        0.0283
      5 C           5.1445   -3.8892   20.8269 C.ar    1  UNL1        0.2196
      6 F           5.5214   -4.6489   19.5896 F       1  UNL1       -0.1835
      7 N           5.7793   -4.2342   22.1414 N.ar    1  UNL1       -0.2035
      8 N           6.0374   -3.8195   24.6931 N.pl3   1  UNL1       -0.3143
      9 H           5.5077   -3.7768   25.5218 H       1  UNL1        0.1485
     10 C           7.4793   -4.2296   24.7449 C.3     1  UNL1        0.1200
     11 C           7.3181   -6.0437   26.5979 C.ar    1  UNL1        0.2224
     12 N           7.6950   -7.3948   27.1293 N.ar    1  UNL1       -0.2104
     13 C           8.6099   -8.2830   26.3393 C.ar    1  UNL1        0.1020
     14 C           9.1479   -7.8201   25.0178 C.ar    1  UNL1        0.0206
     15 C           8.7710   -6.4689   24.4864 C.ar    1  UNL1        0.0036
     16 C           7.8561   -5.5807   25.2764 C.ar    1  UNL1        0.0506
     17 C           6.5329   -5.0828   28.8805 C.3     1  UNL1        0.2542
     18 O           6.4033   -5.1555   27.3879 O.3     1  UNL1       -0.4563
     19 C           3.4979   -2.4394   19.4351 C.3     1  UNL1        0.0582
     20 C           3.3900   -1.0056   19.0077 C.ar    1  UNL1        0.0044
     21 C           4.3909   -0.2544   18.1807 C.ar    1  UNL1        0.0966
     22 N           3.8818    1.1442   17.9942 N.ar    1  UNL1       -0.2273
     23 C           2.5662    1.2573   18.7059 C.ar    1  UNL1        0.1402
     24 N           1.6058    2.3985   18.8645 N.ar    1  UNL1       -0.3374
     25 C           0.3414    2.2110   19.6495 C.ar    1  UNL1        0.0735
     26 C           0.0375    0.8824   20.2759 C.ar    1  UNL1        0.0186
     27 C           0.9980   -0.2588   20.1173 C.ar    1  UNL1        0.0043
     28 C           2.2623   -0.0713   19.3323 C.ar    1  UNL1        0.0318
     29 H           1.8052    3.2705   18.4534 H       1  UNL1        0.1674
@<TRIPOS>BOND
     1    17    18    1
     2    18    11    1
     3    11    12   ar
     4    12    13   ar
     5    13    14   ar
     6    14    15   ar
     7    15    16   ar
     8    16    10    1
     9    10     8    1
    10     8     1    1
    11     1     2   ar
    12     2     3   ar
    13     3     4   ar
    14     4    19    1
    15    19    20    1
    16    20    21   ar
    17    21    22   ar
    18    22    23   ar
    19    23    24   ar
    20    24    25   ar
    21    25    26   ar
    22    26    27   ar
    23    27    28   ar
    24     4     5   ar
    25     5     6    1
    26     5     7   ar
    27    16    11   ar
    28     7     1   ar
    29    28    20   ar
    30    28    23    1
    31     8     9    1
    32    24    29    1
@<TRIPOS>MOLECULE
*****
 29 32 0 0 0
SMALL
GASTEIGER

@<TRIPOS>ATOM
      1 C         -14.8741   -0.1070   18.4276 C.ar    1  UNL1        0.1311
      2 C         -15.8297   -0.9500   19.2188 C.ar    1  UNL1        0.0339
      3 C         -15.3402   -2.1839   19.9172 C.ar    1  UNL1        0.0027
      4 C         -13.8950   -2.5748   19.8244 C.ar    1  UNL1        0.0283
      5 C         -12.9393   -1.7318   19.0331 C.ar    1  UNL1        0.2196
      6 F         -11.4941   -2.1228   18.9403 F       1  UNL1       -0.1835
      7 N         -13.4289   -0.4980   18.3347 N.ar    1  UNL1       -0.2035
      8 N         -15.3636    1.1269   17.7291 N.pl3   1  UNL1       -0.3143
      9 H         -14.9509    1.4088   16.8809 H       1  UNL1        0.1485
     10 C         -16.4818    1.9312   18.3229 C.3     1  UNL1        0.1200
     11 C         -15.1980    3.7517   19.6600 C.ar    1  UNL1        0.2224
     12 N         -14.9786    4.5171   20.9312 N.ar    1  UNL1       -0.2104
     13 C         -15.8234    4.2276   22.1363 C.ar    1  UNL1        0.1020
     14 C         -16.8877    3.1727   22.0703 C.ar    1  UNL1        0.0206
     15 C         -17.1072    2.4072   20.7992 C.ar    1  UNL1        0.0036
     16 C         -16.2623    2.6967   19.5940 C.ar    1  UNL1        0.0506
     17 C         -14.7409    5.1433   17.5142 C.3     1  UNL1        0.2542
     18 O         -14.3532    4.0411   18.4548 O.3     1  UNL1       -0.4563
     19 C         -13.4054   -3.8088   20.5229 C.3     1  UNL1        0.0582
     20 C         -13.4052   -5.1263   19.8058 C.ar    1  UNL1        0.0044
     21 C         -14.6009   -5.9998   19.5660 C.ar    1  UNL1        0.0966
     22 N         -14.1439   -7.2149   18.8147 N.ar    1  UNL1       -0.2273
     23 C         -12.6658   -7.0925   18.5902 C.ar    1  UNL1        0.1402
     24 N         -11.6767   -7.9897   17.9071 N.ar    1  UNL1       -0.3374
     25 C         -10.2310   -7.5960   17.8366 C.ar    1  UNL1        0.0735
     26 C          -9.7745   -6.3051   18.4492 C.ar    1  UNL1        0.0186
     27 C         -10.7637   -5.4079   19.1322 C.ar    1  UNL1        0.0043
     28 C         -12.2093   -5.8016   19.2028 C.ar    1  UNL1        0.0318
     29 H         -11.9763   -8.8369   17.5050 H       1  UNL1        0.1674
@<TRIPOS>BOND
     1    17    18    1
     2    18    11    1
     3    11    12   ar
     4    12    13   ar
     5    13    14   ar
     6    14    15   ar
     7    15    16   ar
     8    16    10    1
     9    10     8    1
    10     8     1    1
    11     1     2   ar
    12     2     3   ar
    13     3     4   ar
    14     4    19    1
    15    19    20    1
    16    20    21   ar
    17    21    22   ar
    18    22    23   ar
    19    23    24   ar
    20    24    25   ar
    21    25    26   ar
    22    26    27   ar
    23    27    28   ar
    24     4     5   ar
    25     5     6    1
    26     5     7   ar
    27    16    11   ar
    28     7     1   ar
    29    28    20   ar
    30    28    23    1
    31     8     9    1
    32    24    29    1
@<TRIPOS>MOLECULE
*****
 29 32 0 0 0
SMALL
GASTEIGER

@<TRIPOS>ATOM
      1 C           3.3323   -0.8858   24.0732 C.ar    1  UNL1        0.1311
      2 C           2.5590   -0.0876   23.0657 C.ar    1  UNL1        0.0339
      3 C           2.5806   -0.4834   21.6191 C.ar    1  UNL1        0.0027
      4 C           3.3754   -1.6772   21.1798 C.ar    1  UNL1        0.0283
      5 C           4.1487   -2.4754   22.1873 C.ar    1  UNL1        0.2196
      6 F           4.9435   -3.6692   21.7480 F       1  UNL1       -0.1835
      7 N           4.1271   -2.0796   23.6339 N.ar    1  UNL1       -0.2035
      8 N           3.3107   -0.4901   25.5199 N.pl3   1  UNL1       -0.3143
      9 H           3.7731   -1.0450   26.1889 H       1  UNL1        0.1485
     10 C           2.5847    0.7510   25.9474 C.3     1  UNL1        0.1200
     11 C           1.7894   -0.0434   28.2897 C.ar    1  UNL1        0.2224
     12 N           0.7229   -0.1231   29.3414 N.ar    1  UNL1       -0.2104
     13 C          -0.6149    0.5120   29.1025 C.ar    1  UNL1        0.1020
     14 C          -0.8861    1.2267   27.8119 C.ar    1  UNL1        0.0206
     15 C           0.1805    1.3064   26.7602 C.ar    1  UNL1        0.0036
     16 C           1.5182    0.6713   26.9991 C.ar    1  UNL1        0.0506
     17 C           3.7516   -0.6222   29.8912 C.3     1  UNL1        0.2542
     18 O           3.1272   -0.6785   28.5286 O.3     1  UNL1       -0.4563
     19 C           3.3969   -2.0729   19.7330 C.3     1  UNL1        0.0582
     20 C           4.6081   -1.7876   18.8954 C.ar    1  UNL1        0.0044
     21 C           5.5985   -2.8010   18.4034 C.ar    1  UNL1        0.0966
     22 N           6.6440   -2.0784   17.6067 N.ar    1  UNL1       -0.2273
     23 C           6.2998   -0.6184   17.6063 C.ar    1  UNL1        0.1402
     24 N           6.9695    0.5705   16.9835 N.ar    1  UNL1       -0.3374
     25 C           6.3810    1.9392   17.1573 C.ar    1  UNL1        0.0735
     26 C           5.1227    2.1189   17.9538 C.ar    1  UNL1        0.0186
     27 C           4.4530    0.9300   18.5765 C.ar    1  UNL1        0.0043
     28 C           5.0415   -0.4387   18.4028 C.ar    1  UNL1        0.0318
     29 H           7.7954    0.4525   16.4608 H       1  UNL1        0.1674
@<TRIPOS>BOND
     1    17    18    1
     2    18    11    1
     3    11    12   ar
     4    12    13   ar
     5    13    14   ar
     6    14    15   ar
     7    15    16   ar
     8    16    10    1
     9    10     8    1
    10     8     1    1
    11     1     2   ar
    12     2     3   ar
    13     3     4   ar
    14     4    19    1
    15    19    20    1
    16    20    21   ar
    17    21    22   ar
    18    22    23   ar
    19    23    24   ar
    20    24    25   ar
    21    25    26   ar
    22    26    27   ar
    23    27    28   ar
    24     4     5   ar
    25     5     6    1
    26     5     7   ar
    27    16    11   ar
    28     7     1   ar
    29    28    20   ar
    30    28    23    1
    31     8     9    1
    32    24    29    1
@<TRIPOS>MOLECULE
*****
 29 32 0 0 0
SMALL
GASTEIGER

@<TRIPOS>ATOM
      1 C           6.2517   -2.6331   24.6305 C.ar    1  UNL1        0.1311
      2 C           4.8309   -2.3061   24.2780 C.ar    1  UNL1        0.0339
      3 C           4.2649   -2.7457   22.9603 C.ar    1  UNL1        0.0027
      4 C           5.1196   -3.5123   21.9951 C.ar    1  UNL1        0.0283
      5 C           6.5405   -3.8394   22.3476 C.ar    1  UNL1        0.2196
      6 F           7.3952   -4.6060   21.3823 F       1  UNL1       -0.1835
      7 N           7.1065   -3.3998   23.6652 N.ar    1  UNL1       -0.2035
      8 N           6.8178   -2.1936   25.9481 N.pl3   1  UNL1       -0.3143
      9 H           6.3524   -1.5079   26.4797 H       1  UNL1        0.1485
     10 C           8.0930   -2.7986   26.4560 C.3     1  UNL1        0.1200
     11 C           7.0634   -4.2652   28.3372 C.ar    1  UNL1        0.2224
     12 N           7.0281   -5.5503   29.1101 N.ar    1  UNL1       -0.2104
     13 C           7.9873   -6.6537   28.7747 C.ar    1  UNL1        0.1020
     14 C           8.9816   -6.4721   27.6664 C.ar    1  UNL1        0.0206
     15 C           9.0168   -5.1871   26.8935 C.ar    1  UNL1        0.0036
     16 C           8.0577   -4.0836   27.2289 C.ar    1  UNL1        0.0506
     17 C           6.3037   -2.3467   29.9159 C.3     1  UNL1        0.2542
     18 O           6.1043   -3.1617   28.6726 O.3     1  UNL1       -0.4563
     19 C           4.5535   -3.9519   20.6773 C.3     1  UNL1        0.0582
     20 C           4.5165   -2.9972   19.5210 C.ar    1  UNL1        0.0044
     21 C           5.4529   -2.9950   18.3492 C.ar    1  UNL1        0.0966
     22 N           5.0517   -1.8735   17.4374 N.ar    1  UNL1       -0.2273
     23 C           3.8673   -1.1826   18.0457 C.ar    1  UNL1        0.1402
     24 N           3.0473   -0.0109   17.5934 N.ar    1  UNL1       -0.3374
     25 C           1.8966    0.4664   18.4289 C.ar    1  UNL1        0.0735
     26 C           1.5658   -0.2282   19.7166 C.ar    1  UNL1        0.0186
     27 C           2.3858   -1.3999   20.1689 C.ar    1  UNL1        0.0043
     28 C           3.5365   -1.8771   19.3335 C.ar    1  UNL1        0.0318
     29 H           3.2644    0.4450   16.7483 H       1  UNL1        0.1674
@<TRIPOS>BOND
     1    17    18    1
     2    18    11    1
     3    11    12   ar
     4    12    13   ar
     5    13    14   ar
     6    14    15   ar
     7    15    16   ar
     8    16    10    1
     9    10     8    1
    10     8     1    1
    11     1     2   ar
    12     2     3   ar
    13     3     4   ar
    14     4    19    1
    15    19    20    1
    16    20    21   ar
    17    21    22   ar
    18    22    23   ar
    19    23    24   ar
    20    24    25   ar
    21    25    26   ar
    22    26    27   ar
    23    27    28   ar
    24     4     5   ar
    25     5     6    1
    26     5     7   ar
    27    16    11   ar
    28     7     1   ar
    29    28    20   ar
    30    28    23    1
    31     8     9    1
    32    24    29    1
