@<TRIPOS>MOLECULE
*****
 33 36 0 0 0
SMALL
GASTEIGER

@<TRIPOS>ATOM
      1 C          -7.5841  -20.0779   23.1775 C.3     1  UNL1        0.0285
      2 C          -8.1757  -19.5235   21.9154 C.2     1  UNL1       -0.0155
      3 C          -9.5438  -18.9258   21.7714 C.2     1  UNL1       -0.0059
      4 C          -9.7166  -18.5024   20.3427 C.2     1  UNL1        0.0895
      5 N          -8.4551  -18.8385   19.6039 N.2     1  UNL1       -0.2578
      6 C          -7.5028  -19.4696   20.5758 C.3     1  UNL1        0.1970
      7 C          -6.1203  -19.9605   20.2632 C.2     1  UNL1        0.2490
      8 O          -5.8701  -21.4275   20.0753 O.2     1  UNL1       -0.2726
      9 N          -4.9882  -18.9845   20.1384 N.am    1  UNL1       -0.2977
     10 H          -5.1525  -18.0217   20.2618 H       1  UNL1        0.1498
     11 C          -3.6057  -19.4755   19.8258 C.3     1  UNL1        0.1300
     12 C          -3.4018  -20.8760   19.3287 C.3     1  UNL1        0.0295
     13 C          -2.4272  -18.5659   20.0101 C.ar    1  UNL1        0.1524
     14 N          -0.9928  -18.9172   19.7476 N.ar    1  UNL1       -0.2065
     15 C          -0.1555  -17.7137   20.0646 C.ar    1  UNL1        0.2204
     16 N          -1.0724  -16.6187   20.5230 N.ar    1  UNL1       -0.1489
     17 N          -2.4765  -17.1453   20.4894 N.ar    1  UNL1       -0.2602
     18 H          -3.2879  -16.6463   20.7381 H       1  UNL1        0.1903
     19 C         -10.5607  -18.7774   22.8640 C.3     1  UNL1        0.0387
     20 C         -11.7150  -19.5099   22.2468 C.3     1  UNL1        0.0088
     21 C         -11.8559  -18.9013   23.6105 C.3     1  UNL1        0.0088
     22 C          -9.7595  -17.9933   23.8607 C.ar    1  UNL1       -0.0183
     23 C         -10.0803  -18.0893   25.3228 C.ar    1  UNL1       -0.0040
     24 C          -9.2791  -17.3052   26.3194 C.ar    1  UNL1        0.0042
     25 C          -8.1571  -16.4252   25.8539 C.ar    1  UNL1        0.0810
     26 C          -7.8363  -16.3292   24.3917 C.ar    1  UNL1        0.0720
     27 C          -8.6375  -17.1133   23.3952 C.ar    1  UNL1        0.0063
     28 C          -7.3559  -15.6411   26.8506 C.3     1  UNL1        0.4192
     29 F          -6.5547  -14.8570   27.8472 F       1  UNL1       -0.1658
     30 F          -8.5678  -14.8207   27.1795 F       1  UNL1       -0.1658
     31 F          -6.1440  -16.4614   26.5216 F       1  UNL1       -0.1658
     32 C          -6.7144  -15.4491   23.9262 C.1     1  UNL1        0.1004
     33 N          -5.5924  -14.5691   23.4607 N.1     1  UNL1       -0.1908
@<TRIPOS>BOND
     1     1     2    1
     2     2     3    2
     3     3    19    1
     4    19    22    1
     5    22    23   ar
     6    23    24   ar
     7    24    25   ar
     8    25    28    1
     9    28    29    1
    10    28    30    1
    11    28    31    1
    12    25    26   ar
    13    26    32    1
    14    32    33    3
    15    26    27   ar
    16    19    20    1
    17    20    21    1
    18     3     4    1
    19     4     5    2
    20     5     6    1
    21     6     7    1
    22     7     8    2
    23     7     9   am
    24     9    11    1
    25    11    12    1
    26    11    13    1
    27    13    14   ar
    28    14    15   ar
    29    15    16   ar
    30    16    17   ar
    31     6     2    1
    32    17    13   ar
    33    21    19    1
    34    27    22   ar
    35     9    10    1
    36    17    18    1
@<TRIPOS>MOLECULE
*****
 33 36 0 0 0
SMALL
GASTEIGER

@<TRIPOS>ATOM
      1 C         -13.6909   -6.3511   19.7027 C.3     1  UNL1        0.0285
      2 C         -13.1447   -6.7501   18.3638 C.2     1  UNL1       -0.0155
      3 C         -11.8480   -6.2887   17.7676 C.2     1  UNL1       -0.0059
      4 C         -11.7012   -6.9340   16.4214 C.2     1  UNL1        0.0895
      5 N         -12.9072   -7.7942   16.1858 N.2     1  UNL1       -0.2578
      6 C         -13.7994   -7.6806   17.3862 C.3     1  UNL1        0.1970
      7 C         -15.1152   -8.3754   17.5758 C.2     1  UNL1        0.2490
      8 O         -16.2215   -8.1698   16.5841 O.2     1  UNL1       -0.2726
      9 N         -15.3245   -9.2756   18.7572 N.am    1  UNL1       -0.2977
     10 H         -14.5983   -9.4105   19.4081 H       1  UNL1        0.1498
     11 C         -16.6403   -9.9704   18.9468 C.3     1  UNL1        0.1300
     12 C         -16.7712  -11.4296   18.6246 C.3     1  UNL1        0.0295
     13 C         -17.8252   -9.2061   19.4586 C.ar    1  UNL1        0.1524
     14 N         -17.8410   -7.7553   19.8392 N.ar    1  UNL1       -0.2065
     15 C         -19.2278   -7.4110   20.2954 C.ar    1  UNL1        0.2204
     16 N         -20.0691   -8.6490   20.1968 N.ar    1  UNL1       -0.1489
     17 N         -19.2022   -9.7585   19.6795 N.ar    1  UNL1       -0.2602
     18 H         -19.4869  -10.6863   19.5141 H       1  UNL1        0.1903
     19 C         -10.8697   -5.3473   18.4054 C.3     1  UNL1        0.0387
     20 C          -9.9219   -6.3338   19.0204 C.3     1  UNL1        0.0088
     21 C          -9.6803   -4.8620   19.1798 C.3     1  UNL1        0.0088
     22 C         -11.4779   -4.0338   18.0117 C.ar    1  UNL1       -0.0183
     23 C         -10.9480   -3.2882   16.8230 C.ar    1  UNL1       -0.0040
     24 C         -11.5561   -1.9747   16.4294 C.ar    1  UNL1        0.0042
     25 C         -12.6942   -1.4069   17.2246 C.ar    1  UNL1        0.0810
     26 C         -13.2241   -2.1525   18.4134 C.ar    1  UNL1        0.0720
     27 C         -12.6160   -3.4659   18.8069 C.ar    1  UNL1        0.0063
     28 C         -13.3024   -0.0933   16.8310 C.3     1  UNL1        0.4192
     29 F         -13.9106    1.2201   16.4374 F       1  UNL1       -0.1658
     30 F         -12.2940    0.6269   17.6762 F       1  UNL1       -0.1658
     31 F         -14.3107   -0.8136   15.9858 F       1  UNL1       -0.1658
     32 C         -14.3622   -1.5847   19.2086 C.1     1  UNL1        0.1004
     33 N         -15.5003   -1.0168   20.0038 N.1     1  UNL1       -0.1908
@<TRIPOS>BOND
     1     1     2    1
     2     2     3    2
     3     3    19    1
     4    19    22    1
     5    22    23   ar
     6    23    24   ar
     7    24    25   ar
     8    25    28    1
     9    28    29    1
    10    28    30    1
    11    28    31    1
    12    25    26   ar
    13    26    32    1
    14    32    33    3
    15    26    27   ar
    16    19    20    1
    17    20    21    1
    18     3     4    1
    19     4     5    2
    20     5     6    1
    21     6     7    1
    22     7     8    2
    23     7     9   am
    24     9    11    1
    25    11    12    1
    26    11    13    1
    27    13    14   ar
    28    14    15   ar
    29    15    16   ar
    30    16    17   ar
    31     6     2    1
    32    17    13   ar
    33    21    19    1
    34    27    22   ar
    35     9    10    1
    36    17    18    1
@<TRIPOS>MOLECULE
*****
 33 36 0 0 0
SMALL
GASTEIGER

@<TRIPOS>ATOM
      1 C           3.4103    2.7323   22.5041 C.3     1  UNL1        0.0285
      2 C           2.1499    2.1577   21.9283 C.2     1  UNL1       -0.0155
      3 C           1.9335    1.7653   20.4969 C.2     1  UNL1       -0.0059
      4 C           0.5346    1.2397   20.3669 C.2     1  UNL1        0.0895
      5 N          -0.1135    1.3074   21.7179 N.2     1  UNL1       -0.2578
      6 C           0.8849    1.8748   22.6830 C.3     1  UNL1        0.1970
      7 C           0.6580    2.1167   24.1459 C.2     1  UNL1        0.2490
      8 O           0.8574    3.4885   24.7189 O.2     1  UNL1       -0.2726
      9 N           0.2317    0.9869   25.0356 N.am    1  UNL1       -0.2977
     10 H           0.1008    0.0865   24.6594 H       1  UNL1        0.1498
     11 C           0.0048    1.2288   26.4985 C.3     1  UNL1        0.1300
     12 C          -1.1167    2.1186   26.9464 C.3     1  UNL1        0.0295
     13 C           0.8994    0.5810   27.5134 C.ar    1  UNL1        0.1524
     14 N           0.6787    0.5590   28.9969 N.ar    1  UNL1       -0.2065
     15 C           1.8147   -0.1941   29.6233 C.ar    1  UNL1        0.2204
     16 N           2.7375   -0.6375   28.5269 N.ar    1  UNL1       -0.1489
     17 N           2.1718   -0.1584   27.2229 N.ar    1  UNL1       -0.2602
     18 H           2.5663   -0.3037   26.3327 H       1  UNL1        0.1903
     19 C           2.9393    1.8784   19.3898 C.3     1  UNL1        0.0387
     20 C           2.9116    3.3609   19.1632 C.3     1  UNL1        0.0088
     21 C           3.8141    2.4927   18.3375 C.3     1  UNL1        0.0088
     22 C           3.3162    0.4351   19.2320 C.ar    1  UNL1       -0.0183
     23 C           3.4499   -0.1596   17.8615 C.ar    1  UNL1       -0.0040
     24 C           3.8268   -1.6028   17.7037 C.ar    1  UNL1        0.0042
     25 C           4.0701   -2.4514   18.9165 C.ar    1  UNL1        0.0810
     26 C           3.9365   -1.8566   20.2870 C.ar    1  UNL1        0.0720
     27 C           3.5596   -0.4134   20.4448 C.ar    1  UNL1        0.0063
     28 C           4.4471   -3.8947   18.7587 C.3     1  UNL1        0.4192
     29 F           4.8241   -5.3379   18.6009 F       1  UNL1       -0.1658
     30 F           3.0017   -4.2830   18.8574 F       1  UNL1       -0.1658
     31 F           5.8926   -3.5063   18.6600 F       1  UNL1       -0.1658
     32 C           4.1798   -2.7052   21.4998 C.1     1  UNL1        0.1004
     33 N           4.4231   -3.5537   22.7126 N.1     1  UNL1       -0.1908
@<TRIPOS>BOND
     1     1     2    1
     2     2     3    2
     3     3    19    1
     4    19    22    1
     5    22    23   ar
     6    23    24   ar
     7    24    25   ar
     8    25    28    1
     9    28    29    1
    10    28    30    1
    11    28    31    1
    12    25    26   ar
    13    26    32    1
    14    32    33    3
    15    26    27   ar
    16    19    20    1
    17    20    21    1
    18     3     4    1
    19     4     5    2
    20     5     6    1
    21     6     7    1
    22     7     8    2
    23     7     9   am
    24     9    11    1
    25    11    12    1
    26    11    13    1
    27    13    14   ar
    28    14    15   ar
    29    15    16   ar
    30    16    17   ar
    31     6     2    1
    32    17    13   ar
    33    21    19    1
    34    27    22   ar
    35     9    10    1
    36    17    18    1
@<TRIPOS>MOLECULE
*****
 33 36 0 0 0
SMALL
GASTEIGER

@<TRIPOS>ATOM
      1 C           5.9068    1.2574   32.8755 C.3     1  UNL1        0.0285
      2 C           5.2028   -0.0617   32.9958 C.2     1  UNL1       -0.0155
      3 C           4.9493   -1.0309   31.8794 C.2     1  UNL1       -0.0059
      4 C           4.2185   -2.2113   32.4474 C.2     1  UNL1        0.0895
      5 N           4.0203   -1.9716   33.9147 N.2     1  UNL1       -0.2578
      6 C           4.6286   -0.6431   34.2537 C.3     1  UNL1        0.1970
      7 C           4.6576   -0.0075   35.6121 C.2     1  UNL1        0.2490
      8 O           5.5776   -0.5407   36.6701 O.2     1  UNL1       -0.2726
      9 N           3.7667    1.1613   35.9124 N.am    1  UNL1       -0.2977
     10 H           3.1630    1.5112   35.2180 H       1  UNL1        0.1498
     11 C           3.7958    1.7969   37.2708 C.3     1  UNL1        0.1300
     12 C           4.9202    2.7169   37.6445 C.3     1  UNL1        0.0295
     13 C           2.7005    1.5125   38.2555 C.ar    1  UNL1        0.1524
     14 N           1.4770    2.3507   38.4797 N.ar    1  UNL1       -0.2065
     15 C           0.6569    1.6962   39.5516 C.ar    1  UNL1        0.2204
     16 N           1.3736    0.4534   39.9899 N.ar    1  UNL1       -0.1489
     17 N           2.6367    0.3399   39.1888 N.ar    1  UNL1       -0.2602
     18 H           3.3062   -0.3781   39.2626 H       1  UNL1        0.1903
     19 C           5.3554   -0.8513   30.4466 C.3     1  UNL1        0.0387
     20 C           6.6008   -1.6869   30.4221 C.3     1  UNL1        0.0088
     21 C           6.1449   -0.9836   29.1781 C.3     1  UNL1        0.0088
     22 C           4.2509    0.0467   29.9736 C.ar    1  UNL1       -0.0183
     23 C           4.5404    1.4805   29.6414 C.ar    1  UNL1       -0.0040
     24 C           3.4359    2.3785   29.1683 C.ar    1  UNL1        0.0042
     25 C           2.0420    1.8426   29.0276 C.ar    1  UNL1        0.0810
     26 C           1.7525    0.4089   29.3598 C.ar    1  UNL1        0.0720
     27 C           2.8570   -0.4891   29.8328 C.ar    1  UNL1        0.0063
     28 C           0.9375    2.7407   28.5545 C.3     1  UNL1        0.4192
     29 F          -0.1670    3.6387   28.0815 F       1  UNL1       -0.1658
     30 F           1.2167    2.3375   27.1370 F       1  UNL1       -0.1658
     31 F           0.6582    3.1439   29.9720 F       1  UNL1       -0.1658
     32 C           0.3585   -0.1270   29.2190 C.1     1  UNL1        0.1004
     33 N          -1.0354   -0.6628   29.0782 N.1     1  UNL1       -0.1908
@<TRIPOS>BOND
     1     1     2    1
     2     2     3    2
     3     3    19    1
     4    19    22    1
     5    22    23   ar
     6    23    24   ar
     7    24    25   ar
     8    25    28    1
     9    28    29    1
    10    28    30    1
    11    28    31    1
    12    25    26   ar
    13    26    32    1
    14    32    33    3
    15    26    27   ar
    16    19    20    1
    17    20    21    1
    18     3     4    1
    19     4     5    2
    20     5     6    1
    21     6     7    1
    22     7     8    2
    23     7     9   am
    24     9    11    1
    25    11    12    1
    26    11    13    1
    27    13    14   ar
    28    14    15   ar
    29    15    16   ar
    30    16    17   ar
    31     6     2    1
    32    17    13   ar
    33    21    19    1
    34    27    22   ar
    35     9    10    1
    36    17    18    1
@<TRIPOS>MOLECULE
*****
 33 36 0 0 0
SMALL
GASTEIGER

@<TRIPOS>ATOM
      1 C           3.0634    2.7371   22.2317 C.3     1  UNL1        0.0285
      2 C           1.9186    2.1847   21.4351 C.2     1  UNL1       -0.0155
      3 C           1.9666    1.7679   19.9951 C.2     1  UNL1       -0.0059
      4 C           0.6026    1.2777   19.6088 C.2     1  UNL1        0.0895
      5 N          -0.2883    1.3916   20.8101 N.2     1  UNL1       -0.2578
      6 C           0.5250    1.9521   21.9389 C.3     1  UNL1        0.1970
      7 C           0.0314    2.2312   23.3277 C.2     1  UNL1        0.2490
      8 O           0.2033    1.2023   24.4055 O.2     1  UNL1       -0.2726
      9 N          -0.6340    3.5391   23.6384 N.am    1  UNL1       -0.2977
     10 H          -0.7468    4.2143   22.9309 H       1  UNL1        0.1498
     11 C          -1.1275    3.8181   25.0272 C.3     1  UNL1        0.1300
     12 C          -0.1491    4.1067   26.1270 C.3     1  UNL1        0.0295
     13 C          -2.5995    3.8085   25.3161 C.ar    1  UNL1        0.1524
     14 N          -3.6936    3.5971   24.3120 N.ar    1  UNL1       -0.2065
     15 C          -5.0059    3.6666   25.0352 C.ar    1  UNL1        0.2204
     16 N          -4.7228    3.9210   26.4861 N.ar    1  UNL1       -0.1489
     17 N          -3.2355    4.0088   26.6597 N.ar    1  UNL1       -0.2602
     18 H          -2.7602    4.1695   27.5068 H       1  UNL1        0.1903
     19 C           3.1676    1.8303   19.0986 C.3     1  UNL1        0.0387
     20 C           3.2461    3.3108   18.8708 C.3     1  UNL1        0.0088
     21 C           4.2510    2.3992   18.2311 C.3     1  UNL1        0.0088
     22 C           3.5062    0.3713   19.0150 C.ar    1  UNL1       -0.0183
     23 C           3.6575   -0.2880   17.6763 C.ar    1  UNL1       -0.0040
     24 C           3.9961   -1.7469   17.5928 C.ar    1  UNL1        0.0042
     25 C           4.1833   -2.5464   18.8480 C.ar    1  UNL1        0.0810
     26 C           4.0320   -1.8871   20.1868 C.ar    1  UNL1        0.0720
     27 C           3.6934   -0.4282   20.2703 C.ar    1  UNL1        0.0063
     28 C           4.5219   -4.0054   18.7645 C.3     1  UNL1        0.4192
     29 F           4.8604   -5.4643   18.6809 F       1  UNL1       -0.1658
     30 F           5.9829   -3.6659   18.7556 F       1  UNL1       -0.1658
     31 F           3.0609   -4.3449   18.7733 F       1  UNL1       -0.1658
     32 C           4.2193   -2.6866   21.4420 C.1     1  UNL1        0.1004
     33 N           4.4065   -3.4862   22.6973 N.1     1  UNL1       -0.1908
@<TRIPOS>BOND
     1     1     2    1
     2     2     3    2
     3     3    19    1
     4    19    22    1
     5    22    23   ar
     6    23    24   ar
     7    24    25   ar
     8    25    28    1
     9    28    29    1
    10    28    30    1
    11    28    31    1
    12    25    26   ar
    13    26    32    1
    14    32    33    3
    15    26    27   ar
    16    19    20    1
    17    20    21    1
    18     3     4    1
    19     4     5    2
    20     5     6    1
    21     6     7    1
    22     7     8    2
    23     7     9   am
    24     9    11    1
    25    11    12    1
    26    11    13    1
    27    13    14   ar
    28    14    15   ar
    29    15    16   ar
    30    16    17   ar
    31     6     2    1
    32    17    13   ar
    33    21    19    1
    34    27    22   ar
    35     9    10    1
    36    17    18    1
@<TRIPOS>MOLECULE
*****
 33 36 0 0 0
SMALL
GASTEIGER

@<TRIPOS>ATOM
      1 C           4.6393   -3.8573   22.5902 C.3     1  UNL1        0.0285
      2 C           5.6770   -3.3205   21.6493 C.2     1  UNL1       -0.0155
      3 C           5.5314   -3.1807   20.1630 C.2     1  UNL1       -0.0059
      4 C           6.8068   -2.6030   19.6247 C.2     1  UNL1        0.0895
      5 N           7.7405   -2.3859   20.7784 N.2     1  UNL1       -0.2578
      6 C           7.0423   -2.8293   22.0297 C.3     1  UNL1        0.1970
      7 C           7.6097   -2.7887   23.4177 C.2     1  UNL1        0.2490
      8 O           8.9774   -3.3432   23.6852 O.2     1  UNL1       -0.2726
      9 N           6.8092   -2.1936   24.5379 N.am    1  UNL1       -0.2977
     10 H           5.9114   -1.8296   24.3622 H       1  UNL1        0.1498
     11 C           7.3766   -2.1529   25.9259 C.3     1  UNL1        0.1300
     12 C           8.1233   -0.9397   26.3957 C.3     1  UNL1        0.0295
     13 C           7.1972   -3.3255   26.8441 C.ar    1  UNL1        0.1524
     14 N           8.2583   -4.3126   27.2311 N.ar    1  UNL1       -0.2065
     15 C           7.6421   -5.3139   28.1626 C.ar    1  UNL1        0.2204
     16 N           6.2003   -4.9456   28.3513 N.ar    1  UNL1       -0.1489
     17 N           5.9253   -3.7167   27.5363 N.ar    1  UNL1       -0.2602
     18 H           5.0617   -3.2490   27.4679 H       1  UNL1        0.1903
     19 C           4.3228   -3.5531   19.3564 C.3     1  UNL1        0.0387
     20 C           4.5021   -5.0408   19.2900 C.3     1  UNL1        0.0088
     21 C           3.3222   -4.3972   18.6241 C.3     1  UNL1        0.0088
     22 C           3.7237   -2.1945   19.1428 C.ar    1  UNL1       -0.0183
     23 C           3.9699   -1.4599   17.8584 C.ar    1  UNL1       -0.0040
     24 C           3.3708   -0.1014   17.6448 C.ar    1  UNL1        0.0042
     25 C           2.5255    0.5223   18.7155 C.ar    1  UNL1        0.0810
     26 C           2.2793   -0.2123   19.9998 C.ar    1  UNL1        0.0720
     27 C           2.8784   -1.5708   20.2135 C.ar    1  UNL1        0.0063
     28 C           1.9264    1.8809   18.5018 C.3     1  UNL1        0.4192
     29 F           1.3274    3.2393   18.2882 F       1  UNL1       -0.1658
     30 F           0.6700    1.2455   17.9844 F       1  UNL1       -0.1658
     31 F           3.1828    2.5162   19.0192 F       1  UNL1       -0.1658
     32 C           1.4340    0.4114   21.0705 C.1     1  UNL1        0.1004
     33 N           0.5887    1.0352   22.1412 N.1     1  UNL1       -0.1908
@<TRIPOS>BOND
     1     1     2    1
     2     2     3    2
     3     3    19    1
     4    19    22    1
     5    22    23   ar
     6    23    24   ar
     7    24    25   ar
     8    25    28    1
     9    28    29    1
    10    28    30    1
    11    28    31    1
    12    25    26   ar
    13    26    32    1
    14    32    33    3
    15    26    27   ar
    16    19    20    1
    17    20    21    1
    18     3     4    1
    19     4     5    2
    20     5     6    1
    21     6     7    1
    22     7     8    2
    23     7     9   am
    24     9    11    1
    25    11    12    1
    26    11    13    1
    27    13    14   ar
    28    14    15   ar
    29    15    16   ar
    30    16    17   ar
    31     6     2    1
    32    17    13   ar
    33    21    19    1
    34    27    22   ar
    35     9    10    1
    36    17    18    1
@<TRIPOS>MOLECULE
*****
 33 36 0 0 0
SMALL
GASTEIGER

@<TRIPOS>ATOM
      1 C           6.2696   -1.0890   20.8224 C.3     1  UNL1        0.0285
      2 C           5.3352   -2.2399   20.5937 C.2     1  UNL1       -0.0155
      3 C           4.1789   -2.2603   19.6386 C.2     1  UNL1       -0.0059
      4 C           3.5221   -3.6055   19.7346 C.2     1  UNL1        0.0895
      5 N           4.2725   -4.4163   20.7492 N.2     1  UNL1       -0.2578
      6 C           5.3931   -3.5724   21.2802 C.3     1  UNL1        0.1970
      7 C           6.3956   -3.9879   22.3157 C.2     1  UNL1        0.2490
      8 O           7.6462   -4.7060   21.9032 O.2     1  UNL1       -0.2726
      9 N           6.1474   -3.6852   23.7637 N.am    1  UNL1       -0.2977
     10 H           5.3265   -3.2139   24.0344 H       1  UNL1        0.1498
     11 C           7.1499   -4.1007   24.7993 C.3     1  UNL1        0.1300
     12 C           8.0122   -3.0693   25.4647 C.3     1  UNL1        0.0295
     13 C           7.2900   -5.5476   25.1695 C.ar    1  UNL1        0.1524
     14 N           6.8183   -6.1811   26.4447 N.ar    1  UNL1       -0.2065
     15 C           7.1633   -7.6400   26.3926 C.ar    1  UNL1        0.2204
     16 N           7.8482   -7.9081   25.0852 N.ar    1  UNL1       -0.1489
     17 N           7.9265   -6.6149   24.3293 N.ar    1  UNL1       -0.2602
     18 H           8.3256   -6.4887   23.4381 H       1  UNL1        0.1903
     19 C           3.7538   -1.1336   18.7443 C.3     1  UNL1        0.0387
     20 C           4.4997   -1.4972   17.4947 C.3     1  UNL1        0.0088
     21 C           3.6391   -0.2689   17.5239 C.3     1  UNL1        0.0088
     22 C           2.8604   -0.3786   19.6834 C.ar    1  UNL1       -0.0183
     23 C           1.4503   -0.8377   19.9088 C.ar    1  UNL1       -0.0040
     24 C           0.5569   -0.0827   20.8479 C.ar    1  UNL1        0.0042
     25 C           1.0736    1.1312   21.5615 C.ar    1  UNL1        0.0810
     26 C           2.4837    1.5903   21.3361 C.ar    1  UNL1        0.0720
     27 C           3.3771    0.8354   20.3970 C.ar    1  UNL1        0.0063
     28 C           0.1802    1.8862   22.5007 C.3     1  UNL1        0.4192
     29 F          -0.7133    2.6411   23.4397 F       1  UNL1       -0.1658
     30 F           0.5897    0.9771   23.6212 F       1  UNL1       -0.1658
     31 F          -0.2294    2.7953   21.3801 F       1  UNL1       -0.1658
     32 C           3.0004    2.8043   22.0497 C.1     1  UNL1        0.1004
     33 N           3.5171    4.0182   22.7634 N.1     1  UNL1       -0.1908
@<TRIPOS>BOND
     1     1     2    1
     2     2     3    2
     3     3    19    1
     4    19    22    1
     5    22    23   ar
     6    23    24   ar
     7    24    25   ar
     8    25    28    1
     9    28    29    1
    10    28    30    1
    11    28    31    1
    12    25    26   ar
    13    26    32    1
    14    32    33    3
    15    26    27   ar
    16    19    20    1
    17    20    21    1
    18     3     4    1
    19     4     5    2
    20     5     6    1
    21     6     7    1
    22     7     8    2
    23     7     9   am
    24     9    11    1
    25    11    12    1
    26    11    13    1
    27    13    14   ar
    28    14    15   ar
    29    15    16   ar
    30    16    17   ar
    31     6     2    1
    32    17    13   ar
    33    21    19    1
    34    27    22   ar
    35     9    10    1
    36    17    18    1
@<TRIPOS>MOLECULE
*****
 33 36 0 0 0
SMALL
GASTEIGER

@<TRIPOS>ATOM
      1 C         -16.9202   -1.5353   19.7064 C.3     1  UNL1        0.0285
      2 C         -15.6948   -0.7935   19.2610 C.2     1  UNL1       -0.0155
      3 C         -15.6541    0.6174   18.7537 C.2     1  UNL1       -0.0059
      4 C         -14.2291    0.9504   18.4238 C.2     1  UNL1        0.0895
      5 N         -13.3893   -0.2549   18.7273 N.2     1  UNL1       -0.2578
      6 C         -14.2951   -1.3327   19.2447 C.3     1  UNL1        0.1970
      7 C         -13.8751   -2.7081   19.6711 C.2     1  UNL1        0.2490
      8 O         -13.7017   -3.0216   21.1276 O.2     1  UNL1       -0.2726
      9 N         -13.6284   -3.7700   18.6408 N.am    1  UNL1       -0.2977
     10 H         -13.7423   -3.5642   17.6848 H       1  UNL1        0.1498
     11 C         -13.2084   -5.1455   19.0671 C.3     1  UNL1        0.1300
     12 C         -14.2428   -6.1546   19.4692 C.3     1  UNL1        0.0295
     13 C         -11.7539   -5.5117   19.0913 C.ar    1  UNL1        0.1524
     14 N         -11.1863   -6.8829   18.8733 N.ar    1  UNL1       -0.2065
     15 C          -9.6934   -6.7896   18.9851 C.ar    1  UNL1        0.2204
     16 N          -9.3384   -5.3607   19.2721 N.ar    1  UNL1       -0.1489
     17 N         -10.6119   -4.5709   19.3378 N.ar    1  UNL1       -0.2602
     18 H         -10.6854   -3.6047   19.5121 H       1  UNL1        0.1903
     19 C         -16.8314    1.5345   18.6026 C.3     1  UNL1        0.0387
     20 C         -17.2886    1.1471   17.2275 C.3     1  UNL1        0.0088
     21 C         -18.0256    2.2065   17.9923 C.3     1  UNL1        0.0088
     22 C         -16.7830    2.2404   19.9253 C.ar    1  UNL1       -0.0183
     23 C         -15.8377    3.3870   20.1293 C.ar    1  UNL1       -0.0040
     24 C         -15.7894    4.0928   21.4520 C.ar    1  UNL1        0.0042
     25 C         -16.6862    3.6520   22.5706 C.ar    1  UNL1        0.0810
     26 C         -17.6315    2.5053   22.3666 C.ar    1  UNL1        0.0720
     27 C         -17.6798    1.7995   21.0439 C.ar    1  UNL1        0.0063
     28 C         -16.6378    4.3579   23.8933 C.3     1  UNL1        0.4192
     29 F         -16.5894    5.0637   25.2160 F       1  UNL1       -0.1658
     30 F         -17.6292    5.3656   23.3918 F       1  UNL1       -0.1658
     31 F         -15.6464    3.3501   24.3948 F       1  UNL1       -0.1658
     32 C         -18.5283    2.0645   23.4852 C.1     1  UNL1        0.1004
     33 N         -19.4252    1.6237   24.6038 N.1     1  UNL1       -0.1908
@<TRIPOS>BOND
     1     1     2    1
     2     2     3    2
     3     3    19    1
     4    19    22    1
     5    22    23   ar
     6    23    24   ar
     7    24    25   ar
     8    25    28    1
     9    28    29    1
    10    28    30    1
    11    28    31    1
    12    25    26   ar
    13    26    32    1
    14    32    33    3
    15    26    27   ar
    16    19    20    1
    17    20    21    1
    18     3     4    1
    19     4     5    2
    20     5     6    1
    21     6     7    1
    22     7     8    2
    23     7     9   am
    24     9    11    1
    25    11    12    1
    26    11    13    1
    27    13    14   ar
    28    14    15   ar
    29    15    16   ar
    30    16    17   ar
    31     6     2    1
    32    17    13   ar
    33    21    19    1
    34    27    22   ar
    35     9    10    1
    36    17    18    1
@<TRIPOS>MOLECULE
*****
 33 36 0 0 0
SMALL
GASTEIGER

@<TRIPOS>ATOM
      1 C         -13.8065   -5.9519   19.8119 C.3     1  UNL1        0.0285
      2 C         -13.5283   -6.5128   18.4488 C.2     1  UNL1       -0.0155
      3 C         -12.1965   -6.5338   17.7590 C.2     1  UNL1       -0.0059
      4 C         -12.3783   -7.1851   16.4201 C.2     1  UNL1        0.0895
      5 N         -13.8224   -7.5667   16.2824 N.2     1  UNL1       -0.2578
      6 C         -14.5332   -7.1512   17.5362 C.3     1  UNL1        0.1970
      7 C         -15.9926   -7.3407   17.8264 C.2     1  UNL1        0.2490
      8 O         -16.9941   -6.3486   17.3142 O.2     1  UNL1       -0.2726
      9 N         -16.4503   -8.5224   18.6289 N.am    1  UNL1       -0.2977
     10 H         -15.7929   -9.1736   18.9651 H       1  UNL1        0.1498
     11 C         -17.9097   -8.7120   18.9192 C.3     1  UNL1        0.1300
     12 C         -18.4637   -8.3291   20.2596 C.3     1  UNL1        0.0295
     13 C         -18.8151   -9.2844   17.8691 C.ar    1  UNL1        0.1524
     14 N         -19.7598   -8.5076   17.0007 N.ar    1  UNL1       -0.2065
     15 C         -20.4632   -9.4772   16.0980 C.ar    1  UNL1        0.2204
     16 N         -19.9533  -10.8534   16.4085 N.ar    1  UNL1       -0.1489
     17 N         -18.9346  -10.7342   17.5031 N.ar    1  UNL1       -0.2602
     18 H         -18.4327  -11.4770   17.9099 H       1  UNL1        0.1903
     19 C         -10.9090   -5.9976   18.3111 C.3     1  UNL1        0.0387
     20 C         -10.3398   -7.2504   18.9081 C.3     1  UNL1        0.0088
     21 C          -9.5791   -5.9611   19.0040 C.3     1  UNL1        0.0088
     22 C         -11.0312   -4.5585   17.9059 C.ar    1  UNL1       -0.0183
     23 C         -10.0018   -3.9429   17.0052 C.ar    1  UNL1       -0.0040
     24 C         -10.1240   -2.5039   16.6000 C.ar    1  UNL1        0.0042
     25 C         -11.2757   -1.6804   17.0956 C.ar    1  UNL1        0.0810
     26 C         -12.3051   -2.2960   17.9963 C.ar    1  UNL1        0.0720
     27 C         -12.1829   -3.7350   18.4015 C.ar    1  UNL1        0.0063
     28 C         -11.3979   -0.2413   16.6904 C.3     1  UNL1        0.4192
     29 F         -11.5200    1.1977   16.2852 F       1  UNL1       -0.1658
     30 F         -12.6841   -0.5497   15.9829 F       1  UNL1       -0.1658
     31 F         -10.1117    0.0670   17.3978 F       1  UNL1       -0.1658
     32 C         -13.4568   -1.4725   18.4918 C.1     1  UNL1        0.1004
     33 N         -14.6085   -0.6490   18.9874 N.1     1  UNL1       -0.1908
@<TRIPOS>BOND
     1     1     2    1
     2     2     3    2
     3     3    19    1
     4    19    22    1
     5    22    23   ar
     6    23    24   ar
     7    24    25   ar
     8    25    28    1
     9    28    29    1
    10    28    30    1
    11    28    31    1
    12    25    26   ar
    13    26    32    1
    14    32    33    3
    15    26    27   ar
    16    19    20    1
    17    20    21    1
    18     3     4    1
    19     4     5    2
    20     5     6    1
    21     6     7    1
    22     7     8    2
    23     7     9   am
    24     9    11    1
    25    11    12    1
    26    11    13    1
    27    13    14   ar
    28    14    15   ar
    29    15    16   ar
    30    16    17   ar
    31     6     2    1
    32    17    13   ar
    33    21    19    1
    34    27    22   ar
    35     9    10    1
    36    17    18    1
