@<TRIPOS>MOLECULE
*****
 34 37 0 0 0
SMALL
GASTEIGER

@<TRIPOS>ATOM
      1 C           7.0372   -5.6498   26.5093 C.ar    1  UNL1        0.0505
      2 C           7.3902   -7.1011   26.3709 C.ar    1  UNL1        0.0170
      3 C           7.9480   -7.6173   25.0777 C.ar    1  UNL1        0.0307
      4 C           8.1529   -6.6821   23.9229 C.ar    1  UNL1        0.1401
      5 F           8.7108   -7.1984   22.6297 F       1  UNL1       -0.2044
      6 C           7.8000   -5.2309   24.0612 C.ar    1  UNL1        0.0523
      7 C           7.2422   -4.7147   25.3544 C.ar    1  UNL1        0.0167
      8 C           8.0049   -4.2958   22.9063 C.3     1  UNL1        0.2179
      9 C           9.4194   -4.4291   23.3878 C.3     1  UNL1        0.0602
     10 C           8.7012   -3.4070   21.9187 C.3     1  UNL1        0.1808
     11 N           7.9118   -2.7098   20.8507 N.ar    1  UNL1       -0.2384
     12 N           8.3197   -1.7797   19.7468 N.ar    1  UNL1       -0.1584
     13 C           7.0863   -1.3964   18.9842 C.ar    1  UNL1        0.1704
     14 C           5.9160   -2.0895   19.6168 C.ar    1  UNL1        0.0576
     15 C           6.4263   -2.9012   20.7703 C.ar    1  UNL1        0.1615
     16 C           5.7301   -3.7900   21.7580 C.2     1  UNL1        0.3305
     17 N           4.2445   -3.9814   21.6776 N.pl3   1  UNL1       -0.2452
     18 N           6.5195   -4.4873   22.8260 N.2     1  UNL1       -0.0666
     19 H           3.7264   -3.5238   20.9767 H       1  UNL1        0.2885
     20 H           3.7876   -4.5648   22.3259 H       1  UNL1        0.2885
     21 C           7.0324   -0.4806   17.7974 C.1     1  UNL1        0.1216
     22 N           6.9786    0.4351   16.6105 N.1     1  UNL1       -0.1892
     23 C           7.2647   -4.1502   28.6187 C.2     1  UNL1        0.2688
     24 O           8.6080   -3.6831   28.1418 O.2     1  UNL1       -0.2681
     25 N           6.4794   -5.1335   27.8024 N.am    1  UNL1       -0.2791
     26 H           5.5977   -5.4400   28.1154 H       1  UNL1        0.1552
     27 C           5.5911   -2.6015   32.4981 C.ar    1  UNL1        0.2449
     28 C           5.4327   -1.8003   31.2400 C.ar    1  UNL1        0.1565
     29 N           5.9906   -2.3165   29.9468 N.ar    1  UNL1       -0.2328
     30 C           6.7068   -3.6339   29.9119 C.ar    1  UNL1        0.1541
     31 C           6.8652   -4.4352   31.1700 C.ar    1  UNL1        0.1258
     32 N           6.3073   -3.9189   32.4631 N.ar    1  UNL1       -0.2071
     33 C           4.2503   -0.8058   33.8127 C.3     1  UNL1        0.2543
     34 O           5.0331   -2.0852   33.7913 O.3     1  UNL1       -0.4551
@<TRIPOS>BOND
     1    33    34    1
     2    34    27    1
     3    27    28   ar
     4    28    29   ar
     5    29    30   ar
     6    30    23    1
     7    23    24    2
     8    23    25   am
     9    25     1    1
    10     1     2   ar
    11     2     3   ar
    12     3     4   ar
    13     4     5    1
    14     4     6   ar
    15     6     8    1
    16     8     9    1
    17     8    10    1
    18    10    11    1
    19    11    12   ar
    20    12    13   ar
    21    13    21    1
    22    21    22    3
    23    13    14   ar
    24    14    15   ar
    25    15    16    1
    26    16    17    1
    27    16    18    2
    28     6     7   ar
    29    30    31   ar
    30    31    32   ar
    31    32    27   ar
    32     7     1   ar
    33    18     8    1
    34    15    11   ar
    35    25    26    1
    36    17    19    1
    37    17    20    1
@<TRIPOS>MOLECULE
*****
 34 37 0 0 0
SMALL
GASTEIGER

@<TRIPOS>ATOM
      1 C           1.1549    0.3222   19.8742 C.ar    1  UNL1        0.0505
      2 C           1.5407    0.7632   18.4934 C.ar    1  UNL1        0.0170
      3 C           2.7833    0.2199   17.8523 C.ar    1  UNL1        0.0307
      4 C           3.6399   -0.7644   18.5921 C.ar    1  UNL1        0.1401
      5 F           4.8824   -1.3078   17.9509 F       1  UNL1       -0.2044
      6 C           3.2541   -1.2054   19.9728 C.ar    1  UNL1        0.0523
      7 C           2.0116   -0.6622   20.6139 C.ar    1  UNL1        0.0167
      8 C           4.1108   -2.1898   20.7125 C.3     1  UNL1        0.2179
      9 C           3.4449   -3.1093   19.7320 C.3     1  UNL1        0.0602
     10 C           4.7362   -3.4936   21.1116 C.3     1  UNL1        0.1808
     11 N           5.7300   -3.5360   22.2343 N.ar    1  UNL1       -0.2384
     12 N           6.5053   -4.6649   22.8464 N.ar    1  UNL1       -0.1584
     13 C           7.3528   -4.1013   23.9482 C.ar    1  UNL1        0.1704
     14 C           7.1014   -2.6241   24.0172 C.ar    1  UNL1        0.0576
     15 C           6.0984   -2.2747   22.9579 C.ar    1  UNL1        0.1615
     16 C           5.4730   -0.9711   22.5588 C.2     1  UNL1        0.3305
     17 N           5.8414    0.2902   23.2823 N.pl3   1  UNL1       -0.2452
     18 N           4.4792   -0.9287   21.4360 N.2     1  UNL1       -0.0666
     19 H           6.4936    0.2624   24.0192 H       1  UNL1        0.2885
     20 H           5.4309    1.1458   23.0204 H       1  UNL1        0.2885
     21 C           8.2877   -4.8784   24.8269 C.1     1  UNL1        0.1216
     22 N           9.2226   -5.6556   25.7056 N.1     1  UNL1       -0.1892
     23 C          -0.1333    2.2937   20.9714 C.2     1  UNL1        0.2688
     24 O           1.0635    3.1787   20.7863 O.2     1  UNL1       -0.2681
     25 N          -0.0876    0.8655   20.5153 N.am    1  UNL1       -0.2791
     26 H          -0.8731    0.2846   20.6368 H       1  UNL1        0.1552
     27 C          -3.8608    3.9234   22.8948 C.ar    1  UNL1        0.2449
     28 C          -3.9141    3.3791   21.4980 C.ar    1  UNL1        0.1565
     29 N          -2.6715    2.8359   20.8569 N.ar    1  UNL1       -0.2328
     30 C          -1.3759    2.8370   21.6125 C.ar    1  UNL1        0.1541
     31 C          -1.3225    3.3812   23.0093 C.ar    1  UNL1        0.1258
     32 N          -2.5650    3.9244   23.6504 N.ar    1  UNL1       -0.2071
     33 C          -5.4652    4.0602   24.9338 C.3     1  UNL1        0.2543
     34 O          -5.1034    4.4666   23.5359 O.3     1  UNL1       -0.4551
@<TRIPOS>BOND
     1    33    34    1
     2    34    27    1
     3    27    28   ar
     4    28    29   ar
     5    29    30   ar
     6    30    23    1
     7    23    24    2
     8    23    25   am
     9    25     1    1
    10     1     2   ar
    11     2     3   ar
    12     3     4   ar
    13     4     5    1
    14     4     6   ar
    15     6     8    1
    16     8     9    1
    17     8    10    1
    18    10    11    1
    19    11    12   ar
    20    12    13   ar
    21    13    21    1
    22    21    22    3
    23    13    14   ar
    24    14    15   ar
    25    15    16    1
    26    16    17    1
    27    16    18    2
    28     6     7   ar
    29    30    31   ar
    30    31    32   ar
    31    32    27   ar
    32     7     1   ar
    33    18     8    1
    34    15    11   ar
    35    25    26    1
    36    17    19    1
    37    17    20    1
@<TRIPOS>MOLECULE
*****
 34 37 0 0 0
SMALL
GASTEIGER

@<TRIPOS>ATOM
      1 C           7.0884   -7.6064   26.1961 C.ar    1  UNL1        0.0505
      2 C           8.0519   -7.6489   25.0472 C.ar    1  UNL1        0.0170
      3 C           8.8676   -6.4369   24.7072 C.ar    1  UNL1        0.0307
      4 C           8.7199   -5.1824   25.5161 C.ar    1  UNL1        0.1401
      5 F           9.5357   -3.9704   25.1761 F       1  UNL1       -0.2044
      6 C           7.7565   -5.1398   26.6649 C.ar    1  UNL1        0.0523
      7 C           6.9407   -6.3518   27.0050 C.ar    1  UNL1        0.0167
      8 C           7.6088   -3.8852   27.4738 C.3     1  UNL1        0.2179
      9 C           8.6912   -4.5717   28.2532 C.3     1  UNL1        0.0602
     10 C           7.8371   -2.8690   28.5534 C.3     1  UNL1        0.1808
     11 N           7.0344   -1.6021   28.5726 N.ar    1  UNL1       -0.2384
     12 N           7.0375   -0.4260   29.5036 N.ar    1  UNL1       -0.1584
     13 C           6.0085    0.5517   29.0187 C.ar    1  UNL1        0.1704
     14 C           5.3693   -0.0201   27.7880 C.ar    1  UNL1        0.0576
     15 C           6.0034   -1.3513   27.5123 C.ar    1  UNL1        0.1615
     16 C           5.7751   -2.3674   26.4328 C.2     1  UNL1        0.3305
     17 N           4.7441   -2.1166   25.3726 N.pl3   1  UNL1       -0.2452
     18 N           6.5779   -3.6344   26.4136 N.2     1  UNL1       -0.0666
     19 H           4.2172   -1.2851   25.3852 H       1  UNL1        0.2885
     20 H           4.5943   -2.7836   24.6641 H       1  UNL1        0.2885
     21 C           5.6767    1.8699   29.6531 C.1     1  UNL1        0.1216
     22 N           5.3450    3.1880   30.2874 N.1     1  UNL1       -0.1892
     23 C           6.8909   -9.9464   27.3077 C.2     1  UNL1        0.2688
     24 O           8.3251   -9.8625   27.7391 O.2     1  UNL1       -0.2681
     25 N           6.2726   -8.8183   26.5362 N.am    1  UNL1       -0.2791
     26 H           5.3313   -8.8734   26.2530 H       1  UNL1        0.1552
     27 C           4.4435  -13.5822   28.3278 C.ar    1  UNL1        0.2449
     28 C           3.8646  -12.5096   27.4535 C.ar    1  UNL1        0.1565
     29 N           4.6805  -11.2976   27.1135 N.ar    1  UNL1       -0.2328
     30 C           6.0751  -11.1584   27.6477 C.ar    1  UNL1        0.1541
     31 C           6.6540  -12.2309   28.5221 C.ar    1  UNL1        0.1258
     32 N           5.8382  -13.4428   28.8621 N.ar    1  UNL1       -0.2071
     33 C           2.1498  -14.7996   28.4110 C.3     1  UNL1        0.2543
     34 O           3.6276  -14.7941   28.6679 O.3     1  UNL1       -0.4551
@<TRIPOS>BOND
     1    33    34    1
     2    34    27    1
     3    27    28   ar
     4    28    29   ar
     5    29    30   ar
     6    30    23    1
     7    23    24    2
     8    23    25   am
     9    25     1    1
    10     1     2   ar
    11     2     3   ar
    12     3     4   ar
    13     4     5    1
    14     4     6   ar
    15     6     8    1
    16     8     9    1
    17     8    10    1
    18    10    11    1
    19    11    12   ar
    20    12    13   ar
    21    13    21    1
    22    21    22    3
    23    13    14   ar
    24    14    15   ar
    25    15    16    1
    26    16    17    1
    27    16    18    2
    28     6     7   ar
    29    30    31   ar
    30    31    32   ar
    31    32    27   ar
    32     7     1   ar
    33    18     8    1
    34    15    11   ar
    35    25    26    1
    36    17    19    1
    37    17    20    1
@<TRIPOS>MOLECULE
*****
 34 37 0 0 0
SMALL
GASTEIGER

@<TRIPOS>ATOM
      1 C           6.3505   -3.6862   22.3570 C.ar    1  UNL1        0.0505
      2 C           7.5835   -3.8704   21.5229 C.ar    1  UNL1        0.0170
      3 C           7.6365   -3.3159   20.1301 C.ar    1  UNL1        0.0307
      4 C           6.4565   -2.5773   19.5715 C.ar    1  UNL1        0.1401
      5 F           6.5096   -2.0229   18.1787 F       1  UNL1       -0.2044
      6 C           5.2236   -2.3932   20.4056 C.ar    1  UNL1        0.0523
      7 C           5.1705   -2.9475   21.7983 C.ar    1  UNL1        0.0167
      8 C           4.0436   -1.6545   19.8468 C.3     1  UNL1        0.2179
      9 C           3.6220   -3.0671   19.5690 C.3     1  UNL1        0.0602
     10 C           2.7172   -1.4065   19.1916 C.3     1  UNL1        0.1808
     11 N           2.2221   -0.0025   19.0083 N.ar    1  UNL1       -0.2384
     12 N           0.9651    0.5474   18.4020 N.ar    1  UNL1       -0.1584
     13 C           1.0196    2.0432   18.4992 C.ar    1  UNL1        0.1704
     14 C           2.3102    2.4179   19.1655 C.ar    1  UNL1        0.0576
     15 C           3.0535    1.1535   19.4801 C.ar    1  UNL1        0.1615
     16 C           4.3798    0.9055   20.1353 C.2     1  UNL1        0.3305
     17 N           5.2111    2.0614   20.6072 N.pl3   1  UNL1       -0.2452
     18 N           4.8748   -0.4986   20.3187 N.2     1  UNL1       -0.0666
     19 H           4.8862    2.9830   20.4869 H       1  UNL1        0.2885
     20 H           6.0816    1.8986   21.0372 H       1  UNL1        0.2885
     21 C          -0.0320    2.9971   18.0150 C.1     1  UNL1        0.1216
     22 N          -1.0836    3.9509   17.5309 N.1     1  UNL1       -0.1892
     23 C           6.9347   -3.4894   24.8809 C.2     1  UNL1        0.2688
     24 O           7.6253   -2.1838   24.6193 O.2     1  UNL1       -0.2681
     25 N           6.2974   -4.2406   23.7498 N.am    1  UNL1       -0.2791
     26 H           5.8441   -5.0975   23.9215 H       1  UNL1        0.1552
     27 C           6.7753   -5.1527   29.0592 C.ar    1  UNL1        0.2449
     28 C           6.5277   -3.6922   28.8234 C.ar    1  UNL1        0.1565
     29 N           6.5808   -3.1378   27.4306 N.ar    1  UNL1       -0.2328
     30 C           6.8816   -4.0438   26.2737 C.ar    1  UNL1        0.1541
     31 C           7.1293   -5.5044   26.5094 C.ar    1  UNL1        0.1258
     32 N           7.0761   -6.0588   27.9022 N.ar    1  UNL1       -0.2071
     33 C           6.9733   -4.8090   31.6268 C.3     1  UNL1        0.2543
     34 O           6.7222   -5.7072   30.4520 O.3     1  UNL1       -0.4551
@<TRIPOS>BOND
     1    33    34    1
     2    34    27    1
     3    27    28   ar
     4    28    29   ar
     5    29    30   ar
     6    30    23    1
     7    23    24    2
     8    23    25   am
     9    25     1    1
    10     1     2   ar
    11     2     3   ar
    12     3     4   ar
    13     4     5    1
    14     4     6   ar
    15     6     8    1
    16     8     9    1
    17     8    10    1
    18    10    11    1
    19    11    12   ar
    20    12    13   ar
    21    13    21    1
    22    21    22    3
    23    13    14   ar
    24    14    15   ar
    25    15    16    1
    26    16    17    1
    27    16    18    2
    28     6     7   ar
    29    30    31   ar
    30    31    32   ar
    31    32    27   ar
    32     7     1   ar
    33    18     8    1
    34    15    11   ar
    35    25    26    1
    36    17    19    1
    37    17    20    1
@<TRIPOS>MOLECULE
*****
 34 37 0 0 0
SMALL
GASTEIGER

@<TRIPOS>ATOM
      1 C           5.5970   -2.0480   20.2522 C.ar    1  UNL1        0.0505
      2 C           5.6649   -2.9262   19.0380 C.ar    1  UNL1        0.0170
      3 C           4.9839   -2.5060   17.7693 C.ar    1  UNL1        0.0307
      4 C           4.2349   -1.2075   17.7148 C.ar    1  UNL1        0.1401
      5 F           3.5538   -0.7872   16.4461 F       1  UNL1       -0.2044
      6 C           4.1669   -0.3293   18.9289 C.ar    1  UNL1        0.0523
      7 C           4.8479   -0.7495   20.1975 C.ar    1  UNL1        0.0167
      8 C           3.4179    0.9692   18.8742 C.3     1  UNL1        0.2179
      9 C           4.7310    1.4012   18.2916 C.3     1  UNL1        0.0602
     10 C           3.1250    2.4178   18.6172 C.3     1  UNL1        0.1808
     11 N           1.7791    2.9833   18.9618 N.ar    1  UNL1       -0.2384
     12 N           1.2046    4.3620   18.8241 N.ar    1  UNL1       -0.1584
     13 C          -0.2034    4.3312   19.3404 C.ar    1  UNL1        0.1704
     14 C          -0.4991    2.9334   19.7974 C.ar    1  UNL1        0.0576
     15 C           0.7262    2.1003   19.5634 C.ar    1  UNL1        0.1615
     16 C           1.0192    0.6519   19.8203 C.2     1  UNL1        0.3305
     17 N          -0.0337   -0.2311   20.4219 N.pl3   1  UNL1       -0.2452
     18 N           2.3651    0.0863   19.4757 N.2     1  UNL1       -0.0666
     19 H          -0.9171    0.1401   20.6480 H       1  UNL1        0.2885
     20 H           0.1586   -1.1818   20.5905 H       1  UNL1        0.2885
     21 C          -1.1496    5.4940   19.3911 C.1     1  UNL1        0.1216
     22 N          -2.0958    6.6568   19.4417 N.1     1  UNL1       -0.1892
     23 C           5.7458   -3.6281   22.3092 C.2     1  UNL1        0.2688
     24 O           4.5326   -4.3678   21.8288 O.2     1  UNL1       -0.2681
     25 N           6.2780   -2.4682   21.5208 N.am    1  UNL1       -0.2791
     26 H           7.0743   -1.9827   21.8361 H       1  UNL1        0.1552
     27 C           7.7890   -4.8885   26.1153 C.ar    1  UNL1        0.2449
     28 C           7.9830   -5.6865   24.8602 C.ar    1  UNL1        0.1565
     29 N           7.3020   -5.2663   23.5914 N.ar    1  UNL1       -0.2328
     30 C           6.4269   -4.0482   23.5779 C.ar    1  UNL1        0.1541
     31 C           6.2328   -3.2501   24.8331 C.ar    1  UNL1        0.1258
     32 N           6.9138   -3.6703   26.1017 N.ar    1  UNL1       -0.2071
     33 C           7.8145   -6.3064   28.2922 C.3     1  UNL1        0.2543
     34 O           8.4700   -5.3086   27.3841 O.3     1  UNL1       -0.4551
@<TRIPOS>BOND
     1    33    34    1
     2    34    27    1
     3    27    28   ar
     4    28    29   ar
     5    29    30   ar
     6    30    23    1
     7    23    24    2
     8    23    25   am
     9    25     1    1
    10     1     2   ar
    11     2     3   ar
    12     3     4   ar
    13     4     5    1
    14     4     6   ar
    15     6     8    1
    16     8     9    1
    17     8    10    1
    18    10    11    1
    19    11    12   ar
    20    12    13   ar
    21    13    21    1
    22    21    22    3
    23    13    14   ar
    24    14    15   ar
    25    15    16    1
    26    16    17    1
    27    16    18    2
    28     6     7   ar
    29    30    31   ar
    30    31    32   ar
    31    32    27   ar
    32     7     1   ar
    33    18     8    1
    34    15    11   ar
    35    25    26    1
    36    17    19    1
    37    17    20    1
@<TRIPOS>MOLECULE
*****
 34 37 0 0 0
SMALL
GASTEIGER

@<TRIPOS>ATOM
      1 C           7.0678   -7.5915   26.2068 C.ar    1  UNL1        0.0505
      2 C           8.0566   -7.6137   25.0790 C.ar    1  UNL1        0.0170
      3 C           8.8697   -6.3915   24.7704 C.ar    1  UNL1        0.0307
      4 C           8.6940   -5.1472   25.5895 C.ar    1  UNL1        0.1401
      5 F           9.5071   -3.9251   25.2808 F       1  UNL1       -0.2044
      6 C           7.7052   -5.1251   26.7172 C.ar    1  UNL1        0.0523
      7 C           6.8921   -6.3472   27.0259 C.ar    1  UNL1        0.0167
      8 C           7.5296   -3.8808   27.5363 C.3     1  UNL1        0.2179
      9 C           6.7764   -3.4874   26.3001 C.3     1  UNL1        0.0602
     10 C           7.0923   -2.4998   27.9259 C.3     1  UNL1        0.1808
     11 N           7.4692   -1.9444   29.2674 N.ar    1  UNL1       -0.2384
     12 N           7.1845   -0.6260   29.9238 N.ar    1  UNL1       -0.1584
     13 C           7.8227   -0.6368   31.2812 C.ar    1  UNL1        0.1704
     14 C           8.5019   -1.9617   31.4637 C.ar    1  UNL1        0.0576
     15 C           8.2834   -2.7699   30.2191 C.ar    1  UNL1        0.1615
     16 C           8.7206   -4.1508   29.8293 C.2     1  UNL1        0.3305
     17 N           9.5348   -4.9763   30.7810 N.pl3   1  UNL1       -0.2452
     18 N           8.3437   -4.7062   28.4879 N.2     1  UNL1       -0.0666
     19 H           9.7822   -4.6117   31.6614 H       1  UNL1        0.2885
     20 H           9.8217   -5.8826   30.5252 H       1  UNL1        0.2885
     21 C           7.7879    0.4812   32.2807 C.1     1  UNL1        0.1216
     22 N           7.7531    1.5992   33.2802 N.1     1  UNL1       -0.1892
     23 C           6.8309   -9.9010   27.3731 C.2     1  UNL1        0.2688
     24 O           8.2203   -9.7664   27.9220 O.2     1  UNL1       -0.2681
     25 N           6.2546   -8.8136   26.5155 N.am    1  UNL1       -0.2791
     26 H           5.3427   -8.9020   26.1552 H       1  UNL1        0.1552
     27 C           4.3914  -13.5672   28.2991 C.ar    1  UNL1        0.2449
     28 C           3.8170  -12.4821   27.4374 C.ar    1  UNL1        0.1565
     29 N           4.6302  -11.2600   27.1288 N.ar    1  UNL1       -0.2328
     30 C           6.0177  -11.1231   27.6817 C.ar    1  UNL1        0.1541
     31 C           6.5922  -12.2082   28.5434 C.ar    1  UNL1        0.1258
     32 N           5.7790  -13.4303   28.8521 N.ar    1  UNL1       -0.2071
     33 C           2.0834  -14.7447   28.4911 C.3     1  UNL1        0.2543
     34 O           3.5782  -14.7893   28.6078 O.3     1  UNL1       -0.4551
@<TRIPOS>BOND
     1    33    34    1
     2    34    27    1
     3    27    28   ar
     4    28    29   ar
     5    29    30   ar
     6    30    23    1
     7    23    24    2
     8    23    25   am
     9    25     1    1
    10     1     2   ar
    11     2     3   ar
    12     3     4   ar
    13     4     5    1
    14     4     6   ar
    15     6     8    1
    16     8     9    1
    17     8    10    1
    18    10    11    1
    19    11    12   ar
    20    12    13   ar
    21    13    21    1
    22    21    22    3
    23    13    14   ar
    24    14    15   ar
    25    15    16    1
    26    16    17    1
    27    16    18    2
    28     6     7   ar
    29    30    31   ar
    30    31    32   ar
    31    32    27   ar
    32     7     1   ar
    33    18     8    1
    34    15    11   ar
    35    25    26    1
    36    17    19    1
    37    17    20    1
@<TRIPOS>MOLECULE
*****
 34 37 0 0 0
SMALL
GASTEIGER

@<TRIPOS>ATOM
      1 C           4.6143   -3.0137   22.4724 C.ar    1  UNL1        0.0505
      2 C           4.5493   -4.2317   21.5992 C.ar    1  UNL1        0.0170
      3 C           4.2251   -4.0929   20.1412 C.ar    1  UNL1        0.0307
      4 C           3.9660   -2.7360   19.5564 C.ar    1  UNL1        0.1401
      5 F           3.6419   -2.5972   18.0984 F       1  UNL1       -0.2044
      6 C           4.0310   -1.5182   20.4296 C.ar    1  UNL1        0.0523
      7 C           4.3551   -1.6569   21.8875 C.ar    1  UNL1        0.0167
      8 C           3.7719   -0.1614   19.8447 C.3     1  UNL1        0.2179
      9 C           5.2531   -0.2595   19.6289 C.3     1  UNL1        0.0602
     10 C           4.0273    1.1614   19.1848 C.3     1  UNL1        0.1808
     11 N           2.8914    2.1109   18.9439 N.ar    1  UNL1       -0.2384
     12 N           2.8378    3.4739   18.3198 N.ar    1  UNL1       -0.1584
     13 C           1.4135    3.9432   18.3530 C.ar    1  UNL1        0.1704
     14 C           0.5868    2.8702   18.9976 C.ar    1  UNL1        0.0576
     15 C           1.5002    1.7378   19.3627 C.ar    1  UNL1        0.1615
     16 C           1.2449    0.4152   20.0225 C.2     1  UNL1        0.3305
     17 N          -0.1463    0.0421   20.4414 N.pl3   1  UNL1       -0.2452
     18 N           2.3808   -0.5344   20.2635 N.2     1  UNL1       -0.0666
     19 H          -0.8918    0.6653   20.2833 H       1  UNL1        0.2885
     20 H          -0.3138   -0.8261   20.8744 H       1  UNL1        0.2885
     21 C           0.9051    5.2551   17.8330 C.1     1  UNL1        0.1216
     22 N           0.3967    6.5669   17.3129 N.1     1  UNL1       -0.1892
     23 C           6.2162   -3.8133   24.3551 C.2     1  UNL1        0.2688
     24 O           7.1700   -4.3355   23.3218 O.2     1  UNL1       -0.2681
     25 N           4.9384   -3.1525   23.9303 N.am    1  UNL1       -0.2791
     26 H           4.3124   -2.8098   24.6085 H       1  UNL1        0.1552
     27 C           7.1884   -4.2295   28.7290 C.ar    1  UNL1        0.2449
     28 C           7.0893   -5.4504   27.8633 C.ar    1  UNL1        0.1565
     29 N           6.7652   -5.3117   26.4053 N.ar    1  UNL1       -0.2328
     30 C           6.5403   -3.9521   25.8131 C.ar    1  UNL1        0.1541
     31 C           6.6394   -2.7311   26.6788 C.ar    1  UNL1        0.1258
     32 N           6.9635   -2.8698   28.1367 N.ar    1  UNL1       -0.2071
     33 C           7.0405   -5.5709   30.9491 C.3     1  UNL1        0.2543
     34 O           7.5125   -4.3682   30.1870 O.3     1  UNL1       -0.4551
@<TRIPOS>BOND
     1    33    34    1
     2    34    27    1
     3    27    28   ar
     4    28    29   ar
     5    29    30   ar
     6    30    23    1
     7    23    24    2
     8    23    25   am
     9    25     1    1
    10     1     2   ar
    11     2     3   ar
    12     3     4   ar
    13     4     5    1
    14     4     6   ar
    15     6     8    1
    16     8     9    1
    17     8    10    1
    18    10    11    1
    19    11    12   ar
    20    12    13   ar
    21    13    21    1
    22    21    22    3
    23    13    14   ar
    24    14    15   ar
    25    15    16    1
    26    16    17    1
    27    16    18    2
    28     6     7   ar
    29    30    31   ar
    30    31    32   ar
    31    32    27   ar
    32     7     1   ar
    33    18     8    1
    34    15    11   ar
    35    25    26    1
    36    17    19    1
    37    17    20    1
@<TRIPOS>MOLECULE
*****
 34 37 0 0 0
SMALL
GASTEIGER

@<TRIPOS>ATOM
      1 C           0.9502    2.7552   19.2109 C.ar    1  UNL1        0.0505
      2 C           1.6131    3.9501   18.5921 C.ar    1  UNL1        0.0170
      3 C           3.0277    3.8534   18.1026 C.ar    1  UNL1        0.0307
      4 C           3.7794    2.5618   18.2320 C.ar    1  UNL1        0.1401
      5 F           5.1940    2.4650   17.7425 F       1  UNL1       -0.2044
      6 C           3.1166    1.3670   18.8508 C.ar    1  UNL1        0.0523
      7 C           1.7020    1.4636   19.3403 C.ar    1  UNL1        0.0167
      8 C           3.8684    0.0754   18.9802 C.3     1  UNL1        0.2179
      9 C           3.1613   -0.1640   17.6791 C.3     1  UNL1        0.0602
     10 C           4.3746   -1.2994   18.6576 C.3     1  UNL1        0.1808
     11 N           5.3268   -1.9861   19.5912 N.ar    1  UNL1       -0.2384
     12 N           5.9897   -3.3306   19.5385 N.ar    1  UNL1       -0.1584
     13 C           6.8455   -3.4736   20.7621 C.ar    1  UNL1        0.1704
     14 C           6.7114   -2.2176   21.5710 C.ar    1  UNL1        0.0576
     15 C           5.7728   -1.2982   20.8473 C.ar    1  UNL1        0.1615
     16 C           5.2666    0.0765   21.1698 C.2     1  UNL1        0.3305
     17 N           5.7126    0.7644   22.4260 N.pl3   1  UNL1       -0.2452
     18 N           4.3144    0.7632   20.2362 N.2     1  UNL1       -0.0666
     19 H           6.3376    0.3137   23.0387 H       1  UNL1        0.2885
     20 H           5.3804    1.6666   22.6376 H       1  UNL1        0.2885
     21 C           7.6875   -4.6638   21.1150 C.1     1  UNL1        0.1216
     22 N           8.5295   -5.8540   21.4678 N.1     1  UNL1       -0.1892
     23 C          -0.7415    3.2545   21.1185 C.2     1  UNL1        0.2688
     24 O           0.3960    3.5604   22.0472 O.2     1  UNL1       -0.2681
     25 N          -0.4643    2.8519   19.7004 N.am    1  UNL1       -0.2791
     26 H          -1.2109    2.6511   19.0908 H       1  UNL1        0.1552
     27 C          -4.9853    3.5444   22.5869 C.ar    1  UNL1        0.2449
     28 C          -4.6949    2.9327   21.2484 C.ar    1  UNL1        0.1565
     29 N          -3.2803    2.8361   20.7590 N.ar    1  UNL1       -0.2328
     30 C          -2.1561    3.3511   21.6080 C.ar    1  UNL1        0.1541
     31 C          -2.4465    3.9628   22.9465 C.ar    1  UNL1        0.1258
     32 N          -3.8610    4.0594   23.4359 N.ar    1  UNL1       -0.2071
     33 C          -6.7769    4.6924   24.0776 C.3     1  UNL1        0.2543
     34 O          -6.3999    3.6410   23.0763 O.3     1  UNL1       -0.4551
@<TRIPOS>BOND
     1    33    34    1
     2    34    27    1
     3    27    28   ar
     4    28    29   ar
     5    29    30   ar
     6    30    23    1
     7    23    24    2
     8    23    25   am
     9    25     1    1
    10     1     2   ar
    11     2     3   ar
    12     3     4   ar
    13     4     5    1
    14     4     6   ar
    15     6     8    1
    16     8     9    1
    17     8    10    1
    18    10    11    1
    19    11    12   ar
    20    12    13   ar
    21    13    21    1
    22    21    22    3
    23    13    14   ar
    24    14    15   ar
    25    15    16    1
    26    16    17    1
    27    16    18    2
    28     6     7   ar
    29    30    31   ar
    30    31    32   ar
    31    32    27   ar
    32     7     1   ar
    33    18     8    1
    34    15    11   ar
    35    25    26    1
    36    17    19    1
    37    17    20    1
@<TRIPOS>MOLECULE
*****
 34 37 0 0 0
SMALL
GASTEIGER

@<TRIPOS>ATOM
      1 C           0.5292    1.4143   19.6857 C.ar    1  UNL1        0.0505
      2 C           0.6884    2.0894   18.3557 C.ar    1  UNL1        0.0170
      3 C          -0.1565    3.2806   18.0133 C.ar    1  UNL1        0.0307
      4 C          -1.1605    3.7968   19.0010 C.ar    1  UNL1        0.1401
      5 F          -2.0054    4.9881   18.6585 F       1  UNL1       -0.2044
      6 C          -1.3197    3.1218   20.3309 C.ar    1  UNL1        0.0523
      7 C          -0.4749    1.9306   20.6733 C.ar    1  UNL1        0.0167
      8 C          -2.3238    3.6381   21.3186 C.3     1  UNL1        0.2179
      9 C          -1.0570    3.8788   22.0850 C.3     1  UNL1        0.0602
     10 C          -2.8879    4.2379   22.5724 C.3     1  UNL1        0.1808
     11 N          -4.3700    4.4178   22.7168 N.ar    1  UNL1       -0.2384
     12 N          -5.2099    4.9757   23.8274 N.ar    1  UNL1       -0.1584
     13 C          -6.6470    4.9005   23.4043 C.ar    1  UNL1        0.1704
     14 C          -6.6954    4.2961   22.0323 C.ar    1  UNL1        0.0576
     15 C          -5.2881    3.9978   21.6074 C.ar    1  UNL1        0.1615
     16 C          -4.7240    3.3979   20.3536 C.2     1  UNL1        0.3305
     17 N          -5.6420    2.9779   19.2442 N.pl3   1  UNL1       -0.2452
     18 N          -3.2418    3.2181   20.2092 N.2     1  UNL1       -0.0666
     19 H          -6.6148    3.0959   19.3390 H       1  UNL1        0.2885
     20 H          -5.2718    2.5842   18.4213 H       1  UNL1        0.2885
     21 C          -7.8284    5.3506   24.2116 C.1     1  UNL1        0.1216
     22 N          -9.0098    5.8008   25.0188 N.1     1  UNL1       -0.1892
     23 C           2.6717    0.4085   20.7571 C.2     1  UNL1        0.2688
     24 O           3.1248    1.7852   21.1436 O.2     1  UNL1       -0.2681
     25 N           1.3739    0.2231   20.0281 N.am    1  UNL1       -0.2791
     26 H           1.0766   -0.6805   19.7745 H       1  UNL1        0.1552
     27 C           5.2060   -3.1652   21.7844 C.ar    1  UNL1        0.2449
     28 C           5.2567   -2.5819   20.4035 C.ar    1  UNL1        0.1565
     29 N           4.4119   -1.3906   20.0610 N.ar    1  UNL1       -0.2328
     30 C           3.5165   -0.7828   21.0995 C.ar    1  UNL1        0.1541
     31 C           3.4657   -1.3661   22.4806 C.ar    1  UNL1        0.1258
     32 N           4.3105   -2.5573   22.8229 N.ar    1  UNL1       -0.2071
     33 C           6.7734   -4.4109   23.4402 C.3     1  UNL1        0.2543
     34 O           6.0508   -4.3565   22.1269 O.3     1  UNL1       -0.4551
@<TRIPOS>BOND
     1    33    34    1
     2    34    27    1
     3    27    28   ar
     4    28    29   ar
     5    29    30   ar
     6    30    23    1
     7    23    24    2
     8    23    25   am
     9    25     1    1
    10     1     2   ar
    11     2     3   ar
    12     3     4   ar
    13     4     5    1
    14     4     6   ar
    15     6     8    1
    16     8     9    1
    17     8    10    1
    18    10    11    1
    19    11    12   ar
    20    12    13   ar
    21    13    21    1
    22    21    22    3
    23    13    14   ar
    24    14    15   ar
    25    15    16    1
    26    16    17    1
    27    16    18    2
    28     6     7   ar
    29    30    31   ar
    30    31    32   ar
    31    32    27   ar
    32     7     1   ar
    33    18     8    1
    34    15    11   ar
    35    25    26    1
    36    17    19    1
    37    17    20    1
