@<TRIPOS>MOLECULE
*****
 24 26 0 0 0
SMALL
GASTEIGER

@<TRIPOS>ATOM
      1 C         -12.0259  -18.0629   21.2041 C.3     1  UNL1        0.0523
      2 C         -10.5543  -17.8256   21.3712 C.ar    1  UNL1        0.0650
      3 C         -10.0689  -16.6066   22.0980 C.ar    1  UNL1        0.0489
      4 C          -8.5973  -16.3693   22.2651 C.ar    1  UNL1        0.1325
      5 N          -7.6110  -17.3511   21.7055 N.ar    1  UNL1       -0.1991
      6 C          -8.0963  -18.5702   20.9787 C.ar    1  UNL1        0.2179
      7 N          -9.5680  -18.8074   20.8116 N.ar    1  UNL1       -0.2181
      8 N          -8.1119  -15.1501   22.9919 N.pl3   1  UNL1       -0.3196
      9 H          -8.1175  -14.2742   22.5424 H       1  UNL1        0.1481
     10 C          -7.6180  -15.2655   24.4035 C.3     1  UNL1        0.0704
     11 C          -6.1451  -15.2448   24.6869 C.3     1  UNL1        0.0195
     12 C          -5.6512  -15.3602   26.0985 C.3     1  UNL1        0.0017
     13 C          -6.6303  -15.4963   27.2268 C.3     1  UNL1        0.0001
     14 C          -8.1031  -15.5171   26.9435 C.3     1  UNL1        0.0017
     15 C          -8.5970  -15.4016   25.5318 C.3     1  UNL1        0.0195
     16 N          -7.1100  -19.5520   20.4190 N.pl3   1  UNL1       -0.2990
     17 H          -7.1040  -19.7481   19.4542 H       1  UNL1        0.1500
     18 C          -6.1330  -20.2352   21.3293 C.3     1  UNL1        0.1165
     19 C          -4.7698  -19.6470   21.5434 C.ar    1  UNL1       -0.0026
     20 C          -3.6335  -20.0413   20.6471 C.ar    1  UNL1       -0.0026
     21 C          -2.2704  -19.4531   20.8613 C.ar    1  UNL1       -0.0003
     22 C          -2.0435  -18.4707   21.9719 C.ar    1  UNL1       -0.0000
     23 C          -3.1798  -18.0764   22.8682 C.ar    1  UNL1       -0.0003
     24 C          -4.5429  -18.6646   22.6540 C.ar    1  UNL1       -0.0026
@<TRIPOS>BOND
     1     1     2    1
     2     2     3   ar
     3     3     4   ar
     4     4     8    1
     5     8    10    1
     6    10    11    1
     7    11    12    1
     8    12    13    1
     9    13    14    1
    10    14    15    1
    11     4     5   ar
    12     5     6   ar
    13     6    16    1
    14    16    18    1
    15    18    19    1
    16    19    20   ar
    17    20    21   ar
    18    21    22   ar
    19    22    23   ar
    20    23    24   ar
    21     6     7   ar
    22     7     2   ar
    23    15    10    1
    24    24    19   ar
    25     8     9    1
    26    16    17    1
@<TRIPOS>MOLECULE
*****
 24 26 0 0 0
SMALL
GASTEIGER

@<TRIPOS>ATOM
      1 C          -8.0060  -15.3858   27.3670 C.3     1  UNL1        0.0523
      2 C          -7.7315  -15.5710   25.9040 C.ar    1  UNL1        0.0650
      3 C          -8.8712  -15.7068   24.9384 C.ar    1  UNL1        0.0489
      4 C          -8.5967  -15.8920   23.4754 C.ar    1  UNL1        0.1325
      5 N          -7.1824  -15.9414   22.9780 N.ar    1  UNL1       -0.1991
      6 C          -6.0427  -15.8056   23.9436 C.ar    1  UNL1        0.2179
      7 N          -6.3172  -15.6204   25.4066 N.ar    1  UNL1       -0.2181
      8 N          -9.7365  -16.0278   22.5097 N.pl3   1  UNL1       -0.3196
      9 H         -10.2072  -15.2253   22.1877 H       1  UNL1        0.1481
     10 C         -10.1592  -17.3864   22.0347 C.3     1  UNL1        0.0704
     11 C         -10.5837  -17.5842   20.6096 C.3     1  UNL1        0.0195
     12 C         -11.0064  -18.9427   20.1346 C.3     1  UNL1        0.0017
     13 C         -11.0046  -20.1036   21.0847 C.3     1  UNL1        0.0001
     14 C         -10.5801  -19.9058   22.5097 C.3     1  UNL1        0.0017
     15 C         -10.1574  -18.5472   22.9847 C.3     1  UNL1        0.0195
     16 N          -4.6284  -15.8549   23.4463 N.pl3   1  UNL1       -0.2990
     17 H          -4.2041  -15.0422   23.0875 H       1  UNL1        0.1500
     18 C          -3.8606  -17.1425   23.4955 C.3     1  UNL1        0.1165
     19 C          -2.9733  -17.5310   22.3501 C.ar    1  UNL1       -0.0026
     20 C          -2.1028  -16.5013   21.6930 C.ar    1  UNL1       -0.0026
     21 C          -1.2156  -16.8898   20.5476 C.ar    1  UNL1       -0.0003
     22 C          -1.1989  -18.3080   20.0593 C.ar    1  UNL1       -0.0000
     23 C          -2.0694  -19.3377   20.7164 C.ar    1  UNL1       -0.0003
     24 C          -2.9566  -18.9492   21.8618 C.ar    1  UNL1       -0.0026
@<TRIPOS>BOND
     1     1     2    1
     2     2     3   ar
     3     3     4   ar
     4     4     8    1
     5     8    10    1
     6    10    11    1
     7    11    12    1
     8    12    13    1
     9    13    14    1
    10    14    15    1
    11     4     5   ar
    12     5     6   ar
    13     6    16    1
    14    16    18    1
    15    18    19    1
    16    19    20   ar
    17    20    21   ar
    18    21    22   ar
    19    22    23   ar
    20    23    24   ar
    21     6     7   ar
    22     7     2   ar
    23    15    10    1
    24    24    19   ar
    25     8     9    1
    26    16    17    1
@<TRIPOS>MOLECULE
*****
 24 26 0 0 0
SMALL
GASTEIGER

@<TRIPOS>ATOM
      1 C          -6.9593  -15.1972   27.4600 C.3     1  UNL1        0.0523
      2 C          -6.9500  -15.5380   25.9993 C.ar    1  UNL1        0.0650
      3 C          -8.2370  -15.5769   25.2299 C.ar    1  UNL1        0.0489
      4 C          -8.2277  -15.9177   23.7692 C.ar    1  UNL1        0.1325
      5 N          -6.9312  -16.2196   23.0778 N.ar    1  UNL1       -0.1991
      6 C          -5.6442  -16.1807   23.8471 C.ar    1  UNL1        0.2179
      7 N          -5.6536  -15.8399   25.3079 N.ar    1  UNL1       -0.2181
      8 N          -9.5148  -15.9566   22.9999 N.pl3   1  UNL1       -0.3196
      9 H         -10.0482  -15.1363   22.8910 H       1  UNL1        0.1481
     10 C          -9.9892  -17.2453   22.3964 C.3     1  UNL1        0.0704
     11 C         -10.6061  -17.2509   21.0291 C.3     1  UNL1        0.0195
     12 C         -11.0805  -18.5396   20.4256 C.3     1  UNL1        0.0017
     13 C         -10.9380  -19.8227   21.1895 C.3     1  UNL1        0.0001
     14 C         -10.3211  -19.8171   22.5567 C.3     1  UNL1        0.0017
     15 C          -9.8467  -18.5284   23.1602 C.3     1  UNL1        0.0195
     16 N          -4.3477  -16.4827   23.1557 N.pl3   1  UNL1       -0.2990
     17 H          -3.8535  -15.7632   22.7002 H       1  UNL1        0.1500
     18 C          -3.8041  -17.8807   23.1584 C.3     1  UNL1        0.1165
     19 C          -4.2976  -18.8792   22.1536 C.ar    1  UNL1       -0.0026
     20 C          -5.7074  -19.3858   22.2298 C.ar    1  UNL1       -0.0026
     21 C          -6.2008  -20.3842   21.2250 C.ar    1  UNL1       -0.0003
     22 C          -5.2845  -20.8761   20.1441 C.ar    1  UNL1       -0.0000
     23 C          -3.8747  -20.3696   20.0680 C.ar    1  UNL1       -0.0003
     24 C          -3.3813  -19.3711   21.0727 C.ar    1  UNL1       -0.0026
@<TRIPOS>BOND
     1     1     2    1
     2     2     3   ar
     3     3     4   ar
     4     4     8    1
     5     8    10    1
     6    10    11    1
     7    11    12    1
     8    12    13    1
     9    13    14    1
    10    14    15    1
    11     4     5   ar
    12     5     6   ar
    13     6    16    1
    14    16    18    1
    15    18    19    1
    16    19    20   ar
    17    20    21   ar
    18    21    22   ar
    19    22    23   ar
    20    23    24   ar
    21     6     7   ar
    22     7     2   ar
    23    15    10    1
    24    24    19   ar
    25     8     9    1
    26    16    17    1
@<TRIPOS>MOLECULE
*****
 24 26 0 0 0
SMALL
GASTEIGER

@<TRIPOS>ATOM
      1 C          -9.6665  -20.4129   23.9709 C.3     1  UNL1        0.0523
      2 C          -8.7538  -19.6076   23.0943 C.ar    1  UNL1        0.0650
      3 C          -7.6332  -20.2810   22.3590 C.ar    1  UNL1        0.0489
      4 C          -6.7204  -19.4757   21.4825 C.ar    1  UNL1        0.1325
      5 N          -6.9283  -17.9969   21.3412 N.ar    1  UNL1       -0.1991
      6 C          -8.0489  -17.3235   22.0765 C.ar    1  UNL1        0.2179
      7 N          -8.9616  -18.1288   22.9530 N.ar    1  UNL1       -0.2181
      8 N          -5.5998  -20.1492   20.7472 N.pl3   1  UNL1       -0.3196
      9 H          -5.7583  -21.0030   20.2833 H       1  UNL1        0.1481
     10 C          -4.2375  -19.5219   20.7187 C.3     1  UNL1        0.0704
     11 C          -3.4345  -19.4150   21.9812 C.3     1  UNL1        0.0195
     12 C          -2.0723  -18.7877   21.9527 C.3     1  UNL1        0.0017
     13 C          -1.5131  -18.2672   20.6618 C.3     1  UNL1        0.0001
     14 C          -2.3162  -18.3740   19.3994 C.3     1  UNL1        0.0017
     15 C          -3.6784  -19.0014   19.4278 C.3     1  UNL1        0.0195
     16 N          -8.2568  -15.8447   21.9352 N.pl3   1  UNL1       -0.2990
     17 H          -8.9175  -15.4997   21.2919 H       1  UNL1        0.1500
     18 C          -7.4582  -14.8915   22.7740 C.3     1  UNL1        0.1165
     19 C          -7.2757  -15.1539   24.2396 C.ar    1  UNL1       -0.0026
     20 C          -5.8953  -15.2795   24.8128 C.ar    1  UNL1       -0.0026
     21 C          -5.7129  -15.5418   26.2784 C.ar    1  UNL1       -0.0003
     22 C          -6.9109  -15.6785   27.1707 C.ar    1  UNL1       -0.0000
     23 C          -8.2913  -15.5529   26.5974 C.ar    1  UNL1       -0.0003
     24 C          -8.4737  -15.2906   25.1319 C.ar    1  UNL1       -0.0026
@<TRIPOS>BOND
     1     1     2    1
     2     2     3   ar
     3     3     4   ar
     4     4     8    1
     5     8    10    1
     6    10    11    1
     7    11    12    1
     8    12    13    1
     9    13    14    1
    10    14    15    1
    11     4     5   ar
    12     5     6   ar
    13     6    16    1
    14    16    18    1
    15    18    19    1
    16    19    20   ar
    17    20    21   ar
    18    21    22   ar
    19    22    23   ar
    20    23    24   ar
    21     6     7   ar
    22     7     2   ar
    23    15    10    1
    24    24    19   ar
    25     8     9    1
    26    16    17    1
@<TRIPOS>MOLECULE
*****
 24 26 0 0 0
SMALL
GASTEIGER

@<TRIPOS>ATOM
      1 C          -8.8587  -20.2176   18.7777 C.3     1  UNL1        0.0523
      2 C          -8.1232  -19.5095   19.8767 C.ar    1  UNL1        0.0650
      3 C          -6.7105  -19.8940   20.2027 C.ar    1  UNL1        0.0489
      4 C          -5.9751  -19.1858   21.3016 C.ar    1  UNL1        0.1325
      5 N          -6.6523  -18.0931   22.0745 N.ar    1  UNL1       -0.1991
      6 C          -8.0650  -17.7086   21.7484 C.ar    1  UNL1        0.2179
      7 N          -8.8005  -18.4168   20.6495 N.ar    1  UNL1       -0.2181
      8 N          -4.5623  -19.5704   21.6277 N.pl3   1  UNL1       -0.3196
      9 H          -4.3825  -20.3801   22.1579 H       1  UNL1        0.1481
     10 C          -3.4236  -18.7211   21.1459 C.3     1  UNL1        0.0704
     11 C          -2.8032  -18.9881   19.8065 C.3     1  UNL1        0.0195
     12 C          -1.6646  -18.1389   19.3247 C.3     1  UNL1        0.0017
     13 C          -1.1463  -17.0226   20.1823 C.3     1  UNL1        0.0001
     14 C          -1.7667  -16.7556   21.5216 C.3     1  UNL1        0.0017
     15 C          -2.9053  -17.6049   22.0034 C.3     1  UNL1        0.0195
     16 N          -8.7424  -16.6158   22.5212 N.pl3   1  UNL1       -0.2990
     17 H          -9.7125  -16.6564   22.6838 H       1  UNL1        0.1500
     18 C          -7.9416  -15.4613   23.0463 C.3     1  UNL1        0.1165
     19 C          -7.5183  -15.4349   24.4852 C.ar    1  UNL1       -0.0026
     20 C          -8.5487  -15.5214   25.5718 C.ar    1  UNL1       -0.0026
     21 C          -8.1253  -15.4950   27.0105 C.ar    1  UNL1       -0.0003
     22 C          -6.6716  -15.3820   27.3627 C.ar    1  UNL1       -0.0000
     23 C          -5.6412  -15.2955   26.2760 C.ar    1  UNL1       -0.0003
     24 C          -6.0646  -15.3219   24.8373 C.ar    1  UNL1       -0.0026
@<TRIPOS>BOND
     1     1     2    1
     2     2     3   ar
     3     3     4   ar
     4     4     8    1
     5     8    10    1
     6    10    11    1
     7    11    12    1
     8    12    13    1
     9    13    14    1
    10    14    15    1
    11     4     5   ar
    12     5     6   ar
    13     6    16    1
    14    16    18    1
    15    18    19    1
    16    19    20   ar
    17    20    21   ar
    18    21    22   ar
    19    22    23   ar
    20    23    24   ar
    21     6     7   ar
    22     7     2   ar
    23    15    10    1
    24    24    19   ar
    25     8     9    1
    26    16    17    1
@<TRIPOS>MOLECULE
*****
 24 26 0 0 0
SMALL
GASTEIGER

@<TRIPOS>ATOM
      1 C          -3.6019  -20.4193   19.9276 C.3     1  UNL1        0.0523
      2 C          -4.5615  -19.5872   20.7257 C.ar    1  UNL1        0.0650
      3 C          -6.0396  -19.7582   20.5364 C.ar    1  UNL1        0.0489
      4 C          -6.9991  -18.9261   21.3344 C.ar    1  UNL1        0.1325
      5 N          -6.4806  -17.9230   22.3218 N.ar    1  UNL1       -0.1991
      6 C          -5.0024  -17.7520   22.5111 C.ar    1  UNL1        0.2179
      7 N          -4.0429  -18.5841   21.7130 N.ar    1  UNL1       -0.2181
      8 N          -8.4773  -19.0971   21.1451 N.pl3   1  UNL1       -0.3196
      9 H          -8.8466  -19.2226   20.2412 H       1  UNL1        0.1481
     10 C          -9.3929  -19.0768   22.3331 C.3     1  UNL1        0.0704
     11 C          -9.2070  -20.0716   23.4403 C.3     1  UNL1        0.0195
     12 C         -10.1226  -20.0513   24.6283 C.3     1  UNL1        0.0017
     13 C         -11.2240  -19.0362   24.7091 C.3     1  UNL1        0.0001
     14 C         -11.4099  -18.0414   23.6019 C.3     1  UNL1        0.0017
     15 C         -10.4943  -18.0617   22.4139 C.3     1  UNL1        0.0195
     16 N          -4.4838  -16.7489   23.4984 N.pl3   1  UNL1       -0.2990
     17 H          -3.6299  -16.9099   23.9613 H       1  UNL1        0.1500
     18 C          -5.2661  -15.5006   23.7805 C.3     1  UNL1        0.1165
     19 C          -6.2591  -15.4757   24.9045 C.ar    1  UNL1       -0.0026
     20 C          -7.7282  -15.5430   24.6090 C.ar    1  UNL1       -0.0026
     21 C          -8.7211  -15.5181   25.7330 C.ar    1  UNL1       -0.0003
     22 C          -8.2451  -15.4259   27.1524 C.ar    1  UNL1       -0.0000
     23 C          -6.7761  -15.3585   27.4479 C.ar    1  UNL1       -0.0003
     24 C          -5.7831  -15.3834   26.3240 C.ar    1  UNL1       -0.0026
@<TRIPOS>BOND
     1     1     2    1
     2     2     3   ar
     3     3     4   ar
     4     4     8    1
     5     8    10    1
     6    10    11    1
     7    11    12    1
     8    12    13    1
     9    13    14    1
    10    14    15    1
    11     4     5   ar
    12     5     6   ar
    13     6    16    1
    14    16    18    1
    15    18    19    1
    16    19    20   ar
    17    20    21   ar
    18    21    22   ar
    19    22    23   ar
    20    23    24   ar
    21     6     7   ar
    22     7     2   ar
    23    15    10    1
    24    24    19   ar
    25     8     9    1
    26    16    17    1
@<TRIPOS>MOLECULE
*****
 24 26 0 0 0
SMALL
GASTEIGER

@<TRIPOS>ATOM
      1 C          -7.9556  -15.4821   27.1928 C.3     1  UNL1        0.0523
      2 C          -7.5863  -15.5623   25.7412 C.ar    1  UNL1        0.0650
      3 C          -6.1451  -15.6650   25.3386 C.ar    1  UNL1        0.0489
      4 C          -5.7757  -15.7452   23.8870 C.ar    1  UNL1        0.1325
      5 N          -6.8477  -15.7227   22.8380 N.ar    1  UNL1       -0.1991
      6 C          -8.2889  -15.6200   23.2407 C.ar    1  UNL1        0.2179
      7 N          -8.6583  -15.5398   24.6923 N.ar    1  UNL1       -0.2181
      8 N          -4.3344  -15.8479   23.4844 N.pl3   1  UNL1       -0.3196
      9 H          -3.7296  -15.0830   23.6202 H       1  UNL1        0.1481
     10 C          -3.8145  -17.1161   22.8748 C.3     1  UNL1        0.0704
     11 C          -2.4179  -17.1688   22.3300 C.3     1  UNL1        0.0195
     12 C          -1.8980  -18.4369   21.7205 C.3     1  UNL1        0.0017
     13 C          -2.7747  -19.6524   21.6558 C.3     1  UNL1        0.0001
     14 C          -4.1713  -19.5996   22.2006 C.3     1  UNL1        0.0017
     15 C          -4.6911  -18.3315   22.8101 C.3     1  UNL1        0.0195
     16 N          -9.3610  -15.5975   22.1917 N.pl3   1  UNL1       -0.2990
     17 H          -9.6384  -14.7427   21.7896 H       1  UNL1        0.1500
     18 C         -10.0103  -16.8773   21.7553 C.3     1  UNL1        0.1165
     19 C          -9.9934  -18.0735   22.6603 C.ar    1  UNL1       -0.0026
     20 C          -8.9301  -19.1194   22.5011 C.ar    1  UNL1       -0.0026
     21 C          -8.9132  -20.3155   23.4060 C.ar    1  UNL1       -0.0003
     22 C          -9.9597  -20.4657   24.4701 C.ar    1  UNL1       -0.0000
     23 C         -11.0230  -19.4198   24.6293 C.ar    1  UNL1       -0.0003
     24 C         -11.0399  -18.2237   23.7244 C.ar    1  UNL1       -0.0026
@<TRIPOS>BOND
     1     1     2    1
     2     2     3   ar
     3     3     4   ar
     4     4     8    1
     5     8    10    1
     6    10    11    1
     7    11    12    1
     8    12    13    1
     9    13    14    1
    10    14    15    1
    11     4     5   ar
    12     5     6   ar
    13     6    16    1
    14    16    18    1
    15    18    19    1
    16    19    20   ar
    17    20    21   ar
    18    21    22   ar
    19    22    23   ar
    20    23    24   ar
    21     6     7   ar
    22     7     2   ar
    23    15    10    1
    24    24    19   ar
    25     8     9    1
    26    16    17    1
@<TRIPOS>MOLECULE
*****
 24 26 0 0 0
SMALL
GASTEIGER

@<TRIPOS>ATOM
      1 C          -3.5960  -19.9442   19.5973 C.3     1  UNL1        0.0523
      2 C          -4.4931  -19.3192   20.6243 C.ar    1  UNL1        0.0650
      3 C          -5.9199  -19.7657   20.7450 C.ar    1  UNL1        0.0489
      4 C          -6.8170  -19.1407   21.7720 C.ar    1  UNL1        0.1325
      5 N          -6.2872  -18.0693   22.6782 N.ar    1  UNL1       -0.1991
      6 C          -4.8603  -17.6228   22.5574 C.ar    1  UNL1        0.2179
      7 N          -3.9632  -18.2478   21.5305 N.ar    1  UNL1       -0.2181
      8 N          -8.2440  -19.5872   21.8928 N.pl3   1  UNL1       -0.3196
      9 H          -8.4512  -20.4845   22.2410 H       1  UNL1        0.1481
     10 C          -9.3551  -18.6667   21.4829 C.3     1  UNL1        0.0704
     11 C          -9.8187  -17.5883   22.4169 C.3     1  UNL1        0.0195
     12 C         -10.9298  -16.6677   22.0070 C.3     1  UNL1        0.0017
     13 C         -11.5773  -16.8256   20.6632 C.3     1  UNL1        0.0001
     14 C         -11.1138  -17.9039   19.7293 C.3     1  UNL1        0.0017
     15 C         -10.0026  -18.8245   20.1391 C.3     1  UNL1        0.0195
     16 N          -4.3304  -16.5513   23.4637 N.pl3   1  UNL1       -0.2990
     17 H          -3.4382  -16.6462   23.8689 H       1  UNL1        0.1500
     18 C          -5.1599  -15.3354   23.7525 C.3     1  UNL1        0.1165
     19 C          -6.1823  -15.3682   24.8497 C.ar    1  UNL1       -0.0026
     20 C          -5.7429  -15.4086   26.2833 C.ar    1  UNL1       -0.0026
     21 C          -6.7653  -15.4414   27.3804 C.ar    1  UNL1       -0.0003
     22 C          -8.2270  -15.4339   27.0438 C.ar    1  UNL1       -0.0000
     23 C          -8.6664  -15.3935   25.6102 C.ar    1  UNL1       -0.0003
     24 C          -7.6440  -15.3607   24.5131 C.ar    1  UNL1       -0.0026
@<TRIPOS>BOND
     1     1     2    1
     2     2     3   ar
     3     3     4   ar
     4     4     8    1
     5     8    10    1
     6    10    11    1
     7    11    12    1
     8    12    13    1
     9    13    14    1
    10    14    15    1
    11     4     5   ar
    12     5     6   ar
    13     6    16    1
    14    16    18    1
    15    18    19    1
    16    19    20   ar
    17    20    21   ar
    18    21    22   ar
    19    22    23   ar
    20    23    24   ar
    21     6     7   ar
    22     7     2   ar
    23    15    10    1
    24    24    19   ar
    25     8     9    1
    26    16    17    1
@<TRIPOS>MOLECULE
*****
 24 26 0 0 0
SMALL
GASTEIGER

@<TRIPOS>ATOM
      1 C          -7.6257  -15.4492   27.4288 C.3     1  UNL1        0.0523
      2 C          -7.3816  -15.5848   25.9550 C.ar    1  UNL1        0.0650
      3 C          -5.9783  -15.6019   25.4257 C.ar    1  UNL1        0.0489
      4 C          -5.7342  -15.7374   23.9519 C.ar    1  UNL1        0.1325
      5 N          -6.8934  -15.8559   23.0074 N.ar    1  UNL1       -0.1991
      6 C          -8.2968  -15.8388   23.5368 C.ar    1  UNL1        0.2179
      7 N          -8.5409  -15.7032   25.0105 N.ar    1  UNL1       -0.2181
      8 N          -4.3307  -15.7546   23.4226 N.pl3   1  UNL1       -0.3196
      9 H          -3.7791  -14.9402   23.4638 H       1  UNL1        0.1481
     10 C          -3.7678  -17.0125   22.8304 C.3     1  UNL1        0.0704
     11 C          -4.5616  -18.2844   22.8779 C.3     1  UNL1        0.0195
     12 C          -3.9987  -19.5424   22.2857 C.3     1  UNL1        0.0017
     13 C          -2.6420  -19.5284   21.6460 C.3     1  UNL1        0.0001
     14 C          -1.8482  -18.2566   21.5986 C.3     1  UNL1        0.0017
     15 C          -2.4111  -16.9986   22.1907 C.3     1  UNL1        0.0195
     16 N          -9.4561  -15.9573   22.5923 N.pl3   1  UNL1       -0.2990
     17 H          -9.7859  -15.1616   22.1154 H       1  UNL1        0.1500
     18 C         -10.1131  -17.2880   22.3744 C.3     1  UNL1        0.1165
     19 C          -9.6327  -18.1909   21.2771 C.ar    1  UNL1       -0.0026
     20 C         -10.5977  -18.6980   20.2467 C.ar    1  UNL1       -0.0026
     21 C         -10.1173  -19.6009   19.1494 C.ar    1  UNL1       -0.0003
     22 C          -8.6720  -19.9965   19.0825 C.ar    1  UNL1       -0.0000
     23 C          -7.7070  -19.4894   20.1128 C.ar    1  UNL1       -0.0003
     24 C          -8.1874  -18.5866   21.2101 C.ar    1  UNL1       -0.0026
@<TRIPOS>BOND
     1     1     2    1
     2     2     3   ar
     3     3     4   ar
     4     4     8    1
     5     8    10    1
     6    10    11    1
     7    11    12    1
     8    12    13    1
     9    13    14    1
    10    14    15    1
    11     4     5   ar
    12     5     6   ar
    13     6    16    1
    14    16    18    1
    15    18    19    1
    16    19    20   ar
    17    20    21   ar
    18    21    22   ar
    19    22    23   ar
    20    23    24   ar
    21     6     7   ar
    22     7     2   ar
    23    15    10    1
    24    24    19   ar
    25     8     9    1
    26    16    17    1
