@<TRIPOS>MOLECULE
*****
 24 27 0 0 0
SMALL
GASTEIGER

@<TRIPOS>ATOM
      1 N          -7.9000  -18.1006   22.3667 N.ar    1  UNL1       -0.3087
      2 C          -8.1759  -16.8029   23.0665 C.ar    1  UNL1        0.1493
      3 N          -9.4240  -16.2151   22.4775 N.ar    1  UNL1       -0.2284
      4 C          -9.9193  -17.1495   21.4138 C.ar    1  UNL1        0.0984
      5 C         -11.1064  -17.0898   20.4988 C.ar    1  UNL1        0.0206
      6 C         -11.3515  -18.1954   19.5152 C.ar    1  UNL1        0.0016
      7 C         -10.4095  -19.3608   19.4467 C.ar    1  UNL1        0.0016
      8 C          -9.2225  -19.4205   20.3618 C.ar    1  UNL1        0.0188
      9 C          -8.9774  -18.3149   21.3453 C.ar    1  UNL1        0.0789
     10 C          -7.3491  -16.1990   24.1626 C.3     1  UNL1        0.1869
     11 C          -6.0421  -15.5379   23.8389 C.3     1  UNL1        0.1064
     12 N          -5.2153  -14.9340   24.9351 N.3     1  UNL1       -0.2930
     13 C          -5.6954  -14.9912   26.3550 C.3     1  UNL1        0.1011
     14 C          -7.0023  -15.6523   26.6787 C.3     1  UNL1        0.1597
     15 O          -7.8292  -16.2562   25.5825 O.3     1  UNL1       -0.3458
     16 H          -5.0954  -13.9478   24.7043 H       1  UNL1        0.1234
     17 C          -6.7486  -19.0224   22.6403 C.3     1  UNL1        0.1340
     18 C          -1.6359  -18.4343   19.5559 C.3     1  UNL1        0.0310
     19 C          -2.9141  -18.5813   20.3270 C.ar    1  UNL1       -0.0219
     20 C          -2.9424  -18.2805   21.7962 C.ar    1  UNL1       -0.0045
     21 C          -4.2206  -18.4275   22.5673 C.ar    1  UNL1       -0.0027
     22 C          -5.4705  -18.8754   21.8692 C.ar    1  UNL1        0.0004
     23 C          -5.4421  -19.1762   20.3999 C.ar    1  UNL1       -0.0027
     24 C          -4.1639  -19.0292   19.6289 C.ar    1  UNL1       -0.0045
@<TRIPOS>BOND
     1    18    19    1
     2    19    20   ar
     3    20    21   ar
     4    21    22   ar
     5    22    17    1
     6    17     1    1
     7     1     2   ar
     8    10     2    1
     9    10    11    1
    10    11    12    1
    11    12    13    1
    12    13    14    1
    13    14    15    1
    14     2     3   ar
    15     3     4   ar
    16     4     5   ar
    17     5     6   ar
    18     6     7   ar
    19     7     8   ar
    20     8     9   ar
    21    22    23   ar
    22    23    24   ar
    23    24    19   ar
    24     9     1   ar
    25    15    10    1
    26     9     4   ar
    27    12    16    1
@<TRIPOS>MOLECULE
*****
 24 27 0 0 0
SMALL
GASTEIGER

@<TRIPOS>ATOM
      1 N          -8.5202  -17.1044   21.8189 N.ar    1  UNL1       -0.3087
      2 C          -7.9712  -18.4040   21.3091 C.ar    1  UNL1        0.1493
      3 N          -9.1292  -19.2922   20.9625 N.ar    1  UNL1       -0.2284
      4 C         -10.3939  -18.5416   21.2581 C.ar    1  UNL1        0.0984
      5 C         -11.8395  -18.9146   21.1137 C.ar    1  UNL1        0.0206
      6 C         -12.9087  -17.9355   21.4985 C.ar    1  UNL1        0.0016
      7 C         -12.5323  -16.5834   22.0278 C.ar    1  UNL1        0.0016
      8 C         -11.0866  -16.2104   22.1722 C.ar    1  UNL1        0.0188
      9 C         -10.0174  -17.1895   21.7873 C.ar    1  UNL1        0.0789
     10 C          -6.5192  -18.7539   21.1703 C.3     1  UNL1        0.1869
     11 C          -5.7189  -19.1286   22.3823 C.3     1  UNL1        0.1064
     12 N          -4.2669  -19.4785   22.2434 N.3     1  UNL1       -0.2930
     13 C          -3.6152  -19.4537   20.8926 C.3     1  UNL1        0.1011
     14 C          -4.4156  -19.0790   19.6806 C.3     1  UNL1        0.1597
     15 O          -5.8676  -18.7291   19.8195 O.3     1  UNL1       -0.3458
     16 H          -4.1561  -20.4253   22.6064 H       1  UNL1        0.1234
     17 C          -7.7135  -15.9266   22.2793 C.3     1  UNL1        0.1340
     18 C          -6.7419  -15.0609   28.1365 C.3     1  UNL1        0.0310
     19 C          -6.9847  -15.2774   26.6722 C.ar    1  UNL1       -0.0219
     20 C          -8.3834  -15.4649   26.1636 C.ar    1  UNL1       -0.0045
     21 C          -8.6263  -15.6813   24.6993 C.ar    1  UNL1       -0.0027
     22 C          -7.4705  -15.7102   23.7435 C.ar    1  UNL1        0.0004
     23 C          -6.0719  -15.5227   24.2521 C.ar    1  UNL1       -0.0027
     24 C          -5.8291  -15.3063   25.7164 C.ar    1  UNL1       -0.0045
@<TRIPOS>BOND
     1    18    19    1
     2    19    20   ar
     3    20    21   ar
     4    21    22   ar
     5    22    17    1
     6    17     1    1
     7     1     2   ar
     8    10     2    1
     9    10    11    1
    10    11    12    1
    11    12    13    1
    12    13    14    1
    13    14    15    1
    14     2     3   ar
    15     3     4   ar
    16     4     5   ar
    17     5     6   ar
    18     6     7   ar
    19     7     8   ar
    20     8     9   ar
    21    22    23   ar
    22    23    24   ar
    23    24    19   ar
    24     9     1   ar
    25    15    10    1
    26     9     4   ar
    27    12    16    1
@<TRIPOS>MOLECULE
*****
 24 27 0 0 0
SMALL
GASTEIGER

@<TRIPOS>ATOM
      1 N          -4.1937  -18.1326   22.3216 N.ar    1  UNL1       -0.3087
      2 C          -4.3409  -16.7693   22.9297 C.ar    1  UNL1        0.1493
      3 N          -3.1817  -15.9321   22.4766 N.ar    1  UNL1       -0.2284
      4 C          -2.3180  -16.7779   21.5885 C.ar    1  UNL1        0.0984
      5 C          -1.0429  -16.4855   20.8547 C.ar    1  UNL1        0.0206
      6 C          -0.3933  -17.5530   20.0251 C.ar    1  UNL1        0.0016
      7 C          -1.0188  -18.9130   19.9293 C.ar    1  UNL1        0.0016
      8 C          -2.2939  -19.2055   20.6631 C.ar    1  UNL1        0.0188
      9 C          -2.9435  -18.1379   21.4927 C.ar    1  UNL1        0.0789
     10 C          -5.4522  -16.3218   23.8323 C.3     1  UNL1        0.1869
     11 C          -5.1698  -16.0113   25.2724 C.3     1  UNL1        0.1064
     12 N          -6.2811  -15.5638   26.1750 N.3     1  UNL1       -0.2930
     13 C          -7.6748  -15.4267   25.6376 C.3     1  UNL1        0.1011
     14 C          -7.9571  -15.7372   24.1975 C.3     1  UNL1        0.1597
     15 O          -6.8458  -16.1847   23.2949 O.3     1  UNL1       -0.3458
     16 H          -6.0145  -14.6489   26.5389 H       1  UNL1        0.1234
     17 C          -5.1319  -19.2877   22.5094 C.3     1  UNL1        0.1340
     18 C         -10.3426  -19.4346   19.5384 C.3     1  UNL1        0.0310
     19 C          -9.0399  -19.3979   20.2812 C.ar    1  UNL1       -0.0219
     20 C          -9.0323  -19.3644   21.7808 C.ar    1  UNL1       -0.0045
     21 C          -7.7297  -19.3276   22.5235 C.ar    1  UNL1       -0.0027
     22 C          -6.4345  -19.3244   21.7667 C.ar    1  UNL1        0.0004
     23 C          -6.4422  -19.3580   20.2671 C.ar    1  UNL1       -0.0027
     24 C          -7.7449  -19.3947   19.5244 C.ar    1  UNL1       -0.0045
@<TRIPOS>BOND
     1    18    19    1
     2    19    20   ar
     3    20    21   ar
     4    21    22   ar
     5    22    17    1
     6    17     1    1
     7     1     2   ar
     8    10     2    1
     9    10    11    1
    10    11    12    1
    11    12    13    1
    12    13    14    1
    13    14    15    1
    14     2     3   ar
    15     3     4   ar
    16     4     5   ar
    17     5     6   ar
    18     6     7   ar
    19     7     8   ar
    20     8     9   ar
    21    22    23   ar
    22    23    24   ar
    23    24    19   ar
    24     9     1   ar
    25    15    10    1
    26     9     4   ar
    27    12    16    1
@<TRIPOS>MOLECULE
*****
 24 27 0 0 0
SMALL
GASTEIGER

@<TRIPOS>ATOM
      1 N          -6.8855  -17.2852   23.0137 N.ar    1  UNL1       -0.3087
      2 C          -5.4260  -17.6065   22.8851 C.ar    1  UNL1        0.1493
      3 N          -4.7178  -17.0291   24.0747 N.ar    1  UNL1       -0.2284
      4 C          -5.7396  -16.3510   24.9385 C.ar    1  UNL1        0.0984
      5 C          -5.6232  -15.6099   26.2374 C.ar    1  UNL1        0.0206
      6 C          -6.8465  -15.0271   26.8805 C.ar    1  UNL1        0.0016
      7 C          -8.1863  -15.1853   26.2248 C.ar    1  UNL1        0.0016
      8 C          -8.3027  -15.9264   24.9259 C.ar    1  UNL1        0.0188
      9 C          -7.0794  -16.5093   24.2827 C.ar    1  UNL1        0.0789
     10 C          -4.7869  -18.3709   21.7639 C.3     1  UNL1        0.1869
     11 C          -5.3188  -19.7187   21.3762 C.3     1  UNL1        0.1064
     12 N          -4.6797  -20.4831   20.2550 N.3     1  UNL1       -0.2930
     13 C          -3.5087  -19.8997   19.5214 C.3     1  UNL1        0.1011
     14 C          -2.9767  -18.5519   19.9090 C.3     1  UNL1        0.1597
     15 O          -3.6158  -17.7875   21.0303 O.3     1  UNL1       -0.3458
     16 H          -5.4079  -20.6514   19.5608 H       1  UNL1        0.1234
     17 C          -7.9622  -17.6719   22.0436 C.3     1  UNL1        0.1340
     18 C         -13.6735  -17.9629   23.8593 C.3     1  UNL1        0.0310
     19 C         -12.2457  -17.8901   23.4053 C.ar    1  UNL1       -0.0219
     20 C         -11.2747  -18.9596   23.8098 C.ar    1  UNL1       -0.0045
     21 C          -9.8469  -18.8868   23.3558 C.ar    1  UNL1       -0.0027
     22 C          -9.3900  -17.7446   22.4975 C.ar    1  UNL1        0.0004
     23 C         -10.3610  -16.6752   22.0931 C.ar    1  UNL1       -0.0027
     24 C         -11.7888  -16.7480   22.5470 C.ar    1  UNL1       -0.0045
@<TRIPOS>BOND
     1    18    19    1
     2    19    20   ar
     3    20    21   ar
     4    21    22   ar
     5    22    17    1
     6    17     1    1
     7     1     2   ar
     8    10     2    1
     9    10    11    1
    10    11    12    1
    11    12    13    1
    12    13    14    1
    13    14    15    1
    14     2     3   ar
    15     3     4   ar
    16     4     5   ar
    17     5     6   ar
    18     6     7   ar
    19     7     8   ar
    20     8     9   ar
    21    22    23   ar
    22    23    24   ar
    23    24    19   ar
    24     9     1   ar
    25    15    10    1
    26     9     4   ar
    27    12    16    1
@<TRIPOS>MOLECULE
*****
 24 27 0 0 0
SMALL
GASTEIGER

@<TRIPOS>ATOM
      1 N          -6.6895  -18.4497   21.6290 N.ar    1  UNL1       -0.3087
      2 C          -6.2768  -17.6138   22.8041 C.ar    1  UNL1        0.1493
      3 N          -4.8121  -17.8356   23.0392 N.ar    1  UNL1       -0.2284
      4 C          -4.3194  -18.8086   22.0093 C.ar    1  UNL1        0.0984
      5 C          -2.9642  -19.3980   21.7525 C.ar    1  UNL1        0.0206
      6 C          -2.7693  -20.3669   20.6242 C.ar    1  UNL1        0.0016
      7 C          -3.9296  -20.7464   19.7526 C.ar    1  UNL1        0.0016
      8 C          -5.2848  -20.1570   20.0094 C.ar    1  UNL1        0.0188
      9 C          -5.4797  -19.1881   21.1377 C.ar    1  UNL1        0.0789
     10 C          -7.1718  -16.7141   23.6039 C.3     1  UNL1        0.1869
     11 C          -7.1563  -15.2338   23.3625 C.3     1  UNL1        0.1064
     12 N          -8.0513  -14.3341   24.1622 N.3     1  UNL1       -0.2930
     13 C          -8.9617  -14.9147   25.2033 C.3     1  UNL1        0.1011
     14 C          -8.9772  -16.3950   25.4446 C.3     1  UNL1        0.1597
     15 O          -8.0823  -17.2947   24.6449 O.3     1  UNL1       -0.3458
     16 H          -8.6440  -13.8399   23.4952 H       1  UNL1        0.1234
     17 C          -8.0695  -18.5326   21.0472 C.3     1  UNL1        0.1340
     18 C         -12.8507  -18.6514   24.6702 C.3     1  UNL1        0.0310
     19 C         -11.6554  -18.6217   23.7644 C.ar    1  UNL1       -0.0219
     20 C         -10.6651  -19.7480   23.7923 C.ar    1  UNL1       -0.0045
     21 C          -9.4698  -19.7183   22.8866 C.ar    1  UNL1       -0.0027
     22 C          -9.2648  -18.5623   21.9529 C.ar    1  UNL1        0.0004
     23 C         -10.2551  -17.4360   21.9250 C.ar    1  UNL1       -0.0027
     24 C         -11.4504  -17.4657   22.8308 C.ar    1  UNL1       -0.0045
@<TRIPOS>BOND
     1    18    19    1
     2    19    20   ar
     3    20    21   ar
     4    21    22   ar
     5    22    17    1
     6    17     1    1
     7     1     2   ar
     8    10     2    1
     9    10    11    1
    10    11    12    1
    11    12    13    1
    12    13    14    1
    13    14    15    1
    14     2     3   ar
    15     3     4   ar
    16     4     5   ar
    17     5     6   ar
    18     6     7   ar
    19     7     8   ar
    20     8     9   ar
    21    22    23   ar
    22    23    24   ar
    23    24    19   ar
    24     9     1   ar
    25    15    10    1
    26     9     4   ar
    27    12    16    1
@<TRIPOS>MOLECULE
*****
 24 27 0 0 0
SMALL
GASTEIGER

@<TRIPOS>ATOM
      1 N          -6.4553  -18.0953   22.5737 N.ar    1  UNL1       -0.3087
      2 C          -7.8289  -17.8066   22.0447 C.ar    1  UNL1        0.1493
      3 N          -8.3488  -16.5869   22.7460 N.ar    1  UNL1       -0.2284
      4 C          -7.2965  -16.1216   23.7085 C.ar    1  UNL1        0.0984
      5 C          -7.2528  -14.9696   24.6680 C.ar    1  UNL1        0.0206
      6 C          -6.0388  -14.7498   25.5211 C.ar    1  UNL1        0.0016
      7 C          -4.8685  -15.6821   25.4147 C.ar    1  UNL1        0.0016
      8 C          -4.9123  -16.8342   24.4551 C.ar    1  UNL1        0.0188
      9 C          -6.1263  -17.0539   23.6020 C.ar    1  UNL1        0.0789
     10 C          -8.5551  -18.5987   20.9981 C.3     1  UNL1        0.1869
     11 C          -9.9900  -18.9817   21.2087 C.3     1  UNL1        0.1064
     12 N         -10.7162  -19.7737   20.1621 N.3     1  UNL1       -0.2930
     13 C         -10.0075  -20.1828   18.9050 C.3     1  UNL1        0.1011
     14 C          -8.5726  -19.7997   18.6944 C.3     1  UNL1        0.1597
     15 O          -7.8464  -19.0077   19.7410 O.3     1  UNL1       -0.3458
     16 H         -11.5221  -19.2169   19.8779 H       1  UNL1        0.1234
     17 C          -5.5667  -19.2267   22.1491 C.3     1  UNL1        0.1340
     18 C          -0.3188  -18.0797   19.4764 C.3     1  UNL1        0.0310
     19 C          -1.6308  -18.3665   20.1445 C.ar    1  UNL1       -0.0219
     20 C          -1.7272  -18.3606   21.6414 C.ar    1  UNL1       -0.0045
     21 C          -3.0391  -18.6474   22.3096 C.ar    1  UNL1       -0.0027
     22 C          -4.2548  -18.9400   21.4809 C.ar    1  UNL1        0.0004
     23 C          -4.1584  -18.9458   19.9840 C.ar    1  UNL1       -0.0027
     24 C          -2.8464  -18.6590   19.3159 C.ar    1  UNL1       -0.0045
@<TRIPOS>BOND
     1    18    19    1
     2    19    20   ar
     3    20    21   ar
     4    21    22   ar
     5    22    17    1
     6    17     1    1
     7     1     2   ar
     8    10     2    1
     9    10    11    1
    10    11    12    1
    11    12    13    1
    12    13    14    1
    13    14    15    1
    14     2     3   ar
    15     3     4   ar
    16     4     5   ar
    17     5     6   ar
    18     6     7   ar
    19     7     8   ar
    20     8     9   ar
    21    22    23   ar
    22    23    24   ar
    23    24    19   ar
    24     9     1   ar
    25    15    10    1
    26     9     4   ar
    27    12    16    1
@<TRIPOS>MOLECULE
*****
 24 27 0 0 0
SMALL
GASTEIGER

@<TRIPOS>ATOM
      1 N          -6.7658  -18.5274   22.4915 N.ar    1  UNL1       -0.3087
      2 C          -5.8660  -17.5639   23.2072 C.ar    1  UNL1        0.1493
      3 N          -4.4770  -17.7398   22.6690 N.ar    1  UNL1       -0.2284
      4 C          -4.5183  -18.8120   21.6208 C.ar    1  UNL1        0.0984
      5 C          -3.4506  -19.4080   20.7520 C.ar    1  UNL1        0.0206
      6 C          -3.7975  -20.4907   19.7736 C.ar    1  UNL1        0.0016
      7 C          -5.2120  -20.9774   19.6639 C.ar    1  UNL1        0.0016
      8 C          -6.2797  -20.3815   20.5327 C.ar    1  UNL1        0.0188
      9 C          -5.9329  -19.2988   21.5111 C.ar    1  UNL1        0.0789
     10 C          -6.2822  -16.5947   24.2737 C.3     1  UNL1        0.1869
     11 C          -5.2846  -15.6278   24.8391 C.3     1  UNL1        0.1064
     12 N          -5.7008  -14.6586   25.9056 N.3     1  UNL1       -0.2930
     13 C          -7.1146  -14.6563   26.4067 C.3     1  UNL1        0.1011
     14 C          -8.1122  -15.6233   25.8413 C.3     1  UNL1        0.1597
     15 O          -7.6960  -16.5925   24.7748 O.3     1  UNL1       -0.3458
     16 H          -5.5157  -13.7236   25.5423 H       1  UNL1        0.1234
     17 C          -8.2397  -18.6909   22.7168 C.3     1  UNL1        0.1340
     18 C         -12.1507  -15.8093   19.1954 C.3     1  UNL1        0.0310
     19 C         -11.1730  -16.5297   20.0757 C.ar    1  UNL1       -0.0219
     20 C         -10.4209  -15.7778   21.1336 C.ar    1  UNL1       -0.0045
     21 C          -9.4432  -16.4982   22.0139 C.ar    1  UNL1       -0.0027
     22 C          -9.2175  -17.9705   21.8365 C.ar    1  UNL1        0.0004
     23 C          -9.9696  -18.7224   20.7786 C.ar    1  UNL1       -0.0027
     24 C         -10.9473  -18.0020   19.8983 C.ar    1  UNL1       -0.0045
@<TRIPOS>BOND
     1    18    19    1
     2    19    20   ar
     3    20    21   ar
     4    21    22   ar
     5    22    17    1
     6    17     1    1
     7     1     2   ar
     8    10     2    1
     9    10    11    1
    10    11    12    1
    11    12    13    1
    12    13    14    1
    13    14    15    1
    14     2     3   ar
    15     3     4   ar
    16     4     5   ar
    17     5     6   ar
    18     6     7   ar
    19     7     8   ar
    20     8     9   ar
    21    22    23   ar
    22    23    24   ar
    23    24    19   ar
    24     9     1   ar
    25    15    10    1
    26     9     4   ar
    27    12    16    1
@<TRIPOS>MOLECULE
*****
 24 27 0 0 0
SMALL
GASTEIGER

@<TRIPOS>ATOM
      1 N         -13.1822   -5.1180   18.0749 N.ar    1  UNL1       -0.3087
      2 C         -12.8257   -3.8500   18.7926 C.ar    1  UNL1        0.1493
      3 N         -11.4126   -3.9750   19.2801 N.ar    1  UNL1       -0.2284
      4 C         -10.8958   -5.3202   18.8635 C.ar    1  UNL1        0.0984
      5 C          -9.5707   -5.9931   19.0663 C.ar    1  UNL1        0.0206
      6 C          -9.3393   -7.3724   18.5241 C.ar    1  UNL1        0.0016
      7 C         -10.4330   -8.0787   17.7793 C.ar    1  UNL1        0.0016
      8 C         -11.7581   -7.4058   17.5765 C.ar    1  UNL1        0.0188
      9 C         -11.9895   -6.0266   18.1187 C.ar    1  UNL1        0.0789
     10 C         -13.7244   -2.6652   18.9886 C.3     1  UNL1        0.1869
     11 C         -14.7464   -2.6724   20.0866 C.3     1  UNL1        0.1064
     12 N         -15.6451   -1.4875   20.2825 N.3     1  UNL1       -0.2930
     13 C         -15.5219   -0.2954   19.3805 C.3     1  UNL1        0.1011
     14 C         -14.4999   -0.2882   18.2826 C.3     1  UNL1        0.1597
     15 O         -13.6012   -1.4731   18.0866 O.3     1  UNL1       -0.3458
     16 H         -15.4896   -1.1542   21.2339 H       1  UNL1        0.1234
     17 C         -14.5001   -5.4237   17.4270 C.3     1  UNL1        0.1340
     18 C         -18.8365   -8.1228   20.5750 C.3     1  UNL1        0.0310
     19 C         -17.7524   -7.4480   19.7880 C.ar    1  UNL1       -0.0219
     20 C         -17.9453   -6.0439   19.2968 C.ar    1  UNL1       -0.0045
     21 C         -16.8611   -5.3691   18.5098 C.ar    1  UNL1       -0.0027
     22 C         -15.5842   -6.0984   18.2139 C.ar    1  UNL1        0.0004
     23 C         -15.3914   -7.5026   18.7051 C.ar    1  UNL1       -0.0027
     24 C         -16.4755   -8.1773   19.4921 C.ar    1  UNL1       -0.0045
@<TRIPOS>BOND
     1    18    19    1
     2    19    20   ar
     3    20    21   ar
     4    21    22   ar
     5    22    17    1
     6    17     1    1
     7     1     2   ar
     8    10     2    1
     9    10    11    1
    10    11    12    1
    11    12    13    1
    12    13    14    1
    13    14    15    1
    14     2     3   ar
    15     3     4   ar
    16     4     5   ar
    17     5     6   ar
    18     6     7   ar
    19     7     8   ar
    20     8     9   ar
    21    22    23   ar
    22    23    24   ar
    23    24    19   ar
    24     9     1   ar
    25    15    10    1
    26     9     4   ar
    27    12    16    1
@<TRIPOS>MOLECULE
*****
 24 27 0 0 0
SMALL
GASTEIGER

@<TRIPOS>ATOM
      1 N          -8.1937  -16.2999   23.4969 N.ar    1  UNL1       -0.3087
      2 C          -9.5935  -16.4813   24.0045 C.ar    1  UNL1        0.1493
      3 N          -9.5930  -16.1965   25.4772 N.ar    1  UNL1       -0.2284
      4 C          -8.1929  -15.8392   25.8798 C.ar    1  UNL1        0.0984
      5 C          -7.5937  -15.4639   27.2027 C.ar    1  UNL1        0.0206
      6 C          -6.1298  -15.1525   27.3016 C.ar    1  UNL1        0.0016
      7 C          -5.2650  -15.2164   26.0777 C.ar    1  UNL1        0.0016
      8 C          -5.8641  -15.5917   24.7548 C.ar    1  UNL1        0.0188
      9 C          -7.3281  -15.9031   24.6558 C.ar    1  UNL1        0.0789
     10 C         -10.7847  -16.8777   23.1836 C.3     1  UNL1        0.1869
     11 C         -11.6531  -18.0186   23.6242 C.3     1  UNL1        0.1064
     12 N         -12.8443  -18.4151   22.8033 N.3     1  UNL1       -0.2930
     13 C         -13.1670  -17.6707   21.5417 C.3     1  UNL1        0.1011
     14 C         -12.2986  -16.5298   21.1010 C.3     1  UNL1        0.1597
     15 O         -11.1074  -16.1334   21.9219 O.3     1  UNL1       -0.3458
     16 H         -13.6602  -18.3339   23.4100 H       1  UNL1        0.1234
     17 C          -7.7393  -16.4832   22.0792 C.3     1  UNL1        0.1340
     18 C          -5.7453  -21.8334   20.2356 C.3     1  UNL1        0.0310
     19 C          -6.2438  -20.4959   20.6965 C.ar    1  UNL1       -0.0219
     20 C          -7.4573  -19.8873   20.0585 C.ar    1  UNL1       -0.0045
     21 C          -7.9558  -18.5497   20.5194 C.ar    1  UNL1       -0.0027
     22 C          -7.2408  -17.8207   21.6183 C.ar    1  UNL1        0.0004
     23 C          -6.0273  -18.4294   22.2562 C.ar    1  UNL1       -0.0027
     24 C          -5.5288  -19.7669   21.7953 C.ar    1  UNL1       -0.0045
@<TRIPOS>BOND
     1    18    19    1
     2    19    20   ar
     3    20    21   ar
     4    21    22   ar
     5    22    17    1
     6    17     1    1
     7     1     2   ar
     8    10     2    1
     9    10    11    1
    10    11    12    1
    11    12    13    1
    12    13    14    1
    13    14    15    1
    14     2     3   ar
    15     3     4   ar
    16     4     5   ar
    17     5     6   ar
    18     6     7   ar
    19     7     8   ar
    20     8     9   ar
    21    22    23   ar
    22    23    24   ar
    23    24    19   ar
    24     9     1   ar
    25    15    10    1
    26     9     4   ar
    27    12    16    1
