@<TRIPOS>MOLECULE
*****
 38 41 0 0 0
SMALL
GASTEIGER

@<TRIPOS>ATOM
      1 C         -10.2391  -17.6212   21.9390 C.ar    1  UNL1        0.0702
      2 C         -11.7390  -17.6318   21.9380 C.ar    1  UNL1        0.1687
      3 N         -12.4822  -18.5005   20.9670 N.ar    1  UNL1       -0.1421
      4 N         -11.7255  -19.3587   19.9970 N.ar    1  UNL1       -0.1478
      5 C         -10.2255  -19.3481   19.9980 C.ar    1  UNL1        0.1041
      6 C          -9.4688  -20.2062   19.0280 C.ar    1  UNL1        0.0209
      7 C          -7.9688  -20.1956   19.0290 C.ar    1  UNL1        0.0017
      8 C          -7.2256  -19.3268   20.0000 C.ar    1  UNL1        0.0016
      9 C          -7.9823  -18.4687   20.9700 C.ar    1  UNL1        0.0029
     10 C          -9.4823  -18.4793   20.9690 C.ar    1  UNL1        0.0342
     11 C          -5.7256  -19.3162   20.0010 C.ar    1  UNL1        0.0194
     12 C          -4.9684  -20.4008   20.7083 C.ar    1  UNL1        0.0063
     13 C          -3.4684  -20.3902   20.7093 C.ar    1  UNL1        0.0577
     14 C          -2.7257  -19.2950   20.0030 C.ar    1  UNL1        0.2249
     15 N          -3.4829  -18.2103   19.2957 N.ar    1  UNL1       -0.2101
     16 C          -4.9829  -18.2210   19.2947 C.ar    1  UNL1        0.1020
     17 O          -1.2257  -19.2843   20.0040 O.3     1  UNL1       -0.4602
     18 C          -0.4846  -18.0153   19.7039 C.3     1  UNL1        0.2085
     19 C          -0.3741  -16.9459   20.7500 C.3     1  UNL1        0.0647
     20 C          -1.5985  -16.2017   21.1939 C.3     1  UNL1        0.0760
     21 N          -2.4244  -16.7270   22.3305 N.3     1  UNL1       -0.2702
     22 C          -3.6997  -16.0360   22.7129 C.3     1  UNL1        0.0897
     23 C          -1.9751  -17.9433   23.0846 C.3     1  UNL1        0.0897
     24 C         -12.4958  -16.7736   22.9080 C.2     1  UNL1        0.2635
     25 N         -13.4942  -17.3954   23.8389 N.am    1  UNL1       -0.3240
     26 O         -12.2542  -15.2938   22.9471 O.2     1  UNL1       -0.2686
     27 H         -13.6528  -18.3667   23.8132 H       1  UNL1        0.1453
     28 H         -13.9909  -16.8322   24.4755 H       1  UNL1        0.1453
     29 N          -9.4959  -16.7524   22.9101 N.pl3   1  UNL1       -0.3327
     30 H          -9.2022  -15.8523   22.6404 H       1  UNL1        0.1468
     31 C          -9.9098  -18.4680   24.8168 C.3     1  UNL1        0.0212
     32 C          -9.2001  -17.2552   24.2921 C.3     1  UNL1        0.0692
     33 C          -8.1947  -16.5451   25.1493 C.3     1  UNL1        0.0229
     34 C          -7.0033  -15.8868   24.5190 C.3     1  UNL1        0.0338
     35 C          -5.9979  -15.1767   25.3762 C.3     1  UNL1        0.1422
     36 O          -6.1838  -15.1248   26.8637 O.3     1  UNL1       -0.3538
     37 C          -7.3752  -15.7831   27.4941 C.3     1  UNL1        0.1422
     38 C          -8.3806  -16.4932   26.6369 C.3     1  UNL1        0.0338
@<TRIPOS>BOND
     1    32    31    1
     2    32    29    1
     3    29     1    1
     4     1     2   ar
     5     2    24    1
     6    24    25   am
     7    24    26    2
     8     2     3   ar
     9     3     4   ar
    10     4     5   ar
    11     5     6   ar
    12     6     7   ar
    13     7     8   ar
    14     8    11    1
    15    11    12   ar
    16    12    13   ar
    17    13    14   ar
    18    14    17    1
    19    17    18    1
    20    18    19    1
    21    19    20    1
    22    20    21    1
    23    21    22    1
    24    21    23    1
    25    14    15   ar
    26    15    16   ar
    27     8     9   ar
    28     9    10   ar
    29    32    33    1
    30    33    34    1
    31    34    35    1
    32    35    36    1
    33    36    37    1
    34    37    38    1
    35    10     1   ar
    36    38    33    1
    37    10     5   ar
    38    16    11   ar
    39    29    30    1
    40    25    27    1
    41    25    28    1
@<TRIPOS>MOLECULE
*****
 38 41 0 0 0
SMALL
GASTEIGER

@<TRIPOS>ATOM
      1 C         -10.4400  -17.7627   22.2295 C.ar    1  UNL1        0.0702
      2 C         -11.9041  -17.5604   21.9735 C.ar    1  UNL1        0.1687
      3 N         -12.5292  -18.1051   20.7236 N.ar    1  UNL1       -0.1421
      4 N         -11.6903  -18.8522   19.7295 N.ar    1  UNL1       -0.1478
      5 C         -10.2262  -19.0546   19.9855 C.ar    1  UNL1        0.1041
      6 C          -9.3873  -19.8016   18.9915 C.ar    1  UNL1        0.0209
      7 C          -7.9233  -20.0039   19.2474 C.ar    1  UNL1        0.0017
      8 C          -7.2981  -19.4592   20.4974 C.ar    1  UNL1        0.0016
      9 C          -8.1370  -18.7121   21.4914 C.ar    1  UNL1        0.0029
     10 C          -9.6010  -18.5098   21.2354 C.ar    1  UNL1        0.0342
     11 C          -5.8339  -19.6615   20.7533 C.ar    1  UNL1        0.0194
     12 C          -4.9864  -20.3709   19.7393 C.ar    1  UNL1        0.0063
     13 C          -3.5222  -20.5733   19.9952 C.ar    1  UNL1        0.0577
     14 C          -2.9057  -20.0662   21.2652 C.ar    1  UNL1        0.2249
     15 N          -3.7534  -19.3567   22.2792 N.ar    1  UNL1       -0.2101
     16 C          -5.2175  -19.1544   22.0233 C.ar    1  UNL1        0.1020
     17 O          -1.4417  -20.2685   21.5211 O.3     1  UNL1       -0.4602
     18 C          -0.5021  -19.1006   21.4650 C.3     1  UNL1        0.2085
     19 C          -0.2004  -18.4432   20.1508 C.3     1  UNL1        0.0647
     20 C          -0.7584  -17.0847   19.8461 C.3     1  UNL1        0.0760
     21 N          -2.1637  -16.7444   20.2453 N.3     1  UNL1       -0.2702
     22 C          -3.2977  -17.0140   19.3011 C.3     1  UNL1        0.0897
     23 C          -2.4350  -16.1344   21.5885 C.3     1  UNL1        0.0897
     24 C         -12.7430  -16.8133   22.9676 C.2     1  UNL1        0.2635
     25 N         -13.6949  -17.5582   23.8558 N.am    1  UNL1       -0.3240
     26 O         -12.6301  -15.3213   23.0733 O.2     1  UNL1       -0.2686
     27 H         -13.7691  -18.5374   23.7864 H       1  UNL1        0.1453
     28 H         -14.2456  -17.0679   24.5082 H       1  UNL1        0.1453
     29 N          -9.8148  -17.2179   23.4794 N.pl3   1  UNL1       -0.3327
     30 H         -10.0768  -17.5773   24.3578 H       1  UNL1        0.1468
     31 C          -8.6486  -15.3310   22.1269 C.3     1  UNL1        0.0212
     32 C          -8.7905  -16.1257   23.3911 C.3     1  UNL1        0.0692
     33 C          -7.9082  -15.8280   24.5671 C.3     1  UNL1        0.0229
     34 C          -8.4910  -15.7779   25.9483 C.3     1  UNL1        0.0338
     35 C          -7.6086  -15.4803   27.1243 C.3     1  UNL1        0.1422
     36 O          -6.1435  -15.2328   26.9190 O.3     1  UNL1       -0.3538
     37 C          -5.5607  -15.2830   25.5378 C.3     1  UNL1        0.1422
     38 C          -6.4430  -15.5806   24.3618 C.3     1  UNL1        0.0338
@<TRIPOS>BOND
     1    32    31    1
     2    32    29    1
     3    29     1    1
     4     1     2   ar
     5     2    24    1
     6    24    25   am
     7    24    26    2
     8     2     3   ar
     9     3     4   ar
    10     4     5   ar
    11     5     6   ar
    12     6     7   ar
    13     7     8   ar
    14     8    11    1
    15    11    12   ar
    16    12    13   ar
    17    13    14   ar
    18    14    17    1
    19    17    18    1
    20    18    19    1
    21    19    20    1
    22    20    21    1
    23    21    22    1
    24    21    23    1
    25    14    15   ar
    26    15    16   ar
    27     8     9   ar
    28     9    10   ar
    29    32    33    1
    30    33    34    1
    31    34    35    1
    32    35    36    1
    33    36    37    1
    34    37    38    1
    35    10     1   ar
    36    38    33    1
    37    10     5   ar
    38    16    11   ar
    39    29    30    1
    40    25    27    1
    41    25    28    1
@<TRIPOS>MOLECULE
*****
 38 41 0 0 0
SMALL
GASTEIGER

@<TRIPOS>ATOM
      1 C           3.6819   -1.9028   20.3337 C.ar    1  UNL1        0.0702
      2 C           4.8065   -2.8811   20.1651 C.ar    1  UNL1        0.1687
      3 N           5.6713   -3.2389   21.3373 N.ar    1  UNL1       -0.1421
      4 N           5.4116   -2.6185   22.6780 N.ar    1  UNL1       -0.1478
      5 C           4.2870   -1.6403   22.8467 C.ar    1  UNL1        0.1041
      6 C           4.0273   -1.0199   24.1874 C.ar    1  UNL1        0.0209
      7 C           2.9027   -0.0417   24.3560 C.ar    1  UNL1        0.0017
      8 C           2.0379    0.3161   23.1838 C.ar    1  UNL1        0.0016
      9 C           2.2976   -0.3042   21.8431 C.ar    1  UNL1        0.0029
     10 C           3.4222   -1.2824   21.6745 C.ar    1  UNL1        0.0342
     11 C           0.9133    1.2944   23.3524 C.ar    1  UNL1        0.0194
     12 C           0.3032    1.5098   24.7057 C.ar    1  UNL1        0.0063
     13 C          -0.8214    2.4880   24.8743 C.ar    1  UNL1        0.0577
     14 C          -1.3358    3.2509   23.6896 C.ar    1  UNL1        0.2249
     15 N          -0.7256    3.0355   22.3363 N.ar    1  UNL1       -0.2101
     16 C           0.3989    2.0573   22.1678 C.ar    1  UNL1        0.1020
     17 O          -2.4603    4.2291   23.8582 O.3     1  UNL1       -0.4602
     18 C          -3.8114    3.9253   23.2819 C.3     1  UNL1        0.2085
     19 C          -4.8873    3.3506   24.1550 C.3     1  UNL1        0.0647
     20 C          -5.7242    4.2566   25.0086 C.3     1  UNL1        0.0760
     21 N          -5.2062    4.7263   26.3356 N.3     1  UNL1       -0.2702
     22 C          -3.9915    4.0836   26.9368 C.3     1  UNL1        0.0897
     23 C          -5.9030    5.8388   27.0615 C.3     1  UNL1        0.0897
     24 C           5.0662   -3.5015   18.8243 C.2     1  UNL1        0.2635
     25 N           4.3275   -4.7414   18.4159 N.am    1  UNL1       -0.3240
     26 O           6.0647   -2.8819   17.8920 O.2     1  UNL1       -0.2686
     27 H           3.6722   -5.1481   19.0278 H       1  UNL1        0.1453
     28 H           4.4980   -5.1486   17.5359 H       1  UNL1        0.1453
     29 N           2.8171   -1.5450   19.1615 N.pl3   1  UNL1       -0.3327
     30 H           2.0257   -2.0906   18.9489 H       1  UNL1        0.1468
     31 C           4.1434   -0.4931   17.1906 C.3     1  UNL1        0.0212
     32 C           3.1581   -0.3558   18.3132 C.3     1  UNL1        0.0692
     33 C           2.5137    0.9707   18.5876 C.3     1  UNL1        0.0229
     34 C           1.0531    1.1670   18.3084 C.3     1  UNL1        0.0338
     35 C           0.4088    2.4935   18.5827 C.3     1  UNL1        0.1422
     36 O           1.2250    3.6236   19.1363 O.3     1  UNL1       -0.3538
     37 C           2.6857    3.4273   19.4155 C.3     1  UNL1        0.1422
     38 C           3.3301    2.1009   19.1411 C.3     1  UNL1        0.0338
@<TRIPOS>BOND
     1    32    31    1
     2    32    29    1
     3    29     1    1
     4     1     2   ar
     5     2    24    1
     6    24    25   am
     7    24    26    2
     8     2     3   ar
     9     3     4   ar
    10     4     5   ar
    11     5     6   ar
    12     6     7   ar
    13     7     8   ar
    14     8    11    1
    15    11    12   ar
    16    12    13   ar
    17    13    14   ar
    18    14    17    1
    19    17    18    1
    20    18    19    1
    21    19    20    1
    22    20    21    1
    23    21    22    1
    24    21    23    1
    25    14    15   ar
    26    15    16   ar
    27     8     9   ar
    28     9    10   ar
    29    32    33    1
    30    33    34    1
    31    34    35    1
    32    35    36    1
    33    36    37    1
    34    37    38    1
    35    10     1   ar
    36    38    33    1
    37    10     5   ar
    38    16    11   ar
    39    29    30    1
    40    25    27    1
    41    25    28    1
@<TRIPOS>MOLECULE
*****
 38 41 0 0 0
SMALL
GASTEIGER

@<TRIPOS>ATOM
      1 C           3.7217   -1.7962   20.3146 C.ar    1  UNL1        0.0702
      2 C           4.7951   -2.8326   20.1609 C.ar    1  UNL1        0.1687
      3 N           5.5499   -3.3148   21.3641 N.ar    1  UNL1       -0.1421
      4 N           5.2312   -2.7607   22.7211 N.ar    1  UNL1       -0.1478
      5 C           4.1577   -1.7243   22.8749 C.ar    1  UNL1        0.1041
      6 C           3.8390   -1.1703   24.2318 C.ar    1  UNL1        0.0209
      7 C           2.7656   -0.1339   24.3856 C.ar    1  UNL1        0.0017
      8 C           2.0108    0.3483   23.1823 C.ar    1  UNL1        0.0016
      9 C           2.3295   -0.2057   21.8254 C.ar    1  UNL1        0.0029
     10 C           3.4030   -1.2421   21.6716 C.ar    1  UNL1        0.0342
     11 C           0.9373    1.3847   23.3361 C.ar    1  UNL1        0.0194
     12 C           0.2932    1.6047   24.6728 C.ar    1  UNL1        0.0063
     13 C          -0.7803    2.6411   24.8266 C.ar    1  UNL1        0.0577
     14 C          -1.2096    3.4575   23.6437 C.ar    1  UNL1        0.2249
     15 N          -0.5654    3.2374   22.3070 N.ar    1  UNL1       -0.2101
     16 C           0.5081    2.2011   22.1532 C.ar    1  UNL1        0.1020
     17 O          -2.2830    4.4938   23.7974 O.3     1  UNL1       -0.4602
     18 C          -3.5883    4.1317   24.4415 C.3     1  UNL1        0.2085
     19 C          -4.4734    3.0966   23.8127 C.3     1  UNL1        0.0647
     20 C          -5.3249    3.4555   22.6312 C.3     1  UNL1        0.0760
     21 N          -4.6997    4.0759   21.4171 N.3     1  UNL1       -0.2702
     22 C          -5.0246    5.4929   21.0473 C.3     1  UNL1        0.0897
     23 C          -3.7497    3.2794   20.5726 C.3     1  UNL1        0.0897
     24 C           5.1139   -3.3867   18.8039 C.2     1  UNL1        0.2635
     25 N           4.4189   -4.6234   18.3166 N.am    1  UNL1       -0.3240
     26 O           6.1276   -2.7040   17.9342 O.2     1  UNL1       -0.2686
     27 H           3.7536   -5.0715   18.8874 H       1  UNL1        0.1453
     28 H           4.6281   -4.9871   17.4260 H       1  UNL1        0.1453
     29 N           2.9669   -1.3140   19.1114 N.pl3   1  UNL1       -0.3327
     30 H           2.2067   -1.8353   18.7656 H       1  UNL1        0.1468
     31 C           4.6134    0.0067   17.5964 C.3     1  UNL1        0.0212
     32 C           3.3705   -0.0373   18.4350 C.3     1  UNL1        0.0692
     33 C           2.5311    1.1952   18.5971 C.3     1  UNL1        0.0229
     34 C           1.0494    1.1283   18.3735 C.3     1  UNL1        0.0338
     35 C           0.2100    2.3608   18.5357 C.3     1  UNL1        0.1422
     36 O           0.8523    3.6602   18.9215 O.3     1  UNL1       -0.3538
     37 C           2.3341    3.7272   19.1452 C.3     1  UNL1        0.1422
     38 C           3.1735    2.4947   18.9830 C.3     1  UNL1        0.0338
@<TRIPOS>BOND
     1    32    31    1
     2    32    29    1
     3    29     1    1
     4     1     2   ar
     5     2    24    1
     6    24    25   am
     7    24    26    2
     8     2     3   ar
     9     3     4   ar
    10     4     5   ar
    11     5     6   ar
    12     6     7   ar
    13     7     8   ar
    14     8    11    1
    15    11    12   ar
    16    12    13   ar
    17    13    14   ar
    18    14    17    1
    19    17    18    1
    20    18    19    1
    21    19    20    1
    22    20    21    1
    23    21    22    1
    24    21    23    1
    25    14    15   ar
    26    15    16   ar
    27     8     9   ar
    28     9    10   ar
    29    32    33    1
    30    33    34    1
    31    34    35    1
    32    35    36    1
    33    36    37    1
    34    37    38    1
    35    10     1   ar
    36    38    33    1
    37    10     5   ar
    38    16    11   ar
    39    29    30    1
    40    25    27    1
    41    25    28    1
@<TRIPOS>MOLECULE
*****
 38 41 0 0 0
SMALL
GASTEIGER

@<TRIPOS>ATOM
      1 C           7.6354   -4.2639   23.0412 C.ar    1  UNL1        0.0702
      2 C           7.9340   -4.6778   21.6307 C.ar    1  UNL1        0.1687
      3 N           8.4256   -6.0658   21.3445 N.ar    1  UNL1       -0.1421
      4 N           8.6186   -7.0398   22.4687 N.ar    1  UNL1       -0.1478
      5 C           8.3200   -6.6259   23.8793 C.ar    1  UNL1        0.1041
      6 C           8.5129   -7.6000   25.0035 C.ar    1  UNL1        0.0209
      7 C           8.2143   -7.1861   26.4140 C.ar    1  UNL1        0.0017
      8 C           7.7227   -5.7981   26.7002 C.ar    1  UNL1        0.0016
      9 C           7.5298   -4.8241   25.5760 C.ar    1  UNL1        0.0029
     10 C           7.8284   -5.2380   24.1655 C.ar    1  UNL1        0.0342
     11 C           7.4241   -5.3843   28.1108 C.ar    1  UNL1        0.0194
     12 C           6.8037   -4.0463   28.3844 C.ar    1  UNL1        0.0063
     13 C           6.5051   -3.6325   29.7950 C.ar    1  UNL1        0.0577
     14 C           6.8270   -4.5566   30.9318 C.ar    1  UNL1        0.2249
     15 N           7.4474   -5.8946   30.6581 N.ar    1  UNL1       -0.2101
     16 C           7.7460   -6.3084   29.2476 C.ar    1  UNL1        0.1020
     17 O           6.5284   -4.1428   32.3423 O.3     1  UNL1       -0.4602
     18 C           6.0441   -2.7525   32.6295 C.3     1  UNL1        0.2085
     19 C           4.6158   -2.5228   33.0262 C.3     1  UNL1        0.0647
     20 C           4.1625   -1.1533   33.4372 C.3     1  UNL1        0.0760
     21 N           3.3830   -0.3024   32.4790 N.3     1  UNL1       -0.2702
     22 C           2.9516    1.0770   32.8807 C.3     1  UNL1        0.0897
     23 C           3.0348   -0.8307   31.1190 C.3     1  UNL1        0.0897
     24 C           7.7410   -3.7037   20.5064 C.2     1  UNL1        0.2635
     25 N           8.8822   -2.8393   20.0588 N.am    1  UNL1       -0.3240
     26 O           6.4068   -3.5942   19.8297 O.2     1  UNL1       -0.2686
     27 H           9.7579   -2.9112   20.5030 H       1  UNL1        0.1453
     28 H           8.7556   -2.2000   19.3209 H       1  UNL1        0.1453
     29 N           7.1438   -2.8760   23.3274 N.pl3   1  UNL1       -0.3327
     30 H           7.7735   -2.1192   23.3189 H       1  UNL1        0.1468
     31 C           4.6379   -3.2831   22.7753 C.3     1  UNL1        0.0212
     32 C           5.6928   -2.6410   23.6267 C.3     1  UNL1        0.0692
     33 C           5.2968   -1.7640   24.7774 C.3     1  UNL1        0.0229
     34 C           6.3128   -1.3796   25.8117 C.3     1  UNL1        0.0338
     35 C           5.9167   -0.5026   26.9624 C.3     1  UNL1        0.1422
     36 O           4.5047   -0.0101   27.0787 O.3     1  UNL1       -0.3538
     37 C           3.4887   -0.3945   26.0443 C.3     1  UNL1        0.1422
     38 C           3.8847   -1.2715   24.8936 C.3     1  UNL1        0.0338
@<TRIPOS>BOND
     1    32    31    1
     2    32    29    1
     3    29     1    1
     4     1     2   ar
     5     2    24    1
     6    24    25   am
     7    24    26    2
     8     2     3   ar
     9     3     4   ar
    10     4     5   ar
    11     5     6   ar
    12     6     7   ar
    13     7     8   ar
    14     8    11    1
    15    11    12   ar
    16    12    13   ar
    17    13    14   ar
    18    14    17    1
    19    17    18    1
    20    18    19    1
    21    19    20    1
    22    20    21    1
    23    21    22    1
    24    21    23    1
    25    14    15   ar
    26    15    16   ar
    27     8     9   ar
    28     9    10   ar
    29    32    33    1
    30    33    34    1
    31    34    35    1
    32    35    36    1
    33    36    37    1
    34    37    38    1
    35    10     1   ar
    36    38    33    1
    37    10     5   ar
    38    16    11   ar
    39    29    30    1
    40    25    27    1
    41    25    28    1
@<TRIPOS>MOLECULE
*****
 38 41 0 0 0
SMALL
GASTEIGER

@<TRIPOS>ATOM
      1 C           5.8604   -3.5789   23.6117 C.ar    1  UNL1        0.0702
      2 C           6.9816   -4.5736   23.5512 C.ar    1  UNL1        0.1687
      3 N           7.4524   -5.0933   22.2252 N.ar    1  UNL1       -0.1421
      4 N           6.8022   -4.6183   20.9597 N.ar    1  UNL1       -0.1478
      5 C           5.6810   -3.6236   21.0202 C.ar    1  UNL1        0.1041
      6 C           5.0307   -3.1487   19.7547 C.ar    1  UNL1        0.0209
      7 C           3.9096   -2.1540   19.8152 C.ar    1  UNL1        0.0017
      8 C           3.4387   -1.6344   21.1411 C.ar    1  UNL1        0.0016
      9 C           4.0890   -2.1093   22.4066 C.ar    1  UNL1        0.0029
     10 C           5.2101   -3.1039   22.3461 C.ar    1  UNL1        0.0342
     11 C           2.3175   -0.6397   21.2016 C.ar    1  UNL1        0.0194
     12 C           2.2858    0.3893   22.2925 C.ar    1  UNL1        0.0063
     13 C           1.1646    1.3840   22.3529 C.ar    1  UNL1        0.0577
     14 C           0.0751    1.3497   21.3224 C.ar    1  UNL1        0.2249
     15 N           0.1069    0.3206   20.2314 N.ar    1  UNL1       -0.2101
     16 C           1.2281   -0.6740   20.1710 C.ar    1  UNL1        0.1020
     17 O          -1.0460    2.3443   21.3828 O.3     1  UNL1       -0.4602
     18 C          -0.9405    3.5395   22.2828 C.3     1  UNL1        0.2085
     19 C          -1.6385    3.5426   23.6106 C.3     1  UNL1        0.0647
     20 C          -2.8611    4.3876   23.8133 C.3     1  UNL1        0.0760
     21 N          -4.2210    3.7551   23.7976 N.3     1  UNL1       -0.2702
     22 C          -4.7805    3.2113   22.5164 C.3     1  UNL1        0.0897
     23 C          -5.0216    3.6663   25.0629 C.3     1  UNL1        0.0897
     24 C           7.6319   -5.0486   24.8167 C.2     1  UNL1        0.2635
     25 N           9.1274   -5.0615   24.9324 N.am    1  UNL1       -0.3240
     26 O           6.7867   -5.5107   25.9666 O.2     1  UNL1       -0.2686
     27 H           9.6821   -4.7582   24.1777 H       1  UNL1        0.1453
     28 H           9.5542   -5.3732   25.7630 H       1  UNL1        0.1453
     29 N           5.3896   -3.0592   24.9377 N.pl3   1  UNL1       -0.3327
     30 H           4.7525   -3.5843   25.4741 H       1  UNL1        0.1468
     31 C           7.2936   -1.6166   25.9593 C.3     1  UNL1        0.0212
     32 C           5.8894   -1.7396   25.4463 C.3     1  UNL1        0.0692
     33 C           4.9850   -0.5429   25.4420 C.3     1  UNL1        0.0229
     34 C           5.4306    0.7316   24.7886 C.3     1  UNL1        0.0338
     35 C           4.5262    1.9283   24.7843 C.3     1  UNL1        0.1422
     36 O           3.1762    1.8505   25.4334 O.3     1  UNL1       -0.3538
     37 C           2.7305    0.5759   26.0868 C.3     1  UNL1        0.1422
     38 C           3.6349   -0.6208   26.0912 C.3     1  UNL1        0.0338
@<TRIPOS>BOND
     1    32    31    1
     2    32    29    1
     3    29     1    1
     4     1     2   ar
     5     2    24    1
     6    24    25   am
     7    24    26    2
     8     2     3   ar
     9     3     4   ar
    10     4     5   ar
    11     5     6   ar
    12     6     7   ar
    13     7     8   ar
    14     8    11    1
    15    11    12   ar
    16    12    13   ar
    17    13    14   ar
    18    14    17    1
    19    17    18    1
    20    18    19    1
    21    19    20    1
    22    20    21    1
    23    21    22    1
    24    21    23    1
    25    14    15   ar
    26    15    16   ar
    27     8     9   ar
    28     9    10   ar
    29    32    33    1
    30    33    34    1
    31    34    35    1
    32    35    36    1
    33    36    37    1
    34    37    38    1
    35    10     1   ar
    36    38    33    1
    37    10     5   ar
    38    16    11   ar
    39    29    30    1
    40    25    27    1
    41    25    28    1
@<TRIPOS>MOLECULE
*****
 38 41 0 0 0
SMALL
GASTEIGER

@<TRIPOS>ATOM
      1 C           3.6271   -1.4645   19.9201 C.ar    1  UNL1        0.0702
      2 C           4.1891   -1.8648   18.5882 C.ar    1  UNL1        0.1687
      3 N           3.7717   -1.1327   17.3474 N.ar    1  UNL1       -0.1421
      4 N           2.7923   -0.0003   17.4384 N.ar    1  UNL1       -0.1478
      5 C           2.2303    0.4001   18.7703 C.ar    1  UNL1        0.1041
      6 C           1.2509    1.5325   18.8612 C.ar    1  UNL1        0.0209
      7 C           0.6889    1.9329   20.1931 C.ar    1  UNL1        0.0017
      8 C           1.1063    1.2007   21.4340 C.ar    1  UNL1        0.0016
      9 C           2.0857    0.0683   21.3430 C.ar    1  UNL1        0.0029
     10 C           2.6477   -0.3320   20.0111 C.ar    1  UNL1        0.0342
     11 C           0.5442    1.6011   22.7659 C.ar    1  UNL1        0.0194
     12 C           0.9337    0.8458   24.0019 C.ar    1  UNL1        0.0063
     13 C           0.3716    1.2462   25.3338 C.ar    1  UNL1        0.0577
     14 C          -0.5798    2.4018   25.4296 C.ar    1  UNL1        0.2249
     15 N          -0.9692    3.1571   24.1935 N.ar    1  UNL1       -0.2101
     16 C          -0.4072    2.7567   22.8616 C.ar    1  UNL1        0.1020
     17 O          -1.1419    2.8022   26.7614 O.3     1  UNL1       -0.4602
     18 C          -0.3130    3.6147   27.7116 C.3     1  UNL1        0.2085
     19 C           0.7601    2.9536   28.5248 C.3     1  UNL1        0.0647
     20 C           0.4094    1.8380   29.4642 C.3     1  UNL1        0.0760
     21 N           0.3630    0.4242   28.9654 N.3     1  UNL1       -0.2702
     22 C           1.6335   -0.3575   28.8074 C.3     1  UNL1        0.0897
     23 C          -0.9538   -0.2081   28.6245 C.3     1  UNL1        0.0897
     24 C           5.1685   -2.9973   18.4972 C.2     1  UNL1        0.2635
     25 N           4.6774   -4.4146   18.4854 N.am    1  UNL1       -0.3240
     26 O           6.6391   -2.7125   18.4179 O.2     1  UNL1       -0.2686
     27 H           3.7122   -4.6015   18.5374 H       1  UNL1        0.1453
     28 H           5.3202   -5.1578   18.4257 H       1  UNL1        0.1453
     29 N           4.0445   -2.1967   21.1610 N.pl3   1  UNL1       -0.3327
     30 H           3.6189   -3.0534   21.3937 H       1  UNL1        0.1468
     31 C           6.5539   -1.7425   21.6575 C.3     1  UNL1        0.0212
     32 C           5.1104   -1.6235   22.0472 C.3     1  UNL1        0.0692
     33 C           4.7326   -0.9313   23.3232 C.3     1  UNL1        0.0229
     34 C           4.1172   -1.7122   24.4463 C.3     1  UNL1        0.0338
     35 C           3.7394   -1.0200   25.7223 C.3     1  UNL1        0.1422
     36 O           3.9771    0.4531   25.8752 O.3     1  UNL1       -0.3538
     37 C           4.5926    1.2341   24.7521 C.3     1  UNL1        0.1422
     38 C           4.9704    0.5419   23.4761 C.3     1  UNL1        0.0338
@<TRIPOS>BOND
     1    32    31    1
     2    32    29    1
     3    29     1    1
     4     1     2   ar
     5     2    24    1
     6    24    25   am
     7    24    26    2
     8     2     3   ar
     9     3     4   ar
    10     4     5   ar
    11     5     6   ar
    12     6     7   ar
    13     7     8   ar
    14     8    11    1
    15    11    12   ar
    16    12    13   ar
    17    13    14   ar
    18    14    17    1
    19    17    18    1
    20    18    19    1
    21    19    20    1
    22    20    21    1
    23    21    22    1
    24    21    23    1
    25    14    15   ar
    26    15    16   ar
    27     8     9   ar
    28     9    10   ar
    29    32    33    1
    30    33    34    1
    31    34    35    1
    32    35    36    1
    33    36    37    1
    34    37    38    1
    35    10     1   ar
    36    38    33    1
    37    10     5   ar
    38    16    11   ar
    39    29    30    1
    40    25    27    1
    41    25    28    1
@<TRIPOS>MOLECULE
*****
 38 41 0 0 0
SMALL
GASTEIGER

@<TRIPOS>ATOM
      1 C           3.7797   -2.1786   20.4069 C.ar    1  UNL1        0.0702
      2 C           4.7773   -3.2789   20.1968 C.ar    1  UNL1        0.1687
      3 N           5.5438   -3.8291   21.3629 N.ar    1  UNL1       -0.1421
      4 N           5.3128   -3.2789   22.7391 N.ar    1  UNL1       -0.1478
      5 C           4.3153   -2.1785   22.9492 C.ar    1  UNL1        0.1041
      6 C           4.0843   -1.6284   24.3254 C.ar    1  UNL1        0.0209
      7 C           3.0868   -0.5280   24.5355 C.ar    1  UNL1        0.0017
      8 C           2.3202    0.0221   23.3694 C.ar    1  UNL1        0.0016
      9 C           2.5512   -0.5280   21.9933 C.ar    1  UNL1        0.0029
     10 C           3.5487   -1.6284   21.7832 C.ar    1  UNL1        0.0342
     11 C           1.3227    1.1225   23.5796 C.ar    1  UNL1        0.0194
     12 C           0.4806    1.1445   24.8207 C.ar    1  UNL1        0.0063
     13 C          -0.5170    2.2449   25.0308 C.ar    1  UNL1        0.0577
     14 C          -0.6724    3.3233   23.9999 C.ar    1  UNL1        0.2249
     15 N           0.1698    3.3013   22.7587 N.ar    1  UNL1       -0.2101
     16 C           1.1673    2.2009   22.5486 C.ar    1  UNL1        0.1020
     17 O          -1.6699    4.4236   24.2100 O.3     1  UNL1       -0.4602
     18 C          -2.7266    4.6850   23.1781 C.3     1  UNL1        0.2085
     19 C          -3.4965    3.5415   22.5866 C.3     1  UNL1        0.0647
     20 C          -4.9017    3.2711   23.0362 C.3     1  UNL1        0.0760
     21 N          -6.0531    3.9290   22.3353 N.3     1  UNL1       -0.2702
     22 C          -7.2618    4.3543   23.1152 C.3     1  UNL1        0.0897
     23 C          -5.9959    4.1616   20.8546 C.3     1  UNL1        0.0897
     24 C           5.0083   -3.8291   18.8206 C.2     1  UNL1        0.2635
     25 N           4.5421   -5.2131   18.4782 N.am    1  UNL1       -0.3240
     26 O           5.7055   -2.9953   17.7868 O.2     1  UNL1       -0.2686
     27 H           4.0845   -5.7604   19.1567 H       1  UNL1        0.1453
     28 H           4.6937   -5.5742   17.5749 H       1  UNL1        0.1453
     29 N           3.0132   -1.6284   19.2408 N.pl3   1  UNL1       -0.3327
     30 H           2.3388   -2.1850   18.7884 H       1  UNL1        0.1468
     31 C           2.1324    0.7252   18.5813 C.3     1  UNL1        0.0212
     32 C           3.2742   -0.2303   18.7642 C.3     1  UNL1        0.0692
     33 C           4.6769    0.2124   18.4704 C.3     1  UNL1        0.0229
     34 C           5.5467    0.7316   19.5766 C.3     1  UNL1        0.0338
     35 C           6.9495    1.1743   19.2828 C.3     1  UNL1        0.1422
     36 O           7.4825    1.0977   17.8828 O.3     1  UNL1       -0.3538
     37 C           6.6126    0.5784   16.7765 C.3     1  UNL1        0.1422
     38 C           5.2099    0.1358   17.0703 C.3     1  UNL1        0.0338
@<TRIPOS>BOND
     1    32    31    1
     2    32    29    1
     3    29     1    1
     4     1     2   ar
     5     2    24    1
     6    24    25   am
     7    24    26    2
     8     2     3   ar
     9     3     4   ar
    10     4     5   ar
    11     5     6   ar
    12     6     7   ar
    13     7     8   ar
    14     8    11    1
    15    11    12   ar
    16    12    13   ar
    17    13    14   ar
    18    14    17    1
    19    17    18    1
    20    18    19    1
    21    19    20    1
    22    20    21    1
    23    21    22    1
    24    21    23    1
    25    14    15   ar
    26    15    16   ar
    27     8     9   ar
    28     9    10   ar
    29    32    33    1
    30    33    34    1
    31    34    35    1
    32    35    36    1
    33    36    37    1
    34    37    38    1
    35    10     1   ar
    36    38    33    1
    37    10     5   ar
    38    16    11   ar
    39    29    30    1
    40    25    27    1
    41    25    28    1
@<TRIPOS>MOLECULE
*****
 38 41 0 0 0
SMALL
GASTEIGER

@<TRIPOS>ATOM
      1 C           7.1471   -4.9465   28.7258 C.ar    1  UNL1        0.0702
      2 C           7.5125   -5.5134   30.0655 C.ar    1  UNL1        0.1687
      3 N           8.4377   -6.6908   30.1546 N.ar    1  UNL1       -0.1421
      4 N           8.9974   -7.3011   28.9040 N.ar    1  UNL1       -0.1478
      5 C           8.6320   -6.7341   27.5642 C.ar    1  UNL1        0.1041
      6 C           9.1917   -7.3445   26.3135 C.ar    1  UNL1        0.0209
      7 C           8.8262   -6.7775   24.9738 C.ar    1  UNL1        0.0017
      8 C           7.9010   -5.6002   24.8847 C.ar    1  UNL1        0.0016
      9 C           7.3413   -4.9898   26.1353 C.ar    1  UNL1        0.0029
     10 C           7.7068   -5.5568   27.4751 C.ar    1  UNL1        0.0342
     11 C           7.5356   -5.0332   23.5449 C.ar    1  UNL1        0.0194
     12 C           6.3721   -4.0948   23.4197 C.ar    1  UNL1        0.0063
     13 C           6.0066   -3.5278   22.0798 C.ar    1  UNL1        0.0577
     14 C           6.8047   -3.8993   20.8653 C.ar    1  UNL1        0.2249
     15 N           7.9682   -4.8377   20.9906 N.ar    1  UNL1       -0.2101
     16 C           8.3336   -5.4047   22.3303 C.ar    1  UNL1        0.1020
     17 O           6.4393   -3.3324   19.5255 O.3     1  UNL1       -0.4602
     18 C           5.5362   -2.1380   19.4376 C.3     1  UNL1        0.2085
     19 C           4.1441   -2.2883   18.8994 C.3     1  UNL1        0.0647
     20 C           2.9653   -1.9555   19.7651 C.3     1  UNL1        0.0760
     21 N           2.2067   -0.6809   19.5416 N.3     1  UNL1       -0.2702
     22 C           1.0597   -0.3234   20.4398 C.3     1  UNL1        0.0897
     23 C           2.5951    0.2362   18.4200 C.3     1  UNL1        0.0897
     24 C           6.9528   -4.9031   31.3163 C.2     1  UNL1        0.2635
     25 N           6.5789   -5.7784   32.4756 N.am    1  UNL1       -0.3240
     26 O           6.7671   -3.4174   31.4076 O.2     1  UNL1       -0.2686
     27 H           6.7008   -6.7534   32.4156 H       1  UNL1        0.1453
     28 H           6.2116   -5.3778   33.2964 H       1  UNL1        0.1453
     29 N           6.2219   -3.7691   28.6367 N.pl3   1  UNL1       -0.3327
     30 H           5.2953   -3.8456   28.9606 H       1  UNL1        0.1468
     31 C           8.0182   -1.8970   28.5015 C.3     1  UNL1        0.0212
     32 C           6.7085   -2.4753   28.0542 C.3     1  UNL1        0.0692
     33 C           5.8853   -1.7598   27.0244 C.3     1  UNL1        0.0229
     34 C           6.5292   -1.2576   25.7662 C.3     1  UNL1        0.0338
     35 C           5.7060   -0.5421   24.7364 C.3     1  UNL1        0.1422
     36 O           4.2389   -0.3289   24.9649 O.3     1  UNL1       -0.3538
     37 C           3.5950   -0.8311   26.2231 C.3     1  UNL1        0.1422
     38 C           4.4182   -1.5466   27.2529 C.3     1  UNL1        0.0338
@<TRIPOS>BOND
     1    32    31    1
     2    32    29    1
     3    29     1    1
     4     1     2   ar
     5     2    24    1
     6    24    25   am
     7    24    26    2
     8     2     3   ar
     9     3     4   ar
    10     4     5   ar
    11     5     6   ar
    12     6     7   ar
    13     7     8   ar
    14     8    11    1
    15    11    12   ar
    16    12    13   ar
    17    13    14   ar
    18    14    17    1
    19    17    18    1
    20    18    19    1
    21    19    20    1
    22    20    21    1
    23    21    22    1
    24    21    23    1
    25    14    15   ar
    26    15    16   ar
    27     8     9   ar
    28     9    10   ar
    29    32    33    1
    30    33    34    1
    31    34    35    1
    32    35    36    1
    33    36    37    1
    34    37    38    1
    35    10     1   ar
    36    38    33    1
    37    10     5   ar
    38    16    11   ar
    39    29    30    1
    40    25    27    1
    41    25    28    1
