@<TRIPOS>MOLECULE
*****
 20 22 0 0 0
SMALL
GASTEIGER

@<TRIPOS>ATOM
      1 C          -6.7678  -20.0269   22.0097 C.2     1  UNL1        0.0420
      2 C          -8.1292  -19.6607   21.4974 C.2     1  UNL1        0.0033
      3 C          -9.2549  -19.4260   22.4607 C.ar    1  UNL1        0.0001
      4 C          -9.2325  -20.0747   23.8129 C.ar    1  UNL1        0.0000
      5 C         -10.3581  -19.8400   24.7761 C.ar    1  UNL1        0.0000
      6 C         -11.5062  -18.9565   24.3871 C.ar    1  UNL1        0.0000
      7 C         -11.5286  -18.3077   23.0348 C.ar    1  UNL1        0.0000
      8 C         -12.6767  -17.4242   22.6459 C.ar    1  UNL1        0.0000
      9 C         -12.6991  -16.7754   21.2936 C.ar    1  UNL1        0.0000
     10 C         -11.5734  -17.0102   20.3304 C.ar    1  UNL1        0.0000
     11 C         -10.4254  -17.8937   20.7194 C.ar    1  UNL1        0.0000
     12 C         -10.4030  -18.5424   22.0716 C.ar    1  UNL1        0.0000
     13 O          -5.7122  -21.4020   20.0746 O.2     1  UNL1       -0.2866
     14 C          -5.6422  -20.2616   21.0464 C.2     1  UNL1        0.1957
     15 C          -4.4465  -19.3559   21.0551 C.ar    1  UNL1        0.0420
     16 C          -3.9856  -18.7345   22.3402 C.ar    1  UNL1        0.0239
     17 C          -2.7900  -17.8288   22.3489 C.ar    1  UNL1        0.0990
     18 N          -2.0552  -17.5445   21.0725 N.ar    1  UNL1       -0.2423
     19 C          -2.5160  -18.1659   19.7874 C.ar    1  UNL1        0.0990
     20 C          -3.7117  -19.0716   19.7787 C.ar    1  UNL1        0.0239
@<TRIPOS>BOND
     1    13    14    2
     2    14     1    1
     3     1     2    2
     4     2     3    1
     5     3     4   ar
     6     4     5   ar
     7     5     6   ar
     8     6     7   ar
     9     7     8   ar
    10     8     9   ar
    11     9    10   ar
    12    10    11   ar
    13    11    12   ar
    14    14    15    1
    15    15    16   ar
    16    16    17   ar
    17    17    18   ar
    18    18    19   ar
    19    19    20   ar
    20    12     3   ar
    21    20    15   ar
    22    12     7   ar
@<TRIPOS>MOLECULE
*****
 20 22 0 0 0
SMALL
GASTEIGER

@<TRIPOS>ATOM
      1 C          -8.4351  -20.1481   22.9231 C.2     1  UNL1        0.0420
      2 C          -7.4386  -19.1387   22.4351 C.2     1  UNL1        0.0033
      3 C          -6.2159  -19.5900   21.6926 C.ar    1  UNL1        0.0001
      4 C          -6.3321  -20.6309   20.6189 C.ar    1  UNL1        0.0000
      5 C          -5.1094  -21.0823   19.8764 C.ar    1  UNL1        0.0000
      6 C          -3.7706  -20.4928   20.2077 C.ar    1  UNL1        0.0000
      7 C          -3.6543  -19.4518   21.2815 C.ar    1  UNL1        0.0000
      8 C          -2.3154  -18.8623   21.6128 C.ar    1  UNL1        0.0000
      9 C          -2.1992  -17.8215   22.6865 C.ar    1  UNL1        0.0000
     10 C          -3.4219  -17.3701   23.4290 C.ar    1  UNL1        0.0000
     11 C          -4.7608  -17.9596   23.0977 C.ar    1  UNL1        0.0000
     12 C          -4.8770  -19.0005   22.0240 C.ar    1  UNL1        0.0000
     13 O          -9.7643  -19.9253   25.1442 O.2     1  UNL1       -0.2866
     14 C          -9.6578  -19.6967   23.6656 C.2     1  UNL1        0.1957
     15 C         -10.7739  -19.0168   22.9293 C.ar    1  UNL1        0.0420
     16 C         -11.9069  -18.3963   23.6919 C.ar    1  UNL1        0.0239
     17 C         -13.0230  -17.7164   22.9558 C.ar    1  UNL1        0.0990
     18 N         -13.0062  -17.6570   21.4571 N.ar    1  UNL1       -0.2423
     19 C         -11.8732  -18.2774   20.6945 C.ar    1  UNL1        0.0990
     20 C         -10.7571  -18.9573   21.4306 C.ar    1  UNL1        0.0239
@<TRIPOS>BOND
     1    13    14    2
     2    14     1    1
     3     1     2    2
     4     2     3    1
     5     3     4   ar
     6     4     5   ar
     7     5     6   ar
     8     6     7   ar
     9     7     8   ar
    10     8     9   ar
    11     9    10   ar
    12    10    11   ar
    13    11    12   ar
    14    14    15    1
    15    15    16   ar
    16    16    17   ar
    17    17    18   ar
    18    18    19   ar
    19    19    20   ar
    20    12     3   ar
    21    20    15   ar
    22    12     7   ar
@<TRIPOS>MOLECULE
*****
 20 22 0 0 0
SMALL
GASTEIGER

@<TRIPOS>ATOM
      1 C          -5.5965  -19.2909   21.0795 C.2     1  UNL1        0.0420
      2 C          -6.7949  -18.9679   21.9217 C.2     1  UNL1        0.0033
      3 C          -8.1742  -19.1106   21.3496 C.ar    1  UNL1        0.0001
      4 C          -8.3535  -19.5214   19.9182 C.ar    1  UNL1        0.0000
      5 C          -9.7328  -19.6641   19.3460 C.ar    1  UNL1        0.0000
      6 C         -10.9326  -19.3960   20.2053 C.ar    1  UNL1        0.0000
      7 C         -10.7533  -18.9851   21.6368 C.ar    1  UNL1        0.0000
      8 C         -11.9532  -18.7170   22.4961 C.ar    1  UNL1        0.0000
      9 C         -11.7738  -18.3062   23.9275 C.ar    1  UNL1        0.0000
     10 C         -10.3945  -18.1635   24.4996 C.ar    1  UNL1        0.0000
     11 C          -9.1947  -18.4316   23.6403 C.ar    1  UNL1        0.0000
     12 C          -9.3741  -18.8424   22.2089 C.ar    1  UNL1        0.0000
     13 O          -3.9771  -19.4204   23.1070 O.2     1  UNL1       -0.2866
     14 C          -4.2172  -19.1482   21.6517 C.2     1  UNL1        0.1957
     15 C          -3.0781  -18.7333   20.7683 C.ar    1  UNL1        0.0420
     16 C          -1.7091  -18.5409   21.3505 C.ar    1  UNL1        0.0239
     17 C          -0.5700  -18.1260   20.4673 C.ar    1  UNL1        0.0990
     18 N          -0.7998  -17.9035   19.0018 N.ar    1  UNL1       -0.2423
     19 C          -2.1687  -18.0960   18.4196 C.ar    1  UNL1        0.0990
     20 C          -3.3079  -18.5109   19.3028 C.ar    1  UNL1        0.0239
@<TRIPOS>BOND
     1    13    14    2
     2    14     1    1
     3     1     2    2
     4     2     3    1
     5     3     4   ar
     6     4     5   ar
     7     5     6   ar
     8     6     7   ar
     9     7     8   ar
    10     8     9   ar
    11     9    10   ar
    12    10    11   ar
    13    11    12   ar
    14    14    15    1
    15    15    16   ar
    16    16    17   ar
    17    17    18   ar
    18    18    19   ar
    19    19    20   ar
    20    12     3   ar
    21    20    15   ar
    22    12     7   ar
@<TRIPOS>MOLECULE
*****
 20 22 0 0 0
SMALL
GASTEIGER

@<TRIPOS>ATOM
      1 C          -7.1833  -19.2417   20.9175 C.2     1  UNL1        0.0420
      2 C          -8.5031  -19.6537   20.3360 C.2     1  UNL1        0.0033
      3 C          -9.7480  -18.8951   20.6892 C.ar    1  UNL1        0.0001
      4 C         -10.4229  -18.0396   19.6584 C.ar    1  UNL1        0.0000
      5 C         -11.6677  -17.2810   20.0117 C.ar    1  UNL1        0.0000
      6 C         -12.2378  -17.3779   21.3957 C.ar    1  UNL1        0.0000
      7 C         -11.5629  -18.2335   22.4266 C.ar    1  UNL1        0.0000
      8 C         -12.1329  -18.3305   23.8107 C.ar    1  UNL1        0.0000
      9 C         -11.4581  -19.1860   24.8414 C.ar    1  UNL1        0.0000
     10 C         -10.2132  -19.9446   24.4882 C.ar    1  UNL1        0.0000
     11 C          -9.6432  -19.8477   23.1041 C.ar    1  UNL1        0.0000
     12 C         -10.3180  -18.9921   22.0734 C.ar    1  UNL1        0.0000
     13 O          -6.0373  -21.4049   20.0474 O.2     1  UNL1       -0.2866
     14 C          -5.9384  -20.0003   20.5643 C.2     1  UNL1        0.1957
     15 C          -4.5946  -19.3542   20.7280 C.ar    1  UNL1        0.0420
     16 C          -4.0809  -19.0287   22.0992 C.ar    1  UNL1        0.0239
     17 C          -2.7372  -18.3826   22.2629 C.ar    1  UNL1        0.0990
     18 N          -1.9070  -18.0621   21.0554 N.ar    1  UNL1       -0.2423
     19 C          -2.4207  -18.3876   19.6842 C.ar    1  UNL1        0.0990
     20 C          -3.7644  -19.0337   19.5205 C.ar    1  UNL1        0.0239
@<TRIPOS>BOND
     1    13    14    2
     2    14     1    1
     3     1     2    2
     4     2     3    1
     5     3     4   ar
     6     4     5   ar
     7     5     6   ar
     8     6     7   ar
     9     7     8   ar
    10     8     9   ar
    11     9    10   ar
    12    10    11   ar
    13    11    12   ar
    14    14    15    1
    15    15    16   ar
    16    16    17   ar
    17    17    18   ar
    18    18    19   ar
    19    19    20   ar
    20    12     3   ar
    21    20    15   ar
    22    12     7   ar
@<TRIPOS>MOLECULE
*****
 20 22 0 0 0
SMALL
GASTEIGER

@<TRIPOS>ATOM
      1 C          -7.8212  -17.2865   22.3115 C.2     1  UNL1        0.0420
      2 C          -7.1867  -18.5677   22.7650 C.2     1  UNL1        0.0033
      3 C          -6.2330  -19.2930   21.8624 C.ar    1  UNL1        0.0001
      4 C          -6.7509  -20.2957   20.8744 C.ar    1  UNL1        0.0000
      5 C          -5.7972  -21.0209   19.9718 C.ar    1  UNL1        0.0000
      6 C          -4.3257  -20.7434   20.0574 C.ar    1  UNL1        0.0000
      7 C          -3.8077  -19.7406   21.0454 C.ar    1  UNL1        0.0000
      8 C          -2.3361  -19.4631   21.1309 C.ar    1  UNL1        0.0000
      9 C          -1.8182  -18.4604   22.1190 C.ar    1  UNL1        0.0000
     10 C          -2.7718  -17.7352   23.0215 C.ar    1  UNL1        0.0000
     11 C          -4.2434  -18.0127   22.9360 C.ar    1  UNL1        0.0000
     12 C          -4.7613  -19.0154   21.9480 C.ar    1  UNL1        0.0000
     13 O          -8.2952  -15.4013   24.0352 O.2     1  UNL1       -0.2866
     14 C          -8.7748  -16.5612   23.2140 C.2     1  UNL1        0.1957
     15 C         -10.2082  -16.9961   23.2953 C.ar    1  UNL1        0.0420
     16 C         -11.2539  -16.2875   22.4864 C.ar    1  UNL1        0.0239
     17 C         -12.6872  -16.7223   22.5677 C.ar    1  UNL1        0.0990
     18 N         -13.0747  -17.8656   23.4579 N.ar    1  UNL1       -0.2423
     19 C         -12.0290  -18.5742   24.2669 C.ar    1  UNL1        0.0990
     20 C         -10.5957  -18.1394   24.1856 C.ar    1  UNL1        0.0239
@<TRIPOS>BOND
     1    13    14    2
     2    14     1    1
     3     1     2    2
     4     2     3    1
     5     3     4   ar
     6     4     5   ar
     7     5     6   ar
     8     6     7   ar
     9     7     8   ar
    10     8     9   ar
    11     9    10   ar
    12    10    11   ar
    13    11    12   ar
    14    14    15    1
    15    15    16   ar
    16    16    17   ar
    17    17    18   ar
    18    18    19   ar
    19    19    20   ar
    20    12     3   ar
    21    20    15   ar
    22    12     7   ar
@<TRIPOS>MOLECULE
*****
 20 22 0 0 0
SMALL
GASTEIGER

@<TRIPOS>ATOM
      1 C          -6.4309  -19.4992   21.8392 C.2     1  UNL1        0.0420
      2 C          -7.1068  -18.2380   21.3892 C.2     1  UNL1        0.0033
      3 C          -8.0794  -17.5438   22.2959 C.ar    1  UNL1        0.0001
      4 C          -7.5779  -16.7322   23.4534 C.ar    1  UNL1        0.0000
      5 C          -8.5505  -16.0380   24.3600 C.ar    1  UNL1        0.0000
      6 C         -10.0247  -16.1554   24.1093 C.ar    1  UNL1        0.0000
      7 C         -10.5263  -16.9670   22.9518 C.ar    1  UNL1        0.0000
      8 C         -12.0005  -17.0844   22.7010 C.ar    1  UNL1        0.0000
      9 C         -12.5021  -17.8960   21.5436 C.ar    1  UNL1        0.0000
     10 C         -11.5294  -18.5902   20.6369 C.ar    1  UNL1        0.0000
     11 C         -10.0553  -18.4728   20.8877 C.ar    1  UNL1        0.0000
     12 C          -9.5537  -17.6612   22.0451 C.ar    1  UNL1        0.0000
     13 O          -5.8756  -21.4274   20.1889 O.2     1  UNL1       -0.2866
     14 C          -5.4583  -20.1934   20.9325 C.2     1  UNL1        0.1957
     15 C          -4.0683  -19.6535   20.7694 C.ar    1  UNL1        0.0420
     16 C          -3.1622  -19.5432   21.9597 C.ar    1  UNL1        0.0239
     17 C          -1.7722  -19.0034   21.7967 C.ar    1  UNL1        0.0990
     18 N          -1.2884  -18.5738   20.4435 N.ar    1  UNL1       -0.2423
     19 C          -2.1945  -18.6842   19.2532 C.ar    1  UNL1        0.0990
     20 C          -3.5845  -19.2240   19.4162 C.ar    1  UNL1        0.0239
@<TRIPOS>BOND
     1    13    14    2
     2    14     1    1
     3     1     2    2
     4     2     3    1
     5     3     4   ar
     6     4     5   ar
     7     5     6   ar
     8     6     7   ar
     9     7     8   ar
    10     8     9   ar
    11     9    10   ar
    12    10    11   ar
    13    11    12   ar
    14    14    15    1
    15    15    16   ar
    16    16    17   ar
    17    17    18   ar
    18    18    19   ar
    19    19    20   ar
    20    12     3   ar
    21    20    15   ar
    22    12     7   ar
@<TRIPOS>MOLECULE
*****
 20 22 0 0 0
SMALL
GASTEIGER

@<TRIPOS>ATOM
      1 C          -5.7678  -20.0036   20.9061 C.2     1  UNL1        0.0420
      2 C          -6.6558  -18.9962   20.2378 C.2     1  UNL1        0.0033
      3 C          -8.1259  -18.9782   20.5350 C.ar    1  UNL1        0.0001
      4 C          -9.0790  -19.7263   19.6508 C.ar    1  UNL1        0.0000
      5 C         -10.5492  -19.7084   19.9479 C.ar    1  UNL1        0.0000
      6 C         -11.0663  -18.9422   21.1293 C.ar    1  UNL1        0.0000
      7 C         -10.1132  -18.1940   22.0135 C.ar    1  UNL1        0.0000
      8 C         -10.6303  -17.4279   23.1949 C.ar    1  UNL1        0.0000
      9 C          -9.6772  -16.6797   24.0791 C.ar    1  UNL1        0.0000
     10 C          -8.2070  -16.6977   23.7819 C.ar    1  UNL1        0.0000
     11 C          -7.6899  -17.4638   22.6006 C.ar    1  UNL1        0.0000
     12 C          -8.6430  -18.2120   21.7164 C.ar    1  UNL1        0.0000
     13 O          -3.6648  -21.2514   20.0284 O.2     1  UNL1       -0.2866
     14 C          -4.2977  -20.0216   20.6089 C.2     1  UNL1        0.1957
     15 C          -3.4603  -18.8096   20.8924 C.ar    1  UNL1        0.0420
     16 C          -3.5209  -18.1548   22.2405 C.ar    1  UNL1        0.0239
     17 C          -2.6836  -16.9429   22.5239 C.ar    1  UNL1        0.0990
     18 N          -1.7858  -16.3860   21.4592 N.ar    1  UNL1       -0.2423
     19 C          -1.7253  -17.0408   20.1111 C.ar    1  UNL1        0.0990
     20 C          -2.5625  -18.2527   19.8276 C.ar    1  UNL1        0.0239
@<TRIPOS>BOND
     1    13    14    2
     2    14     1    1
     3     1     2    2
     4     2     3    1
     5     3     4   ar
     6     4     5   ar
     7     5     6   ar
     8     6     7   ar
     9     7     8   ar
    10     8     9   ar
    11     9    10   ar
    12    10    11   ar
    13    11    12   ar
    14    14    15    1
    15    15    16   ar
    16    16    17   ar
    17    17    18   ar
    18    18    19   ar
    19    19    20   ar
    20    12     3   ar
    21    20    15   ar
    22    12     7   ar
@<TRIPOS>MOLECULE
*****
 20 22 0 0 0
SMALL
GASTEIGER

@<TRIPOS>ATOM
      1 C          -7.5098  -17.1862   22.4839 C.2     1  UNL1        0.0420
      2 C          -6.9900  -18.5447   22.8503 C.2     1  UNL1        0.0033
      3 C          -6.1141  -19.2962   21.8922 C.ar    1  UNL1        0.0001
      4 C          -6.7161  -20.3022   20.9566 C.ar    1  UNL1        0.0000
      5 C          -5.8402  -21.0536   19.9985 C.ar    1  UNL1        0.0000
      6 C          -4.3622  -20.7991   19.9760 C.ar    1  UNL1        0.0000
      7 C          -3.7600  -19.7930   20.9116 C.ar    1  UNL1        0.0000
      8 C          -2.2820  -19.5385   20.8891 C.ar    1  UNL1        0.0000
      9 C          -1.6799  -18.5325   21.8247 C.ar    1  UNL1        0.0000
     10 C          -2.5558  -17.7810   22.7828 C.ar    1  UNL1        0.0000
     11 C          -4.0339  -18.0355   22.8053 C.ar    1  UNL1        0.0000
     12 C          -4.6359  -19.0416   21.8697 C.ar    1  UNL1        0.0000
     13 O          -9.8113  -16.1391   23.0810 O.2     1  UNL1       -0.2866
     14 C          -8.3857  -16.4347   23.4420 C.2     1  UNL1        0.1957
     15 C          -7.8361  -15.9789   24.7612 C.ar    1  UNL1        0.0420
     16 C          -8.7302  -15.9129   25.9637 C.ar    1  UNL1        0.0239
     17 C          -8.1806  -15.4571   27.2828 C.ar    1  UNL1        0.0990
     18 N          -6.7369  -15.0673   27.3994 N.ar    1  UNL1       -0.2423
     19 C          -5.8427  -15.1333   26.1969 C.ar    1  UNL1        0.0990
     20 C          -6.3923  -15.5891   24.8778 C.ar    1  UNL1        0.0239
@<TRIPOS>BOND
     1    13    14    2
     2    14     1    1
     3     1     2    2
     4     2     3    1
     5     3     4   ar
     6     4     5   ar
     7     5     6   ar
     8     6     7   ar
     9     7     8   ar
    10     8     9   ar
    11     9    10   ar
    12    10    11   ar
    13    11    12   ar
    14    14    15    1
    15    15    16   ar
    16    16    17   ar
    17    17    18   ar
    18    18    19   ar
    19    19    20   ar
    20    12     3   ar
    21    20    15   ar
    22    12     7   ar
@<TRIPOS>MOLECULE
*****
 20 22 0 0 0
SMALL
GASTEIGER

@<TRIPOS>ATOM
      1 C          -8.6411  -19.0745   23.2185 C.2     1  UNL1        0.0420
      2 C          -7.8647  -18.1296   22.3500 C.2     1  UNL1        0.0033
      3 C          -6.3920  -17.9475   22.5693 C.ar    1  UNL1        0.0001
      4 C          -5.8999  -16.9040   23.5278 C.ar    1  UNL1        0.0000
      5 C          -4.4272  -16.7219   23.7471 C.ar    1  UNL1        0.0000
      6 C          -3.4467  -17.5833   23.0078 C.ar    1  UNL1        0.0000
      7 C          -3.9388  -18.6268   22.0492 C.ar    1  UNL1        0.0000
      8 C          -2.9583  -19.4882   21.3099 C.ar    1  UNL1        0.0000
      9 C          -3.4505  -20.5317   20.3514 C.ar    1  UNL1        0.0000
     10 C          -4.9231  -20.7138   20.1321 C.ar    1  UNL1        0.0000
     11 C          -5.9037  -19.8525   20.8714 C.ar    1  UNL1        0.0000
     12 C          -5.4115  -18.8090   21.8299 C.ar    1  UNL1        0.0000
     13 O         -10.8244  -20.4262   23.6132 O.2     1  UNL1       -0.2866
     14 C         -10.1137  -19.2566   22.9993 C.2     1  UNL1        0.1957
     15 C         -10.8757  -18.2690   22.1661 C.ar    1  UNL1        0.0420
     16 C         -10.8684  -18.3859   20.6707 C.ar    1  UNL1        0.0239
     17 C         -11.6304  -17.3984   19.8375 C.ar    1  UNL1        0.0990
     18 N         -12.3996  -16.2940   20.4997 N.ar    1  UNL1       -0.2423
     19 C         -12.4069  -16.1772   21.9951 C.ar    1  UNL1        0.0990
     20 C         -11.6450  -17.1647   22.8283 C.ar    1  UNL1        0.0239
@<TRIPOS>BOND
     1    13    14    2
     2    14     1    1
     3     1     2    2
     4     2     3    1
     5     3     4   ar
     6     4     5   ar
     7     5     6   ar
     8     6     7   ar
     9     7     8   ar
    10     8     9   ar
    11     9    10   ar
    12    10    11   ar
    13    11    12   ar
    14    14    15    1
    15    15    16   ar
    16    16    17   ar
    17    17    18   ar
    18    18    19   ar
    19    19    20   ar
    20    12     3   ar
    21    20    15   ar
    22    12     7   ar
