@<TRIPOS>MOLECULE
*****
 34 37 0 0 0
SMALL
GASTEIGER

@<TRIPOS>ATOM
      1 C           5.2245   -1.8253   18.5235 C.ar    1  UNL1        0.0536
      2 C           6.6229   -1.3049   18.3699 C.ar    1  UNL1        0.0042
      3 C           7.7667   -2.0244   19.0212 C.ar    1  UNL1       -0.0024
      4 C           7.5121   -3.2643   19.8260 C.ar    1  UNL1        0.0017
      5 C           6.1136   -3.7847   19.9796 C.ar    1  UNL1       -0.0024
      6 C           4.9698   -3.0653   19.3284 C.ar    1  UNL1        0.0042
      7 C           1.0418    1.0432   20.4013 C.3     1  UNL1        0.1025
      8 C           2.1855    0.3237   21.0526 C.3     1  UNL1        0.0327
      9 C           3.1985   -0.3926   20.2096 C.3     1  UNL1        0.0943
     10 N           3.0677   -0.3895   18.7153 N.am    1  UNL1       -0.2761
     11 C           4.0808   -1.1058   17.8723 C.2     1  UNL1        0.2490
     12 O           3.9500   -1.1026   16.3780 O.2     1  UNL1       -0.2699
     13 C           1.9240    0.3300   18.0641 C.3     1  UNL1        0.0943
     14 C           0.9110    1.0464   18.9071 C.3     1  UNL1        0.0327
     15 C           0.0287    1.7595   21.2444 C.2     1  UNL1        0.3167
     16 O           0.3524    2.1156   22.6652 O.2     1  UNL1       -0.2501
     17 C          -1.5935    3.5360   20.2636 C.3     1  UNL1        0.2556
     18 O          -1.3078    2.1198   20.6668 O.3     1  UNL1       -0.4444
     19 C           8.6558   -3.9838   20.4773 C.3     1  UNL1        0.1822
     20 S           8.4597   -4.6605   21.8014 S.O2    1  UNL1        0.0129
     21 O           8.4049   -5.9920   21.1129 O.2     1  UNL1       -0.1683
     22 O           8.5145   -3.3291   22.4900 O.2     1  UNL1       -0.1683
     23 C           8.2636   -5.3374   23.1257 C.ar    1  UNL1        0.1066
     24 C           8.6088   -6.7884   23.2847 C.ar    1  UNL1        0.0199
     25 C           8.4127   -7.4651   24.6089 C.ar    1  UNL1        0.0210
     26 C           7.8714   -6.6909   25.7740 C.ar    1  UNL1        0.0893
     27 N           7.5731   -7.0858   27.1901 N.ar    1  UNL1       -0.2245
     28 C           7.0436   -5.8789   27.9062 C.ar    1  UNL1        0.1567
     29 N           6.6178   -5.8226   29.3434 N.pl3   1  UNL1       -0.3375
     30 S           7.0146   -4.7380   26.9327 S.2     1  UNL1       -0.0519
     31 C           7.5262   -5.2399   25.6150 C.ar    1  UNL1        0.0510
     32 C           7.7223   -4.5631   24.2908 C.ar    1  UNL1        0.0264
     33 H           6.6743   -6.6289   29.9055 H       1  UNL1        0.1442
     34 H           6.2819   -4.9793   29.7246 H       1  UNL1        0.1442
@<TRIPOS>BOND
     1    17    18    1
     2    18    15    1
     3    15    16    2
     4    15     7    1
     5     7     8    1
     6     8     9    1
     7     9    10    1
     8    10    11   am
     9    11    12    2
    10    11     1    1
    11     1     2   ar
    12     2     3   ar
    13     3     4   ar
    14     4    19    1
    15    19    20    1
    16    20    21    2
    17    20    22    2
    18    20    23    1
    19    23    24   ar
    20    24    25   ar
    21    25    26   ar
    22    26    27   ar
    23    27    28   ar
    24    28    29    1
    25    28    30   ar
    26    30    31   ar
    27    31    32   ar
    28     4     5   ar
    29     5     6   ar
    30    10    13    1
    31    13    14    1
    32    14     7    1
    33     6     1   ar
    34    32    23   ar
    35    31    26   ar
    36    29    33    1
    37    29    34    1
@<TRIPOS>MOLECULE
*****
 34 37 0 0 0
SMALL
GASTEIGER

@<TRIPOS>ATOM
      1 C           2.9248    0.6054   18.0782 C.ar    1  UNL1        0.0536
      2 C           1.4515    0.4773   18.3287 C.ar    1  UNL1        0.0042
      3 C           0.6420    1.6904   18.6796 C.ar    1  UNL1       -0.0024
      4 C           1.3059    3.0317   18.7799 C.ar    1  UNL1        0.0017
      5 C           2.7793    3.1599   18.5294 C.ar    1  UNL1       -0.0024
      6 C           3.5888    1.9468   18.1785 C.ar    1  UNL1        0.0042
      7 C           5.5884   -3.0954   20.9867 C.3     1  UNL1        0.1025
      8 C           4.7789   -1.8822   21.3375 C.3     1  UNL1        0.0327
      9 C           4.1609   -1.0530   20.2511 C.3     1  UNL1        0.0943
     10 N           4.3523   -1.4369   18.8138 N.am    1  UNL1       -0.2761
     11 C           3.7343   -0.6077   17.7273 C.2     1  UNL1        0.2490
     12 O           3.9257   -0.9916   16.2900 O.2     1  UNL1       -0.2699
     13 C           5.1618   -2.6500   18.4629 C.3     1  UNL1        0.0943
     14 C           5.7798   -3.4793   19.5493 C.3     1  UNL1        0.0327
     15 C           6.2064   -3.9246   22.0732 C.2     1  UNL1        0.3167
     16 O           7.3724   -4.8164   21.7647 O.2     1  UNL1       -0.2501
     17 C           6.5910   -3.8990   24.6424 C.3     1  UNL1        0.2556
     18 O           5.6585   -3.8619   23.4681 O.3     1  UNL1       -0.4444
     19 C           0.4965    4.2448   19.1308 C.3     1  UNL1        0.1822
     20 S          -0.6186    4.1396   20.1285 S.O2    1  UNL1        0.0129
     21 O           0.3800    4.1665   21.2474 O.2     1  UNL1       -0.1683
     22 O          -1.6172    4.1126   19.0096 O.2     1  UNL1       -0.1683
     23 C          -1.7337    4.0343   21.1264 C.ar    1  UNL1        0.1066
     24 C          -1.4235    3.8121   22.5770 C.ar    1  UNL1        0.0199
     25 C          -2.5386    3.7069   23.5747 C.ar    1  UNL1        0.0210
     26 C          -3.9638    3.8238   23.1218 C.ar    1  UNL1        0.0893
     27 N          -5.2628    3.7616   23.8694 N.ar    1  UNL1       -0.2245
     28 C          -6.3758    3.9453   22.8807 C.ar    1  UNL1        0.1567
     29 N          -7.8425    3.9520   23.1952 N.pl3   1  UNL1       -0.3375
     30 S          -5.7646    4.1210   21.5221 S.2     1  UNL1       -0.0519
     31 C          -4.2739    4.0460   21.6712 C.ar    1  UNL1        0.0510
     32 C          -3.1589    4.1512   20.6735 C.ar    1  UNL1        0.0264
     33 H          -8.1475    3.8279   24.1230 H       1  UNL1        0.1442
     34 H          -8.5000    4.0805   22.4739 H       1  UNL1        0.1442
@<TRIPOS>BOND
     1    17    18    1
     2    18    15    1
     3    15    16    2
     4    15     7    1
     5     7     8    1
     6     8     9    1
     7     9    10    1
     8    10    11   am
     9    11    12    2
    10    11     1    1
    11     1     2   ar
    12     2     3   ar
    13     3     4   ar
    14     4    19    1
    15    19    20    1
    16    20    21    2
    17    20    22    2
    18    20    23    1
    19    23    24   ar
    20    24    25   ar
    21    25    26   ar
    22    26    27   ar
    23    27    28   ar
    24    28    29    1
    25    28    30   ar
    26    30    31   ar
    27    31    32   ar
    28     4     5   ar
    29     5     6   ar
    30    10    13    1
    31    13    14    1
    32    14     7    1
    33     6     1   ar
    34    32    23   ar
    35    31    26   ar
    36    29    33    1
    37    29    34    1
@<TRIPOS>MOLECULE
*****
 34 37 0 0 0
SMALL
GASTEIGER

@<TRIPOS>ATOM
      1 C           2.8761    0.5836   18.1362 C.ar    1  UNL1        0.0536
      2 C           1.3914    0.4278   18.2823 C.ar    1  UNL1        0.0042
      3 C           0.5453    1.6116   18.6469 C.ar    1  UNL1       -0.0024
      4 C           1.1840    2.9511   18.8653 C.ar    1  UNL1        0.0017
      5 C           2.6687    3.1069   18.7193 C.ar    1  UNL1       -0.0024
      6 C           3.5148    1.9232   18.3547 C.ar    1  UNL1        0.0042
      7 C           5.6179   -3.0918   21.0039 C.3     1  UNL1        0.1025
      8 C           4.7719   -1.9080   21.3685 C.3     1  UNL1        0.0327
      9 C           4.1400   -1.0775   20.2911 C.3     1  UNL1        0.0943
     10 N           4.3541   -1.4307   18.8491 N.am    1  UNL1       -0.2761
     11 C           3.7221   -0.6002   17.7716 C.2     1  UNL1        0.2490
     12 O           3.9362   -0.9534   16.3296 O.2     1  UNL1       -0.2699
     13 C           5.2001   -2.6145   18.4845 C.3     1  UNL1        0.0943
     14 C           5.8321   -3.4450   19.5619 C.3     1  UNL1        0.0327
     15 C           6.2499   -3.9223   22.0814 C.2     1  UNL1        0.3167
     16 O           5.8325   -3.7403   23.5106 O.2     1  UNL1       -0.2501
     17 C           8.7487   -4.5491   21.7455 C.3     1  UNL1        0.2556
     18 O           7.2992   -4.9348   21.7297 O.3     1  UNL1       -0.4444
     19 C           0.3379    4.1349   19.2299 C.3     1  UNL1        0.1822
     20 S          -0.7301    4.0002   20.2745 S.O2    1  UNL1        0.0129
     21 O          -1.7832    4.1181   19.2129 O.2     1  UNL1       -0.1683
     22 O           0.3231    3.8824   21.3361 O.2     1  UNL1       -0.1683
     23 C          -1.7982    3.8655   21.3191 C.ar    1  UNL1        0.1066
     24 C          -3.1816    3.4391   20.9265 C.ar    1  UNL1        0.0199
     25 C          -4.2496    3.3044   21.9711 C.ar    1  UNL1        0.0210
     26 C          -3.9342    3.5963   23.4082 C.ar    1  UNL1        0.0893
     27 N          -4.7751    3.5508   24.6496 N.ar    1  UNL1       -0.2245
     28 C          -3.9112    3.9491   25.8094 C.ar    1  UNL1        0.1567
     29 N          -4.3457    4.0399   27.2423 N.pl3   1  UNL1       -0.3375
     30 S          -2.5365    4.2408   25.2848 S.2     1  UNL1       -0.0519
     31 C          -2.5508    4.0227   23.8008 C.ar    1  UNL1        0.0510
     32 C          -1.4828    4.1574   22.7562 C.ar    1  UNL1        0.0264
     33 H          -5.2747    3.8273   27.4893 H       1  UNL1        0.1442
     34 H          -3.7019    4.3121   27.9356 H       1  UNL1        0.1442
@<TRIPOS>BOND
     1    17    18    1
     2    18    15    1
     3    15    16    2
     4    15     7    1
     5     7     8    1
     6     8     9    1
     7     9    10    1
     8    10    11   am
     9    11    12    2
    10    11     1    1
    11     1     2   ar
    12     2     3   ar
    13     3     4   ar
    14     4    19    1
    15    19    20    1
    16    20    21    2
    17    20    22    2
    18    20    23    1
    19    23    24   ar
    20    24    25   ar
    21    25    26   ar
    22    26    27   ar
    23    27    28   ar
    24    28    29    1
    25    28    30   ar
    26    30    31   ar
    27    31    32   ar
    28     4     5   ar
    29     5     6   ar
    30    10    13    1
    31    13    14    1
    32    14     7    1
    33     6     1   ar
    34    32    23   ar
    35    31    26   ar
    36    29    33    1
    37    29    34    1
@<TRIPOS>MOLECULE
*****
 34 37 0 0 0
SMALL
GASTEIGER

@<TRIPOS>ATOM
      1 C         -13.3464   -0.9173   18.2994 C.ar    1  UNL1        0.0536
      2 C         -12.2318   -1.4913   19.1228 C.ar    1  UNL1        0.0042
      3 C         -11.8928   -2.9484   19.0143 C.ar    1  UNL1       -0.0024
      4 C         -12.6683   -3.8316   18.0824 C.ar    1  UNL1        0.0017
      5 C         -13.7830   -3.2576   17.2589 C.ar    1  UNL1       -0.0024
      6 C         -14.1221   -1.8004   17.3674 C.ar    1  UNL1        0.0042
      7 C         -17.3709    1.8320   20.6436 C.3     1  UNL1        0.1025
      8 C         -17.0318    0.3749   20.5351 C.3     1  UNL1        0.0327
      9 C         -15.8034   -0.0559   19.7899 C.3     1  UNL1        0.0943
     10 N         -14.9140    0.9706   19.1532 N.am    1  UNL1       -0.2761
     11 C         -13.6855    0.5399   18.4079 C.2     1  UNL1        0.2490
     12 O         -12.7961    1.5663   17.7712 O.2     1  UNL1       -0.2699
     13 C         -15.2531    2.4277   19.2617 C.3     1  UNL1        0.0943
     14 C         -16.4815    2.8584   20.0069 C.3     1  UNL1        0.0327
     15 C         -18.5994    2.2627   21.3889 C.2     1  UNL1        0.3167
     16 O         -19.4843    3.3326   20.8213 O.2     1  UNL1       -0.2501
     17 C         -18.7906    2.3994   23.9762 C.3     1  UNL1        0.2556
     18 O         -18.9429    1.6235   22.7016 O.3     1  UNL1       -0.4444
     19 C         -12.3292   -5.2887   17.9739 C.3     1  UNL1        0.1822
     20 S         -13.3982   -6.3237   18.1639 S.O2    1  UNL1        0.0129
     21 O         -13.3102   -6.6816   16.7099 O.2     1  UNL1       -0.1683
     22 O         -13.4862   -5.9658   19.6179 O.2     1  UNL1       -0.1683
     23 C         -14.4672   -7.3587   18.3539 C.ar    1  UNL1        0.1066
     24 C         -14.2563   -8.7559   17.8507 C.ar    1  UNL1        0.0199
     25 C         -15.3252   -9.7908   18.0407 C.ar    1  UNL1        0.0210
     26 C         -16.6052   -9.4285   18.7339 C.ar    1  UNL1        0.0893
     27 N         -17.8298  -10.2297   19.0634 N.ar    1  UNL1       -0.2245
     28 C         -18.7976   -9.3276   19.7701 C.ar    1  UNL1        0.1567
     29 N         -20.1538   -9.7160   20.2801 N.pl3   1  UNL1       -0.3375
     30 S         -18.1711   -7.9689   19.8775 S.2     1  UNL1       -0.0519
     31 C         -16.8161   -8.0313   19.2371 C.ar    1  UNL1        0.0510
     32 C         -15.7472   -6.9964   19.0471 C.ar    1  UNL1        0.0264
     33 H         -20.4790  -10.6376   20.1614 H       1  UNL1        0.1442
     34 H         -20.7188   -9.0492   20.7334 H       1  UNL1        0.1442
@<TRIPOS>BOND
     1    17    18    1
     2    18    15    1
     3    15    16    2
     4    15     7    1
     5     7     8    1
     6     8     9    1
     7     9    10    1
     8    10    11   am
     9    11    12    2
    10    11     1    1
    11     1     2   ar
    12     2     3   ar
    13     3     4   ar
    14     4    19    1
    15    19    20    1
    16    20    21    2
    17    20    22    2
    18    20    23    1
    19    23    24   ar
    20    24    25   ar
    21    25    26   ar
    22    26    27   ar
    23    27    28   ar
    24    28    29    1
    25    28    30   ar
    26    30    31   ar
    27    31    32   ar
    28     4     5   ar
    29     5     6   ar
    30    10    13    1
    31    13    14    1
    32    14     7    1
    33     6     1   ar
    34    32    23   ar
    35    31    26   ar
    36    29    33    1
    37    29    34    1
@<TRIPOS>MOLECULE
*****
 34 37 0 0 0
SMALL
GASTEIGER

@<TRIPOS>ATOM
      1 C           4.7934   -2.8282   21.0974 C.ar    1  UNL1        0.0536
      2 C           4.6208   -3.5408   22.4059 C.ar    1  UNL1        0.0042
      3 C           5.8229   -3.9060   23.2254 C.ar    1  UNL1       -0.0024
      4 C           7.1976   -3.5585   22.7364 C.ar    1  UNL1        0.0017
      5 C           7.3703   -2.8458   21.4278 C.ar    1  UNL1       -0.0024
      6 C           6.1682   -2.4806   20.6083 C.ar    1  UNL1        0.0042
      7 C           0.9340    0.9311   21.5697 C.3     1  UNL1        0.1025
      8 C           2.1361    0.5659   22.3892 C.3     1  UNL1        0.0327
      9 C           3.0219   -0.5654   21.9586 C.3     1  UNL1        0.0943
     10 N           2.7055   -1.3316   20.7085 N.am    1  UNL1       -0.2761
     11 C           3.5913   -2.4631   20.2779 C.2     1  UNL1        0.2490
     12 O           3.2749   -3.2293   19.0278 O.2     1  UNL1       -0.2699
     13 C           1.5034   -0.9665   19.8890 C.3     1  UNL1        0.0943
     14 C           0.6176    0.1648   20.3196 C.3     1  UNL1        0.0327
     15 C           0.0482    2.0625   22.0004 C.2     1  UNL1        0.3167
     16 O          -1.1580    2.4229   21.1848 O.2     1  UNL1       -0.2501
     17 C          -0.1893    2.3906   24.5666 C.3     1  UNL1        0.2556
     18 O           0.3687    2.8334   23.2465 O.3     1  UNL1       -0.4444
     19 C           8.3998   -3.9236   23.5559 C.3     1  UNL1        0.1822
     20 S           8.2249   -4.4696   24.9419 S.O2    1  UNL1        0.0129
     21 O           8.2046   -5.8642   24.3900 O.2     1  UNL1       -0.1683
     22 O           8.2452   -3.0750   25.4939 O.2     1  UNL1       -0.1683
     23 C           8.0500   -5.0157   26.3280 C.ar    1  UNL1        0.1066
     24 C           8.4330   -6.4344   26.6291 C.ar    1  UNL1        0.0199
     25 C           8.2580   -6.9804   28.0152 C.ar    1  UNL1        0.0210
     26 C           7.7001   -6.1077   29.1002 C.ar    1  UNL1        0.0893
     27 N           7.4161   -6.3669   30.5501 N.ar    1  UNL1       -0.2245
     28 C           6.8576   -5.1083   31.1451 C.ar    1  UNL1        0.1567
     29 N           6.4345   -4.9197   32.5719 N.pl3   1  UNL1       -0.3375
     30 S           6.7964   -4.0714   30.0630 S.2     1  UNL1       -0.0519
     31 C           7.3172   -4.6891   28.7991 C.ar    1  UNL1        0.0510
     32 C           7.4921   -4.1431   27.4131 C.ar    1  UNL1        0.0264
     33 H           6.5133   -5.6642   33.2112 H       1  UNL1        0.1442
     34 H           6.0779   -4.0514   32.8689 H       1  UNL1        0.1442
@<TRIPOS>BOND
     1    17    18    1
     2    18    15    1
     3    15    16    2
     4    15     7    1
     5     7     8    1
     6     8     9    1
     7     9    10    1
     8    10    11   am
     9    11    12    2
    10    11     1    1
    11     1     2   ar
    12     2     3   ar
    13     3     4   ar
    14     4    19    1
    15    19    20    1
    16    20    21    2
    17    20    22    2
    18    20    23    1
    19    23    24   ar
    20    24    25   ar
    21    25    26   ar
    22    26    27   ar
    23    27    28   ar
    24    28    29    1
    25    28    30   ar
    26    30    31   ar
    27    31    32   ar
    28     4     5   ar
    29     5     6   ar
    30    10    13    1
    31    13    14    1
    32    14     7    1
    33     6     1   ar
    34    32    23   ar
    35    31    26   ar
    36    29    33    1
    37    29    34    1
@<TRIPOS>MOLECULE
*****
 34 37 0 0 0
SMALL
GASTEIGER

@<TRIPOS>ATOM
      1 C           3.0771    0.6207   18.0233 C.ar    1  UNL1        0.0536
      2 C           1.5875    0.5377   18.1789 C.ar    1  UNL1        0.0042
      3 C           0.7983    1.7695   18.5104 C.ar    1  UNL1       -0.0024
      4 C           1.4986    3.0842   18.6862 C.ar    1  UNL1        0.0017
      5 C           2.9883    3.1672   18.5306 C.ar    1  UNL1       -0.0024
      6 C           3.7775    1.9355   18.1991 C.ar    1  UNL1        0.0042
      7 C           5.7709   -3.0166   20.9836 C.3     1  UNL1        0.1025
      8 C           4.9817   -1.7848   21.3151 C.3     1  UNL1        0.0327
      9 C           4.3468   -0.9830   20.2178 C.3     1  UNL1        0.0943
     10 N           4.5012   -1.4129   18.7891 N.am    1  UNL1       -0.2761
     11 C           3.8663   -0.6110   17.6918 C.2     1  UNL1        0.2490
     12 O           4.0207   -1.0410   16.2631 O.2     1  UNL1       -0.2699
     13 C           5.2905   -2.6446   18.4576 C.3     1  UNL1        0.0943
     14 C           5.9253   -3.4465   19.5549 C.3     1  UNL1        0.0327
     15 C           6.4058   -3.8184   22.0809 C.2     1  UNL1        0.3167
     16 O           6.0469   -3.5473   23.5119 O.2     1  UNL1       -0.2501
     17 C           8.4199   -5.3108   22.7635 C.3     1  UNL1        0.2556
     18 O           7.3995   -4.8913   21.7473 O.3     1  UNL1       -0.4444
     19 C           0.7094    4.3160   19.0177 C.3     1  UNL1        0.1822
     20 S          -0.7617    4.2129   19.2921 S.O2    1  UNL1        0.0129
     21 O          -1.0532    4.5827   17.8680 O.2     1  UNL1       -0.1683
     22 O          -0.4702    3.8430   20.7162 O.2     1  UNL1       -0.1683
     23 C          -2.2328    4.1098   19.5664 C.ar    1  UNL1        0.1066
     24 C          -2.7174    3.4338   20.8146 C.ar    1  UNL1        0.0199
     25 C          -4.1885    3.3307   21.0889 C.ar    1  UNL1        0.0210
     26 C          -5.1750    3.9037   20.1149 C.ar    1  UNL1        0.0893
     27 N          -6.6742    3.9529   20.1165 N.ar    1  UNL1       -0.2245
     28 C          -7.1161    4.6593   18.8693 C.ar    1  UNL1        0.1567
     29 N          -8.5351    4.9306   18.4653 N.pl3   1  UNL1       -0.3375
     30 S          -5.8900    5.0467   18.0968 S.2     1  UNL1       -0.0519
     31 C          -4.6904    4.5798   18.8667 C.ar    1  UNL1        0.0510
     32 C          -3.2193    4.6828   18.5925 C.ar    1  UNL1        0.0264
     33 H          -9.2762    4.6354   19.0422 H       1  UNL1        0.1442
     34 H          -8.7252    5.4039   17.6232 H       1  UNL1        0.1442
@<TRIPOS>BOND
     1    17    18    1
     2    18    15    1
     3    15    16    2
     4    15     7    1
     5     7     8    1
     6     8     9    1
     7     9    10    1
     8    10    11   am
     9    11    12    2
    10    11     1    1
    11     1     2   ar
    12     2     3   ar
    13     3     4   ar
    14     4    19    1
    15    19    20    1
    16    20    21    2
    17    20    22    2
    18    20    23    1
    19    23    24   ar
    20    24    25   ar
    21    25    26   ar
    22    26    27   ar
    23    27    28   ar
    24    28    29    1
    25    28    30   ar
    26    30    31   ar
    27    31    32   ar
    28     4     5   ar
    29     5     6   ar
    30    10    13    1
    31    13    14    1
    32    14     7    1
    33     6     1   ar
    34    32    23   ar
    35    31    26   ar
    36    29    33    1
    37    29    34    1
@<TRIPOS>MOLECULE
*****
 34 37 0 0 0
SMALL
GASTEIGER

@<TRIPOS>ATOM
      1 C           7.0564   -3.5429   31.6922 C.ar    1  UNL1        0.0536
      2 C           8.4249   -3.0446   32.0511 C.ar    1  UNL1        0.0042
      3 C           8.5776   -1.8552   32.9523 C.ar    1  UNL1       -0.0024
      4 C           7.3618   -1.1641   33.4944 C.ar    1  UNL1        0.0017
      5 C           5.9932   -1.6623   33.1355 C.ar    1  UNL1       -0.0024
      6 C           5.8405   -2.8517   32.2344 C.ar    1  UNL1        0.0042
      7 C           6.7029   -4.1654   26.3315 C.3     1  UNL1        0.1025
      8 C           6.8556   -2.9760   27.2326 C.3     1  UNL1        0.0327
      9 C           6.9225   -3.1649   28.7191 C.3     1  UNL1        0.0943
     10 N           6.8368   -4.5433   29.3045 N.am    1  UNL1       -0.2761
     11 C           6.9037   -4.7323   30.7911 C.2     1  UNL1        0.2490
     12 O           6.8180   -6.1106   31.3765 O.2     1  UNL1       -0.2699
     13 C           6.6841   -5.7327   28.4034 C.3     1  UNL1        0.0943
     14 C           6.6172   -5.5437   26.9169 C.3     1  UNL1        0.0327
     15 C           6.6360   -3.9764   24.8449 C.2     1  UNL1        0.3167
     16 O           7.7171   -4.5358   23.9683 O.2     1  UNL1       -0.2501
     17 C           5.0703   -3.5161   22.8234 C.3     1  UNL1        0.2556
     18 O           5.4880   -3.2280   24.2349 O.3     1  UNL1       -0.4444
     19 C           7.5144    0.0253   34.3956 C.3     1  UNL1        0.1822
     20 S           6.3033    0.6576   35.0146 S.O2    1  UNL1        0.0129
     21 O           6.4534   -0.2297   36.2146 O.2     1  UNL1       -0.1683
     22 O           6.1532    1.5449   33.8146 O.2     1  UNL1       -0.1683
     23 C           5.0921    1.2900   35.6337 C.ar    1  UNL1        0.1066
     24 C           4.4161    2.4422   34.9516 C.ar    1  UNL1        0.0199
     25 C           3.2050    3.0745   35.5707 C.ar    1  UNL1        0.0210
     26 C           2.6698    2.5545   36.8720 C.ar    1  UNL1        0.0893
     27 N           1.5020    2.9723   37.7157 N.ar    1  UNL1       -0.2245
     28 C           1.4563    2.0782   38.9192 C.ar    1  UNL1        0.1567
     29 N           0.4480    2.1430   40.0280 N.pl3   1  UNL1       -0.3375
     30 S           2.5958    1.1078   38.8193 S.2     1  UNL1       -0.0519
     31 C           3.3458    1.4022   37.5541 C.ar    1  UNL1        0.0510
     32 C           4.5569    0.7700   36.9350 C.ar    1  UNL1        0.0264
     33 H          -0.2671    2.8192   40.0041 H       1  UNL1        0.1442
     34 H           0.5014    1.5093   40.7795 H       1  UNL1        0.1442
@<TRIPOS>BOND
     1    17    18    1
     2    18    15    1
     3    15    16    2
     4    15     7    1
     5     7     8    1
     6     8     9    1
     7     9    10    1
     8    10    11   am
     9    11    12    2
    10    11     1    1
    11     1     2   ar
    12     2     3   ar
    13     3     4   ar
    14     4    19    1
    15    19    20    1
    16    20    21    2
    17    20    22    2
    18    20    23    1
    19    23    24   ar
    20    24    25   ar
    21    25    26   ar
    22    26    27   ar
    23    27    28   ar
    24    28    29    1
    25    28    30   ar
    26    30    31   ar
    27    31    32   ar
    28     4     5   ar
    29     5     6   ar
    30    10    13    1
    31    13    14    1
    32    14     7    1
    33     6     1   ar
    34    32    23   ar
    35    31    26   ar
    36    29    33    1
    37    29    34    1
@<TRIPOS>MOLECULE
*****
 34 37 0 0 0
SMALL
GASTEIGER

@<TRIPOS>ATOM
      1 C           2.8655    0.2112   18.3426 C.ar    1  UNL1        0.0536
      2 C           1.6186   -0.2569   19.0325 C.ar    1  UNL1        0.0042
      3 C           0.6511    0.7430   19.5932 C.ar    1  UNL1       -0.0024
      4 C           0.9306    2.2110   19.4639 C.ar    1  UNL1        0.0017
      5 C           2.1776    2.6792   18.7740 C.ar    1  UNL1       -0.0024
      6 C           3.1450    1.6793   18.2133 C.ar    1  UNL1        0.0042
      7 C           6.4374   -3.1967   20.5510 C.3     1  UNL1        0.1025
      8 C           5.4700   -2.1968   21.1117 C.3     1  UNL1        0.0327
      9 C           4.6018   -1.3942   20.1887 C.3     1  UNL1        0.0943
     10 N           4.7011   -1.5914   18.7051 N.am    1  UNL1       -0.2761
     11 C           3.8329   -0.7887   17.7820 C.2     1  UNL1        0.2490
     12 O           3.9322   -0.9859   16.2984 O.2     1  UNL1       -0.2699
     13 C           5.6685   -2.5913   18.1444 C.3     1  UNL1        0.0943
     14 C           6.5367   -3.3939   19.0674 C.3     1  UNL1        0.0327
     15 C           7.3056   -3.9994   21.4741 C.2     1  UNL1        0.3167
     16 O           7.9280   -5.2777   20.9959 O.2     1  UNL1       -0.2501
     17 C           6.8928   -4.2194   24.0297 C.3     1  UNL1        0.2556
     18 O           7.5513   -3.5239   22.8753 O.3     1  UNL1       -0.4444
     19 C          -0.0368    3.2109   20.0246 C.3     1  UNL1        0.1822
     20 S          -0.4374    3.1389   21.4682 S.O2    1  UNL1        0.0129
     21 O          -1.8096    2.6869   21.0650 O.2     1  UNL1       -0.1683
     22 O           0.9348    3.5909   21.8715 O.2     1  UNL1       -0.1683
     23 C          -0.8381    3.0669   22.9120 C.ar    1  UNL1        0.1066
     24 C          -2.0581    3.7976   23.3891 C.ar    1  UNL1        0.0199
     25 C          -2.4587    3.7256   24.8328 C.ar    1  UNL1        0.0210
     26 C          -1.6393    2.9230   25.7994 C.ar    1  UNL1        0.0893
     27 N          -1.7864    2.6685   27.2704 N.ar    1  UNL1       -0.2245
     28 C          -0.6573    1.7806   27.7023 C.ar    1  UNL1        0.1567
     29 N          -0.4155    1.2755   29.0940 N.pl3   1  UNL1       -0.3375
     30 S           0.1876    1.4862   26.4983 S.2     1  UNL1       -0.0519
     31 C          -0.4193    2.1923   25.3223 C.ar    1  UNL1        0.0510
     32 C          -0.0187    2.2643   23.8786 C.ar    1  UNL1        0.0264
     33 H          -1.0296    1.5251   29.8218 H       1  UNL1        0.1442
     34 H           0.3573    0.6945   29.2794 H       1  UNL1        0.1442
@<TRIPOS>BOND
     1    17    18    1
     2    18    15    1
     3    15    16    2
     4    15     7    1
     5     7     8    1
     6     8     9    1
     7     9    10    1
     8    10    11   am
     9    11    12    2
    10    11     1    1
    11     1     2   ar
    12     2     3   ar
    13     3     4   ar
    14     4    19    1
    15    19    20    1
    16    20    21    2
    17    20    22    2
    18    20    23    1
    19    23    24   ar
    20    24    25   ar
    21    25    26   ar
    22    26    27   ar
    23    27    28   ar
    24    28    29    1
    25    28    30   ar
    26    30    31   ar
    27    31    32   ar
    28     4     5   ar
    29     5     6   ar
    30    10    13    1
    31    13    14    1
    32    14     7    1
    33     6     1   ar
    34    32    23   ar
    35    31    26   ar
    36    29    33    1
    37    29    34    1
@<TRIPOS>MOLECULE
*****
 34 37 0 0 0
SMALL
GASTEIGER

@<TRIPOS>ATOM
      1 C           2.5986   -0.6052   19.9173 C.ar    1  UNL1        0.0536
      2 C           3.1912    0.7237   19.5529 C.ar    1  UNL1        0.0042
      3 C           2.3248    1.9478   19.5206 C.ar    1  UNL1       -0.0024
      4 C           0.8658    1.8429   19.8526 C.ar    1  UNL1        0.0017
      5 C           0.2731    0.5140   20.2170 C.ar    1  UNL1       -0.0024
      6 C           1.1395   -0.7101   20.2493 C.ar    1  UNL1        0.0042
      7 C           5.4546   -3.0769   23.7882 C.3     1  UNL1        0.1025
      8 C           4.5882   -1.8528   23.7559 C.3     1  UNL1        0.0327
      9 C           3.9250   -1.4370   22.4764 C.3     1  UNL1        0.0943
     10 N           4.1282   -2.2451   21.2292 N.am    1  UNL1       -0.2761
     11 C           3.4650   -1.8293   19.9496 C.2     1  UNL1        0.2490
     12 O           3.6681   -2.6374   18.7024 O.2     1  UNL1       -0.2699
     13 C           4.9946   -3.4692   21.2615 C.3     1  UNL1        0.0943
     14 C           5.6577   -3.8851   22.5410 C.3     1  UNL1        0.0327
     15 C           6.1178   -3.4928   25.0678 C.2     1  UNL1        0.3167
     16 O           5.9831   -2.6395   26.2941 O.2     1  UNL1       -0.2501
     17 C           7.9786   -4.9362   26.1648 C.3     1  UNL1        0.2556
     18 O           6.9156   -4.7619   25.1210 O.3     1  UNL1       -0.4444
     19 C          -0.0006    3.0670   19.8203 C.3     1  UNL1        0.1822
     20 S          -1.1045    3.2312   20.8225 S.O2    1  UNL1        0.0129
     21 O          -0.0892    3.3804   21.9165 O.2     1  UNL1       -0.1683
     22 O          -2.1198    3.0820   19.7285 O.2     1  UNL1       -0.1683
     23 C          -2.2085    3.3954   21.8247 C.ar    1  UNL1        0.1066
     24 C          -3.6394    3.2810   21.3898 C.ar    1  UNL1        0.0199
     25 C          -4.7433    3.4451   22.3920 C.ar    1  UNL1        0.0210
     26 C          -4.4162    3.7237   23.8292 C.ar    1  UNL1        0.0893
     27 N          -5.2850    3.9315   25.0343 N.ar    1  UNL1       -0.2245
     28 C          -4.3909    4.1743   26.2139 C.ar    1  UNL1        0.1567
     29 N          -4.8393    4.4300   27.6224 N.pl3   1  UNL1       -0.3375
     30 S          -2.9695    4.1166   25.7379 S.2     1  UNL1       -0.0519
     31 C          -2.9852    3.8381   24.2641 C.ar    1  UNL1        0.0510
     32 C          -1.8813    3.6739   23.2619 C.ar    1  UNL1        0.0264
     33 H          -5.7999    4.4488   27.8374 H       1  UNL1        0.1442
     34 H          -4.1731    4.5789   28.3317 H       1  UNL1        0.1442
@<TRIPOS>BOND
     1    17    18    1
     2    18    15    1
     3    15    16    2
     4    15     7    1
     5     7     8    1
     6     8     9    1
     7     9    10    1
     8    10    11   am
     9    11    12    2
    10    11     1    1
    11     1     2   ar
    12     2     3   ar
    13     3     4   ar
    14     4    19    1
    15    19    20    1
    16    20    21    2
    17    20    22    2
    18    20    23    1
    19    23    24   ar
    20    24    25   ar
    21    25    26   ar
    22    26    27   ar
    23    27    28   ar
    24    28    29    1
    25    28    30   ar
    26    30    31   ar
    27    31    32   ar
    28     4     5   ar
    29     5     6   ar
    30    10    13    1
    31    13    14    1
    32    14     7    1
    33     6     1   ar
    34    32    23   ar
    35    31    26   ar
    36    29    33    1
    37    29    34    1
