@<TRIPOS>MOLECULE
*****
 18 19 0 0 0
SMALL
GASTEIGER

@<TRIPOS>ATOM
      1 C         -12.0357  -17.8193   22.6834 C.2     1  UNL1        0.1223
      2 C         -11.6106  -16.4646   22.1996 C.2     1  UNL1        0.0343
      3 C         -10.1822  -16.2208   21.8119 C.2     1  UNL1        0.0232
      4 C          -9.1790  -17.3318   21.9079 C.2     1  UNL1        0.0975
      5 N          -7.7124  -17.3893   21.5982 N.2     1  UNL1       -0.2200
      6 C          -7.2311  -18.7796   21.8906 C.2     1  UNL1        0.1898
      7 N          -8.4002  -19.5813   22.3809 N.2     1  UNL1       -0.2236
      8 C          -9.6041  -18.6865   22.3916 C.2     1  UNL1        0.0863
      9 C         -11.0325  -18.9302   22.7794 C.3     1  UNL1        0.1112
     10 C         -13.8391  -18.1781   24.5189 C.3     1  UNL1        0.2520
     11 O         -13.4641  -18.0631   23.0711 O.2     1  UNL1       -0.4753
     12 S          -5.8272  -19.2803   21.7221 S.3     1  UNL1       -0.0757
     13 C          -5.3095  -19.6157   20.3548 C.3     1  UNL1        0.0655
     14 C          -3.9992  -20.3298   20.2033 C.3     1  UNL1        0.0180
     15 C          -2.7685  -19.7880   20.8679 C.3     1  UNL1        0.0426
     16 C          -2.0059  -18.6637   20.2318 C.2     1  UNL1        0.0504
     17 O          -0.5592  -18.8441   19.8788 O.co2   1  UNL1       -0.5492
     18 O          -2.6900  -17.3592   19.9488 O.co2   1  UNL1       -0.5492
@<TRIPOS>UNITY_ATOM_ATTR
17 1
charge -1
@<TRIPOS>BOND
     1    10    11    1
     2    11     1    1
     3     1     2    2
     4     2     3    1
     5     3     4    2
     6     4     5    1
     7     5     6    2
     8     6    12    1
     9    12    13    1
    10    13    14    1
    11    14    15    1
    12    15    16    1
    13    16    17   ar
    14    16    18   ar
    15     6     7    1
    16     7     8    2
    17     8     9    1
    18     9     1    1
    19     8     4    1
@<TRIPOS>MOLECULE
*****
 18 19 0 0 0
SMALL
GASTEIGER

@<TRIPOS>ATOM
      1 C          -7.3400  -15.5043   25.8679 C.2     1  UNL1        0.1223
      2 C          -6.1612  -15.6101   24.9464 C.2     1  UNL1        0.0343
      3 C          -6.3609  -16.0180   23.5169 C.2     1  UNL1        0.0232
      4 C          -7.7394  -16.3202   23.0087 C.2     1  UNL1        0.0975
      5 N          -8.2418  -16.7427   21.6600 N.2     1  UNL1       -0.2200
      6 C          -9.7311  -16.8982   21.7479 C.2     1  UNL1        0.1898
      7 N         -10.1492  -16.5717   23.1509 N.2     1  UNL1       -0.2236
      8 C          -8.9183  -16.2144   23.9301 C.2     1  UNL1        0.0863
      9 C          -8.7186  -15.8065   25.3597 C.3     1  UNL1        0.1112
     10 C          -8.3078  -14.6257   28.1132 C.3     1  UNL1        0.2520
     11 O          -7.1403  -15.0964   27.2975 O.2     1  UNL1       -0.4753
     12 S         -10.6423  -17.3082   20.6290 S.3     1  UNL1       -0.0757
     13 C         -11.4372  -18.5758   20.7354 C.3     1  UNL1        0.0655
     14 C         -10.7930  -19.8228   21.2646 C.3     1  UNL1        0.0180
     15 C         -10.8735  -20.1458   22.7272 C.3     1  UNL1        0.0426
     16 C          -9.6261  -20.1685   23.5599 C.2     1  UNL1        0.0504
     17 O          -9.7170  -20.3883   25.0410 O.co2   1  UNL1       -0.5492
     18 O          -8.2879  -19.9712   22.9117 O.co2   1  UNL1       -0.5492
@<TRIPOS>UNITY_ATOM_ATTR
17 1
charge -1
@<TRIPOS>BOND
     1    10    11    1
     2    11     1    1
     3     1     2    2
     4     2     3    1
     5     3     4    2
     6     4     5    1
     7     5     6    2
     8     6    12    1
     9    12    13    1
    10    13    14    1
    11    14    15    1
    12    15    16    1
    13    16    17   ar
    14    16    18   ar
    15     6     7    1
    16     7     8    2
    17     8     9    1
    18     9     1    1
    19     8     4    1
@<TRIPOS>MOLECULE
*****
 18 19 0 0 0
SMALL
GASTEIGER

@<TRIPOS>ATOM
      1 C          -9.3970  -16.5599   23.0839 C.2     1  UNL1        0.1223
      2 C          -8.5395  -15.5851   23.8352 C.2     1  UNL1        0.0343
      3 C          -7.0543  -15.7856   23.8977 C.2     1  UNL1        0.0232
      4 C          -6.4266  -16.9610   23.2090 C.2     1  UNL1        0.0975
      5 N          -5.0014  -17.4154   23.0974 N.2     1  UNL1       -0.2200
      6 C          -4.9781  -18.6710   22.2771 C.2     1  UNL1        0.1898
      7 N          -6.3888  -18.9927   21.8818 N.2     1  UNL1       -0.2236
      8 C          -7.2840  -17.9359   22.4578 C.2     1  UNL1        0.0863
      9 C          -8.7693  -17.7353   22.3952 C.3     1  UNL1        0.1112
     10 C         -11.7509  -17.3888   22.3615 C.3     1  UNL1        0.2520
     11 O         -10.8822  -16.3593   23.0214 O.2     1  UNL1       -0.4753
     12 S          -3.7581  -19.4654   21.9156 S.3     1  UNL1       -0.0757
     13 C          -3.6538  -20.1059   20.5632 C.3     1  UNL1        0.0655
     14 C          -3.1154  -19.3234   19.4023 C.3     1  UNL1        0.0180
     15 C          -2.5827  -17.9374   19.6145 C.3     1  UNL1        0.0426
     16 C          -1.1250  -17.7297   19.9006 C.2     1  UNL1        0.0504
     17 O          -0.6382  -16.3960   20.3846 O.co2   1  UNL1       -0.5492
     18 O          -0.1540  -18.8558   19.7027 O.co2   1  UNL1       -0.5492
@<TRIPOS>UNITY_ATOM_ATTR
17 1
charge -1
@<TRIPOS>BOND
     1    10    11    1
     2    11     1    1
     3     1     2    2
     4     2     3    1
     5     3     4    2
     6     4     5    1
     7     5     6    2
     8     6    12    1
     9    12    13    1
    10    13    14    1
    11    14    15    1
    12    15    16    1
    13    16    17   ar
    14    16    18   ar
    15     6     7    1
    16     7     8    2
    17     8     9    1
    18     9     1    1
    19     8     4    1
@<TRIPOS>MOLECULE
*****
 18 19 0 0 0
SMALL
GASTEIGER

@<TRIPOS>ATOM
      1 C         -11.7200   -4.8599   19.2522 C.2     1  UNL1        0.1223
      2 C         -12.3509   -3.5074   19.4023 C.2     1  UNL1        0.0343
      3 C         -13.8422   -3.3824   19.5035 C.2     1  UNL1        0.0232
      4 C         -14.7027   -4.6100   19.4546 C.2     1  UNL1        0.0975
      5 N         -16.1891   -4.7976   19.5296 N.2     1  UNL1       -0.2200
      6 C         -16.4768   -6.2661   19.4259 C.2     1  UNL1        0.1898
      7 N         -15.1683   -6.9861   19.2867 N.2     1  UNL1       -0.2236
      8 C         -14.0719   -5.9626   19.3044 C.2     1  UNL1        0.0863
      9 C         -12.5805   -6.0875   19.2032 C.3     1  UNL1        0.1112
     10 C          -9.5794   -5.1526   17.8093 C.3     1  UNL1        0.2520
     11 O         -10.2287   -4.9848   19.1510 O.2     1  UNL1       -0.4753
     12 S         -17.8347   -6.9028   19.4560 S.3     1  UNL1       -0.0757
     13 C         -18.0449   -8.1860   20.2038 C.3     1  UNL1        0.0655
     14 C         -18.5475   -9.4010   19.4819 C.3     1  UNL1        0.0180
     15 C         -17.8007   -9.9296   18.2932 C.3     1  UNL1        0.0426
     16 C         -16.5509  -10.7352   18.4903 C.2     1  UNL1        0.0504
     17 O         -15.2207  -10.1643   18.0967 O.co2   1  UNL1       -0.5492
     18 O         -16.6311  -12.1117   19.0809 O.co2   1  UNL1       -0.5492
@<TRIPOS>UNITY_ATOM_ATTR
17 1
charge -1
@<TRIPOS>BOND
     1    10    11    1
     2    11     1    1
     3     1     2    2
     4     2     3    1
     5     3     4    2
     6     4     5    1
     7     5     6    2
     8     6    12    1
     9    12    13    1
    10    13    14    1
    11    14    15    1
    12    15    16    1
    13    16    17   ar
    14    16    18   ar
    15     6     7    1
    16     7     8    2
    17     8     9    1
    18     9     1    1
    19     8     4    1
@<TRIPOS>MOLECULE
*****
 18 19 0 0 0
SMALL
GASTEIGER

@<TRIPOS>ATOM
      1 C         -17.3492   -9.0173   19.1211 C.2     1  UNL1        0.1223
      2 C         -16.2842   -9.8398   18.4584 C.2     1  UNL1        0.0343
      3 C         -14.9245   -9.2536   18.2183 C.2     1  UNL1        0.0232
      4 C         -14.6298   -7.8448   18.6409 C.2     1  UNL1        0.0975
      5 N         -13.3924   -7.0036   18.5364 N.2     1  UNL1       -0.2200
      6 C         -13.6926   -5.6611   19.1345 C.2     1  UNL1        0.1898
      7 N         -15.1156   -5.6727   19.6087 N.2     1  UNL1       -0.2236
      8 C         -15.6948   -7.0223   19.3036 C.2     1  UNL1        0.0863
      9 C         -17.0545   -7.6085   19.5437 C.3     1  UNL1        0.1112
     10 C         -19.9315   -8.8900   18.8651 C.3     1  UNL1        0.2520
     11 O         -18.7089   -9.6035   19.3612 O.2     1  UNL1       -0.4753
     12 S         -12.7374   -4.5093   19.2399 S.3     1  UNL1       -0.0757
     13 C         -12.0852   -3.9605   18.0056 C.3     1  UNL1        0.0655
     14 C         -11.4518   -4.8917   17.0148 C.3     1  UNL1        0.0180
     15 C         -10.0120   -5.2837   17.1683 C.3     1  UNL1        0.0426
     16 C          -9.5614   -6.0176   18.3964 C.2     1  UNL1        0.0504
     17 O          -9.2060   -5.2545   19.6380 O.co2   1  UNL1       -0.5492
     18 O          -9.4660   -7.5145   18.3829 O.co2   1  UNL1       -0.5492
@<TRIPOS>UNITY_ATOM_ATTR
17 1
charge -1
@<TRIPOS>BOND
     1    10    11    1
     2    11     1    1
     3     1     2    2
     4     2     3    1
     5     3     4    2
     6     4     5    1
     7     5     6    2
     8     6    12    1
     9    12    13    1
    10    13    14    1
    11    14    15    1
    12    15    16    1
    13    16    17   ar
    14    16    18   ar
    15     6     7    1
    16     7     8    2
    17     8     9    1
    18     9     1    1
    19     8     4    1
@<TRIPOS>MOLECULE
*****
 18 19 0 0 0
SMALL
GASTEIGER

@<TRIPOS>ATOM
      1 C         -16.8090   -8.1664   19.5849 C.2     1  UNL1        0.1223
      2 C         -16.4867   -9.4541   18.8865 C.2     1  UNL1        0.0343
      3 C         -15.2341   -9.5711   18.0697 C.2     1  UNL1        0.0232
      4 C         -14.3037   -8.4005   17.9513 C.2     1  UNL1        0.0975
      5 N         -13.0055   -8.2199   17.2220 N.2     1  UNL1       -0.2200
      6 C         -12.5254   -6.8205   17.4697 C.2     1  UNL1        0.1898
      7 N         -13.5270   -6.1362   18.3521 N.2     1  UNL1       -0.2236
      8 C         -14.6261   -7.1128   18.6497 C.2     1  UNL1        0.0863
      9 C         -15.8787   -6.9957   19.4665 C.3     1  UNL1        0.1112
     10 C         -19.3937   -7.9400   19.7207 C.3     1  UNL1        0.2520
     11 O         -18.0617   -8.0493   20.4017 O.2     1  UNL1       -0.4753
     12 S         -11.2651   -6.2122   16.9297 S.3     1  UNL1       -0.0757
     13 C         -10.0672   -6.0554   17.8189 C.3     1  UNL1        0.0655
     14 C         -10.0895   -5.0571   18.9381 C.3     1  UNL1        0.0180
     15 C         -10.3085   -3.6030   18.6419 C.3     1  UNL1        0.0426
     16 C         -11.7019   -3.0508   18.5848 C.2     1  UNL1        0.0504
     17 O         -12.2628   -2.5637   17.2817 O.co2   1  UNL1       -0.5492
     18 O         -12.5345   -2.9858   19.8308 O.co2   1  UNL1       -0.5492
@<TRIPOS>UNITY_ATOM_ATTR
17 1
charge -1
@<TRIPOS>BOND
     1    10    11    1
     2    11     1    1
     3     1     2    2
     4     2     3    1
     5     3     4    2
     6     4     5    1
     7     5     6    2
     8     6    12    1
     9    12    13    1
    10    13    14    1
    11    14    15    1
    12    15    16    1
    13    16    17   ar
    14    16    18   ar
    15     6     7    1
    16     7     8    2
    17     8     9    1
    18     9     1    1
    19     8     4    1
@<TRIPOS>MOLECULE
*****
 18 19 0 0 0
SMALL
GASTEIGER

@<TRIPOS>ATOM
      1 C         -15.5798   -0.3456   19.5970 C.2     1  UNL1        0.1223
      2 C         -14.8822    0.8306   18.9806 C.2     1  UNL1        0.0343
      3 C         -13.6337    0.6246   18.1752 C.2     1  UNL1        0.0232
      4 C         -13.0827   -0.7577   17.9861 C.2     1  UNL1        0.0975
      5 N         -11.8791   -1.2664   17.2496 N.2     1  UNL1       -0.2200
      6 C         -11.8327   -2.7570   17.4108 C.2     1  UNL1        0.1898
      7 N         -13.0077   -3.1695   18.2469 N.2     1  UNL1       -0.2236
      8 C         -13.7803   -1.9338   18.6025 C.2     1  UNL1        0.0863
      9 C         -15.0288   -1.7278   19.4080 C.3     1  UNL1        0.1112
     10 C         -18.0814   -0.8832   20.0469 C.3     1  UNL1        0.2520
     11 O         -16.8283   -0.1395   20.4025 O.2     1  UNL1       -0.4753
     12 S         -10.7937   -3.6740   16.8366 S.3     1  UNL1       -0.0757
     13 C          -9.6511   -4.1401   17.6893 C.3     1  UNL1        0.0655
     14 C          -9.9213   -4.8511   18.9821 C.3     1  UNL1        0.0180
     15 C         -10.7328   -6.1127   18.9888 C.3     1  UNL1        0.0426
     16 C         -10.4113   -7.2164   18.0253 C.2     1  UNL1        0.0504
     17 O         -11.2611   -7.4186   16.8059 O.co2   1  UNL1       -0.5492
     18 O          -9.2400   -8.1178   18.2811 O.co2   1  UNL1       -0.5492
@<TRIPOS>UNITY_ATOM_ATTR
17 1
charge -1
@<TRIPOS>BOND
     1    10    11    1
     2    11     1    1
     3     1     2    2
     4     2     3    1
     5     3     4    2
     6     4     5    1
     7     5     6    2
     8     6    12    1
     9    12    13    1
    10    13    14    1
    11    14    15    1
    12    15    16    1
    13    16    17   ar
    14    16    18   ar
    15     6     7    1
    16     7     8    2
    17     8     9    1
    18     9     1    1
    19     8     4    1
@<TRIPOS>MOLECULE
*****
 18 19 0 0 0
SMALL
GASTEIGER

@<TRIPOS>ATOM
      1 C           0.1552    5.5057   33.2399 C.2     1  UNL1        0.1223
      2 C           0.1700    6.4204   34.4286 C.2     1  UNL1        0.0343
      3 C           0.8693    6.0022   35.6880 C.2     1  UNL1        0.0232
      4 C           1.5538    4.6694   35.7587 C.2     1  UNL1        0.0975
      5 N           2.3182    3.9906   36.8564 N.2     1  UNL1       -0.2200
      6 C           2.7757    2.6563   36.3461 C.2     1  UNL1        0.1898
      7 N           2.2941    2.5105   34.9330 N.2     1  UNL1       -0.2236
      8 C           1.5389    3.7547   34.5700 C.2     1  UNL1        0.0863
      9 C           0.8396    4.1729   33.3106 C.3     1  UNL1        0.1112
     10 C           0.2188    6.6265   30.8969 C.3     1  UNL1        0.2520
     11 O          -0.5441    5.9238   31.9805 O.2     1  UNL1       -0.4753
     12 S           3.5746    1.6453   37.1141 S.3     1  UNL1       -0.0757
     13 C           3.1979    1.3076   38.5262 C.3     1  UNL1        0.0655
     14 C           2.0827    0.3410   38.7942 C.3     1  UNL1        0.0180
     15 C           1.0953    0.6198   39.8884 C.3     1  UNL1        0.0426
     16 C           0.5378    2.0016   40.0614 C.2     1  UNL1        0.0504
     17 O          -0.0362    2.7317   38.8834 O.co2   1  UNL1       -0.5492
     18 O           0.5541    2.6532   41.4123 O.co2   1  UNL1       -0.5492
@<TRIPOS>UNITY_ATOM_ATTR
17 1
charge -1
@<TRIPOS>BOND
     1    10    11    1
     2    11     1    1
     3     1     2    2
     4     2     3    1
     5     3     4    2
     6     4     5    1
     7     5     6    2
     8     6    12    1
     9    12    13    1
    10    13    14    1
    11    14    15    1
    12    15    16    1
    13    16    17   ar
    14    16    18   ar
    15     6     7    1
    16     7     8    2
    17     8     9    1
    18     9     1    1
    19     8     4    1
@<TRIPOS>MOLECULE
*****
 18 19 0 0 0
SMALL
GASTEIGER

@<TRIPOS>ATOM
      1 C           0.6920    1.8526   19.2019 C.2     1  UNL1        0.1223
      2 C           0.1652    0.8957   20.2299 C.2     1  UNL1        0.0343
      3 C           0.8632   -0.4109   20.4657 C.2     1  UNL1        0.0232
      4 C           2.0879   -0.7607   19.6735 C.2     1  UNL1        0.0975
      5 N           2.9809   -1.9659   19.6856 N.2     1  UNL1       -0.2200
      6 C           4.0596   -1.7538   18.6651 C.2     1  UNL1        0.1898
      7 N           3.8333   -0.4176   18.0222 N.2     1  UNL1       -0.2236
      8 C           2.6147    0.1962   18.6455 C.2     1  UNL1        0.0863
      9 C           1.9168    1.5028   18.4097 C.3     1  UNL1        0.1112
     10 C          -0.5688    3.4752   17.6121 C.3     1  UNL1        0.2520
     11 O          -0.0059    3.1592   18.9661 O.2     1  UNL1       -0.4753
     12 S           5.1697   -2.7102   18.3439 S.3     1  UNL1       -0.0757
     13 C           6.4876   -2.5941   19.0506 C.3     1  UNL1        0.0655
     14 C           6.8116   -3.5149   20.1895 C.3     1  UNL1        0.0180
     15 C           6.3418   -3.1873   21.5759 C.3     1  UNL1        0.0426
     16 C           5.0294   -3.7210   22.0687 C.2     1  UNL1        0.0504
     17 O           4.2827   -4.7399   21.2597 O.co2   1  UNL1       -0.5492
     18 O           4.4638   -3.2358   23.3705 O.co2   1  UNL1       -0.5492
@<TRIPOS>UNITY_ATOM_ATTR
17 1
charge -1
@<TRIPOS>BOND
     1    10    11    1
     2    11     1    1
     3     1     2    2
     4     2     3    1
     5     3     4    2
     6     4     5    1
     7     5     6    2
     8     6    12    1
     9    12    13    1
    10    13    14    1
    11    14    15    1
    12    15    16    1
    13    16    17   ar
    14    16    18   ar
    15     6     7    1
    16     7     8    2
    17     8     9    1
    18     9     1    1
    19     8     4    1
