@<TRIPOS>MOLECULE
*****
 46 48 0 0 0
SMALL
GASTEIGER

@<TRIPOS>ATOM
      1 C           1.3049    2.1505   18.8952 C.ar    1  UNL1        0.0530
      2 S           1.5578    0.7052   18.5835 S.2     1  UNL1       -0.0619
      3 C           2.9765    0.5735   18.1144 C.ar    1  UNL1        0.1641
      4 N           3.6004    1.9374   18.1363 N.ar    1  UNL1       -0.2291
      5 C           2.5673    2.9120   18.6188 C.ar    1  UNL1        0.1413
      6 C           2.7624    4.3889   18.7942 C.2     1  UNL1        0.2672
      7 O           2.1929    5.3453   17.7887 O.2     1  UNL1       -0.2682
      8 N           3.5270    4.9094   19.9750 N.am    1  UNL1       -0.2765
      9 C           3.7221    6.3863   20.1504 C.3     1  UNL1        0.0937
     10 C           4.4867    6.9068   21.3313 C.3     1  UNL1        0.0216
     11 C           5.0563    5.9505   22.3368 C.3     1  UNL1        0.0035
     12 C           4.8612    4.4736   22.1614 C.3     1  UNL1        0.0199
     13 C           4.0966    3.9531   20.9806 C.3     1  UNL1        0.0757
     14 C           3.9015    2.4762   20.8052 C.3     1  UNL1        0.0215
     15 C          -2.5620    3.8953   20.3961 C.ar    1  UNL1        0.1491
     16 C          -2.2071    3.9980   18.9423 C.ar    1  UNL1        0.0222
     17 C          -0.9181    3.4164   18.4420 C.ar    1  UNL1        0.0019
     18 C           0.0160    2.7321   19.3955 C.ar    1  UNL1        0.0112
     19 C          -0.3389    2.6294   20.8493 C.ar    1  UNL1        0.0729
     20 C          -1.6279    3.2110   21.3496 C.ar    1  UNL1        0.1599
     21 F          -1.9827    3.1084   22.8034 F       1  UNL1       -0.2029
     22 S          -3.8509    4.4770   20.8964 S.O2    1  UNL1        0.0626
     23 O          -3.1259    5.7203   21.3188 O.2     1  UNL1       -0.1529
     24 O          -4.5759    3.2336   20.4740 O.2     1  UNL1       -0.1529
     25 N          -5.1399    5.0586   21.3967 N.3     1  UNL1       -0.1723
     26 H          -4.9667    6.0477   21.5759 H       1  UNL1        0.1491
     27 C          -5.7851    4.5014   22.6309 C.3     1  UNL1        0.1700
     28 C          -4.9442    4.1431   23.8202 C.3     1  UNL1        0.4118
     29 F          -4.1034    3.7848   25.0096 F       1  UNL1       -0.1685
     30 F          -4.7755    5.5990   24.1396 F       1  UNL1       -0.1685
     31 F          -5.1129    2.6872   23.5009 F       1  UNL1       -0.1685
     32 C          -8.0372    4.6495   23.9178 C.3     1  UNL1        0.0018
     33 C          -7.2712    4.3025   22.6757 C.3     1  UNL1        0.0261
     34 C           0.5952    1.9451   21.8028 C.3     1  UNL1        0.3432
     35 F           0.7207    0.4505   21.7871 F       1  UNL1       -0.1932
     36 F           1.4038    2.7555   22.7721 F       1  UNL1       -0.1932
     37 C           3.6525   -0.6988   17.6968 C.2     1  UNL1        0.2699
     38 O           3.9539   -0.9476   16.2486 O.2     1  UNL1       -0.2679
     39 N           4.0272   -1.7222   18.7274 N.am    1  UNL1       -0.2969
     40 H           3.8294   -1.5589   19.6779 H       1  UNL1        0.1499
     41 C           4.7032   -2.9944   18.3098 C.3     1  UNL1        0.1166
     42 C           5.4075   -3.8393   19.3299 C.3     1  UNL1        0.1064
     43 C           4.6102   -5.0322   18.8924 C.3     1  UNL1        0.0311
     44 C           6.2047   -2.6463   19.7674 C.3     1  UNL1        0.0311
     45 O           6.1118   -4.6840   20.3499 O.3     1  UNL1       -0.3851
     46 H           5.7775   -5.5934   20.3031 H       1  UNL1        0.2103
@<TRIPOS>BOND
     1    32    33    1
     2    27    33    1
     3    27    25    1
     4    25    22    1
     5    22    23    2
     6    22    24    2
     7    22    15    1
     8    15    16   ar
     9    16    17   ar
    10    17    18   ar
    11    18     1    1
    12     1     2   ar
    13     2     3   ar
    14     3    37    1
    15    37    38    2
    16    37    39   am
    17    39    41    1
    18    41    42    1
    19    42    43    1
    20    42    44    1
    21    42    45    1
    22     3     4   ar
    23     4     5   ar
    24     5     6    1
    25     6     7    2
    26     6     8   am
    27     8     9    1
    28     9    10    1
    29    10    11    1
    30    11    12    1
    31    12    13    1
    32    13    14    1
    33    18    19   ar
    34    19    34    1
    35    34    35    1
    36    34    36    1
    37    19    20   ar
    38    20    21    1
    39    27    28    1
    40    28    29    1
    41    28    30    1
    42    28    31    1
    43    20    15   ar
    44     5     1   ar
    45    13     8    1
    46    25    26    1
    47    39    40    1
    48    45    46    1
@<TRIPOS>MOLECULE
*****
 46 48 0 0 0
SMALL
GASTEIGER

@<TRIPOS>ATOM
      1 C          -0.1763    2.4731   24.9611 C.ar    1  UNL1        0.0530
      2 S          -1.6238    2.7210   24.6557 S.2     1  UNL1       -0.0619
      3 C          -2.2167    3.4806   25.8053 C.ar    1  UNL1        0.1641
      4 N          -1.1355    3.7023   26.8212 N.ar    1  UNL1       -0.2291
      5 C           0.1255    3.0796   26.2995 C.ar    1  UNL1        0.1413
      6 C           1.4548    3.0659   26.9941 C.2     1  UNL1        0.2672
      7 O           2.4674    4.1320   26.6970 O.2     1  UNL1       -0.2682
      8 N           1.7718    1.9862   27.9859 N.am    1  UNL1       -0.2765
      9 C           3.1011    1.9724   28.6805 C.3     1  UNL1        0.0937
     10 C           3.4180    0.8926   29.6723 C.3     1  UNL1        0.0216
     11 C           2.4056   -0.1735   29.9694 C.3     1  UNL1        0.0035
     12 C           1.0761   -0.1598   29.2748 C.3     1  UNL1        0.0199
     13 C           0.7593    0.9200   28.2830 C.3     1  UNL1        0.0757
     14 C          -0.5701    0.9337   27.5884 C.3     1  UNL1        0.0215
     15 C           2.7476    0.2930   22.3252 C.ar    1  UNL1        0.1491
     16 C           2.6229   -0.0771   23.7734 C.ar    1  UNL1        0.0222
     17 C           1.6483    0.6496   24.6521 C.ar    1  UNL1        0.0019
     18 C           0.7983    1.7464   24.0825 C.ar    1  UNL1        0.0112
     19 C           0.9230    2.1165   22.6343 C.ar    1  UNL1        0.0729
     20 C           1.8976    1.3898   21.7556 C.ar    1  UNL1        0.1599
     21 F           2.0222    1.7600   20.3073 F       1  UNL1       -0.2029
     22 S           3.7222   -0.4337   21.4466 S.O2    1  UNL1        0.0626
     23 O           2.8356   -1.6435   21.4637 O.2     1  UNL1       -0.1529
     24 O           4.6088    0.7761   21.4294 O.2     1  UNL1       -0.1529
     25 N           4.6968   -1.1604   20.5679 N.3     1  UNL1       -0.1723
     26 H           5.4917   -0.5362   20.4307 H       1  UNL1        0.1491
     27 C           4.2746   -1.6294   19.2071 C.3     1  UNL1        0.1700
     28 C           4.5797   -3.0311   18.7688 C.3     1  UNL1        0.4118
     29 F           4.8848   -4.4328   18.3305 F       1  UNL1       -0.1685
     30 F           5.9974   -2.6331   18.4830 F       1  UNL1       -0.1685
     31 F           3.1620   -3.4290   19.0547 F       1  UNL1       -0.1685
     32 C           3.7809   -0.7720   16.8048 C.3     1  UNL1        0.0018
     33 C           3.5474   -0.6966   18.2846 C.3     1  UNL1        0.0261
     34 C           0.0730    3.2134   22.0646 C.3     1  UNL1        0.3432
     35 F          -1.1661    2.8763   21.2893 F       1  UNL1       -0.1932
     36 F           0.4621    4.6474   22.2702 F       1  UNL1       -0.1932
     37 C          -3.6406    3.9382   25.9190 C.2     1  UNL1        0.2699
     38 O          -4.2199    4.2598   27.2647 O.2     1  UNL1       -0.2679
     39 N          -4.4853    4.0742   24.6869 N.am    1  UNL1       -0.2969
     40 H          -4.1051    3.8632   23.8037 H       1  UNL1        0.1499
     41 C          -5.9092    4.5318   24.8006 C.3     1  UNL1        0.1166
     42 C          -6.8119    4.4789   23.6036 C.3     1  UNL1        0.1064
     43 C          -7.8516    5.2581   24.3532 C.3     1  UNL1        0.0311
     44 C          -5.7721    3.6996   22.8541 C.3     1  UNL1        0.0311
     45 O          -7.7144    4.4259   22.4067 O.3     1  UNL1       -0.3851
     46 H          -8.5428    4.8896   22.6056 H       1  UNL1        0.2103
@<TRIPOS>BOND
     1    32    33    1
     2    27    33    1
     3    27    25    1
     4    25    22    1
     5    22    23    2
     6    22    24    2
     7    22    15    1
     8    15    16   ar
     9    16    17   ar
    10    17    18   ar
    11    18     1    1
    12     1     2   ar
    13     2     3   ar
    14     3    37    1
    15    37    38    2
    16    37    39   am
    17    39    41    1
    18    41    42    1
    19    42    43    1
    20    42    44    1
    21    42    45    1
    22     3     4   ar
    23     4     5   ar
    24     5     6    1
    25     6     7    2
    26     6     8   am
    27     8     9    1
    28     9    10    1
    29    10    11    1
    30    11    12    1
    31    12    13    1
    32    13    14    1
    33    18    19   ar
    34    19    34    1
    35    34    35    1
    36    34    36    1
    37    19    20   ar
    38    20    21    1
    39    27    28    1
    40    28    29    1
    41    28    30    1
    42    28    31    1
    43    20    15   ar
    44     5     1   ar
    45    13     8    1
    46    25    26    1
    47    39    40    1
    48    45    46    1
@<TRIPOS>MOLECULE
*****
 46 48 0 0 0
SMALL
GASTEIGER

@<TRIPOS>ATOM
      1 C           3.0857    1.1270   28.0507 C.ar    1  UNL1        0.0530
      2 S           3.6000   -0.2552   27.7771 S.2     1  UNL1       -0.0619
      3 C           4.6900   -0.5483   28.7650 C.ar    1  UNL1        0.1641
      4 N           4.8495    0.6528   29.6492 N.ar    1  UNL1       -0.2291
      5 C           3.8580    1.6882   29.2077 C.ar    1  UNL1        0.1413
      6 C           3.6715    3.0464   29.8165 C.2     1  UNL1        0.2672
      7 O           4.1280    4.2690   29.0767 O.2     1  UNL1       -0.2682
      8 N           3.0286    3.1822   31.1648 N.am    1  UNL1       -0.2765
      9 C           2.8422    4.5404   31.7735 C.3     1  UNL1        0.0937
     10 C           2.1992    4.6761   33.1220 C.3     1  UNL1        0.0216
     11 C           1.7428    3.4537   33.8617 C.3     1  UNL1        0.0035
     12 C           1.9292    2.0954   33.2530 C.3     1  UNL1        0.0199
     13 C           2.5721    1.9597   31.9046 C.3     1  UNL1        0.0757
     14 C           2.7586    0.6015   31.2959 C.3     1  UNL1        0.0215
     15 C          -0.1972    3.2223   25.7964 C.ar    1  UNL1        0.1491
     16 C           1.2310    3.3905   25.3699 C.ar    1  UNL1        0.0222
     17 C           2.3253    2.6920   26.1214 C.ar    1  UNL1        0.0019
     18 C           1.9914    1.8255   27.2993 C.ar    1  UNL1        0.0112
     19 C           0.5632    1.6574   27.7258 C.ar    1  UNL1        0.0729
     20 C          -0.5311    2.3558   26.9744 C.ar    1  UNL1        0.1599
     21 F          -1.9594    2.1876   27.4009 F       1  UNL1       -0.2029
     22 S          -1.2915    3.9208   25.0450 S.O2    1  UNL1        0.0626
     23 O          -1.2123    2.8829   23.9649 O.2     1  UNL1       -0.1529
     24 O          -1.3708    4.9586   26.1251 O.2     1  UNL1       -0.1529
     25 N          -2.3859    4.6192   24.2936 N.3     1  UNL1       -0.1723
     26 H          -2.5661    5.4957   24.7830 H       1  UNL1        0.1491
     27 C          -3.7137    3.9473   24.1055 C.3     1  UNL1        0.1700
     28 C          -4.2112    3.6429   22.7236 C.3     1  UNL1        0.4118
     29 F          -4.7088    3.3385   21.3416 F       1  UNL1       -0.1685
     30 F          -5.0183    2.5006   23.2657 F       1  UNL1       -0.1685
     31 F          -3.4041    4.7851   22.1814 F       1  UNL1       -0.1685
     32 C          -4.8402    4.6065   26.3520 C.3     1  UNL1        0.0018
     33 C          -4.5440    3.5796   25.2995 C.3     1  UNL1        0.0261
     34 C           0.2293    0.7908   28.9038 C.3     1  UNL1        0.3432
     35 F          -0.2277    1.4153   30.1887 F       1  UNL1       -0.1932
     36 F           0.3524   -0.7003   28.7968 F       1  UNL1       -0.1932
     37 C           5.4816   -1.8194   28.8532 C.2     1  UNL1        0.2699
     38 O           5.5501   -2.7436   27.6738 O.2     1  UNL1       -0.2679
     39 N           6.2046   -2.1662   30.1209 N.am    1  UNL1       -0.2969
     40 H           6.1596   -1.5596   30.8950 H       1  UNL1        0.1499
     41 C           6.9961   -3.4373   30.2090 C.3     1  UNL1        0.1166
     42 C           6.7352   -4.4075   31.3230 C.3     1  UNL1        0.1064
     43 C           6.5479   -3.2638   32.2753 C.3     1  UNL1        0.0311
     44 C           6.9226   -5.5512   30.3706 C.3     1  UNL1        0.0311
     45 O           6.4743   -5.3778   32.4368 O.3     1  UNL1       -0.3851
     46 H           6.3039   -4.8896   33.2575 H       1  UNL1        0.2103
@<TRIPOS>BOND
     1    32    33    1
     2    27    33    1
     3    27    25    1
     4    25    22    1
     5    22    23    2
     6    22    24    2
     7    22    15    1
     8    15    16   ar
     9    16    17   ar
    10    17    18   ar
    11    18     1    1
    12     1     2   ar
    13     2     3   ar
    14     3    37    1
    15    37    38    2
    16    37    39   am
    17    39    41    1
    18    41    42    1
    19    42    43    1
    20    42    44    1
    21    42    45    1
    22     3     4   ar
    23     4     5   ar
    24     5     6    1
    25     6     7    2
    26     6     8   am
    27     8     9    1
    28     9    10    1
    29    10    11    1
    30    11    12    1
    31    12    13    1
    32    13    14    1
    33    18    19   ar
    34    19    34    1
    35    34    35    1
    36    34    36    1
    37    19    20   ar
    38    20    21    1
    39    27    28    1
    40    28    29    1
    41    28    30    1
    42    28    31    1
    43    20    15   ar
    44     5     1   ar
    45    13     8    1
    46    25    26    1
    47    39    40    1
    48    45    46    1
@<TRIPOS>MOLECULE
*****
 46 48 0 0 0
SMALL
GASTEIGER

@<TRIPOS>ATOM
      1 C           5.0881   -1.8869   20.4035 C.ar    1  UNL1        0.0530
      2 S           5.6041   -2.8213   21.4574 S.2     1  UNL1       -0.0619
      3 C           6.8583   -3.4592   20.9377 C.ar    1  UNL1        0.1641
      4 N           7.1175   -2.9190   19.5625 N.ar    1  UNL1       -0.2291
      5 C           6.0235   -1.9473   19.2324 C.ar    1  UNL1        0.1413
      6 C           5.8886   -1.1721   17.9554 C.2     1  UNL1        0.2672
      7 O           4.7971   -1.5113   16.9838 O.2     1  UNL1       -0.2682
      8 N           6.8450   -0.0578   17.6497 N.am    1  UNL1       -0.2765
      9 C           6.7101    0.7174   16.3726 C.3     1  UNL1        0.0937
     10 C           7.6666    1.8317   16.0671 C.3     1  UNL1        0.0216
     11 C           8.7580    2.1708   17.0385 C.3     1  UNL1        0.0035
     12 C           8.8930    1.3957   18.3156 C.3     1  UNL1        0.0199
     13 C           7.9365    0.2814   18.6212 C.3     1  UNL1        0.0757
     14 C           8.0714   -0.4938   19.8982 C.3     1  UNL1        0.0215
     15 C           1.3846    0.6517   20.7025 C.ar    1  UNL1        0.1491
     16 C           1.2947   -0.7456   20.1645 C.ar    1  UNL1        0.0222
     17 C           2.5292   -1.5918   20.0648 C.ar    1  UNL1        0.0019
     18 C           3.8536   -1.0407   20.5032 C.ar    1  UNL1        0.0112
     19 C           3.9435    0.3565   21.0412 C.ar    1  UNL1        0.0729
     20 C           2.7090    1.2027   21.1408 C.ar    1  UNL1        0.1599
     21 F           2.7989    2.6001   21.6789 F       1  UNL1       -0.2029
     22 S           0.1501    1.4978   20.8022 S.O2    1  UNL1        0.0626
     23 O           0.0158    1.1314   22.2505 O.2     1  UNL1       -0.1529
     24 O           0.2843    1.8643   19.3538 O.2     1  UNL1       -0.1529
     25 N          -1.0845    2.3440   20.9018 N.3     1  UNL1       -0.1723
     26 H          -1.2962    2.6682   19.9582 H       1  UNL1        0.1491
     27 C          -1.0946    3.5543   21.7878 C.3     1  UNL1        0.1700
     28 C          -2.2014    3.7469   22.7818 C.3     1  UNL1        0.4118
     29 F          -3.3082    3.9394   23.7758 F       1  UNL1       -0.1685
     30 F          -3.1800    3.1655   21.8048 F       1  UNL1       -0.1685
     31 F          -1.2229    4.3282   23.7588 F       1  UNL1       -0.1685
     32 C          -0.0486    5.6181   20.6060 C.3     1  UNL1        0.0018
     33 C           0.0020    4.5721   21.6799 C.3     1  UNL1        0.0261
     34 C           5.2680    0.9077   21.4796 C.3     1  UNL1        0.3432
     35 F           5.9383    1.9799   20.6727 F       1  UNL1       -0.1932
     36 F           5.9220    0.3866   22.7248 F       1  UNL1       -0.1932
     37 C           7.7046   -4.4612   21.6654 C.2     1  UNL1        0.2699
     38 O           8.3487   -5.5871   20.9119 O.2     1  UNL1       -0.2679
     39 N           7.9068   -4.3375   23.1465 N.am    1  UNL1       -0.2969
     40 H           7.4841   -3.5986   23.6410 H       1  UNL1        0.1499
     41 C           8.7532   -5.3396   23.8742 C.3     1  UNL1        0.1166
     42 C           8.1039   -6.4485   24.6482 C.3     1  UNL1        0.1064
     43 C           7.3052   -5.4413   25.4212 C.3     1  UNL1        0.0311
     44 C           8.9027   -7.4557   23.8750 C.3     1  UNL1        0.0311
     45 O           7.4548   -7.5574   25.4220 O.3     1  UNL1       -0.3851
     46 H           6.8279   -7.1824   26.0602 H       1  UNL1        0.2103
@<TRIPOS>BOND
     1    32    33    1
     2    27    33    1
     3    27    25    1
     4    25    22    1
     5    22    23    2
     6    22    24    2
     7    22    15    1
     8    15    16   ar
     9    16    17   ar
    10    17    18   ar
    11    18     1    1
    12     1     2   ar
    13     2     3   ar
    14     3    37    1
    15    37    38    2
    16    37    39   am
    17    39    41    1
    18    41    42    1
    19    42    43    1
    20    42    44    1
    21    42    45    1
    22     3     4   ar
    23     4     5   ar
    24     5     6    1
    25     6     7    2
    26     6     8   am
    27     8     9    1
    28     9    10    1
    29    10    11    1
    30    11    12    1
    31    12    13    1
    32    13    14    1
    33    18    19   ar
    34    19    34    1
    35    34    35    1
    36    34    36    1
    37    19    20   ar
    38    20    21    1
    39    27    28    1
    40    28    29    1
    41    28    30    1
    42    28    31    1
    43    20    15   ar
    44     5     1   ar
    45    13     8    1
    46    25    26    1
    47    39    40    1
    48    45    46    1
@<TRIPOS>MOLECULE
*****
 46 48 0 0 0
SMALL
GASTEIGER

@<TRIPOS>ATOM
      1 C           0.8236    2.9512   19.2500 C.ar    1  UNL1        0.0530
      2 S          -0.2811    3.1483   18.2547 S.2     1  UNL1       -0.0619
      3 C          -1.1148    4.3087   18.7112 C.ar    1  UNL1        0.1641
      4 N          -0.5253    4.8289   19.9886 N.ar    1  UNL1       -0.2291
      5 C           0.6727    3.9899   20.3216 C.ar    1  UNL1        0.1413
      6 C           1.5635    4.1599   21.5165 C.2     1  UNL1        0.2672
      7 O           2.9753    4.6345   21.3381 O.2     1  UNL1       -0.2682
      8 N           1.0426    3.8553   22.8897 N.am    1  UNL1       -0.2765
      9 C           1.9333    4.0252   24.0846 C.3     1  UNL1        0.0937
     10 C           1.4124    3.7206   25.4578 C.3     1  UNL1        0.0216
     11 C           0.0007    3.2460   25.6363 C.3     1  UNL1        0.0035
     12 C          -0.8902    3.0761   24.4414 C.3     1  UNL1        0.0199
     13 C          -0.3692    3.3807   23.0682 C.3     1  UNL1        0.0757
     14 C          -1.2599    3.2107   21.8733 C.3     1  UNL1        0.0215
     15 C           4.0280   -0.2022   19.0553 C.ar    1  UNL1        0.1491
     16 C           4.1454    1.0389   18.2212 C.ar    1  UNL1        0.0222
     17 C           3.0773    2.0901   18.2861 C.ar    1  UNL1        0.0019
     18 C           1.8918    1.9001   19.1851 C.ar    1  UNL1        0.0112
     19 C           1.7743    0.6590   20.0193 C.ar    1  UNL1        0.0729
     20 C           2.8425   -0.3921   19.9544 C.ar    1  UNL1        0.1599
     21 F           2.7250   -1.6333   20.7886 F       1  UNL1       -0.2029
     22 S           5.0962   -1.2533   18.9904 S.O2    1  UNL1        0.0626
     23 O           5.5484   -0.8790   20.3708 O.2     1  UNL1       -0.1529
     24 O           4.6439   -1.6276   17.6101 O.2     1  UNL1       -0.1529
     25 N           6.1643   -2.3044   18.9255 N.3     1  UNL1       -0.1723
     26 H           6.2391   -2.5883   17.9487 H       1  UNL1        0.1491
     27 C           6.0295   -3.5615   19.7327 C.3     1  UNL1        0.1700
     28 C           4.7278   -4.3068   19.7483 C.3     1  UNL1        0.4118
     29 F           3.4262   -5.0521   19.7640 F       1  UNL1       -0.1685
     30 F           4.5230   -3.9190   21.1828 F       1  UNL1       -0.1685
     31 F           4.9327   -4.6946   18.3139 F       1  UNL1       -0.1685
     32 C           7.7265   -3.2766   21.6792 C.3     1  UNL1        0.0018
     33 C           7.1964   -4.0734   20.5242 C.3     1  UNL1        0.0261
     34 C           0.5888    0.4690   20.9184 C.3     1  UNL1        0.3432
     35 F          -0.7684    0.2245   20.3284 F       1  UNL1       -0.1932
     36 F           0.7604    0.5235   22.4075 F       1  UNL1       -0.1932
     37 C          -2.3255    4.8533   18.0128 C.2     1  UNL1        0.2699
     38 O          -2.1711    5.9043   16.9537 O.2     1  UNL1       -0.2679
     39 N          -3.6906    4.3469   18.3735 N.am    1  UNL1       -0.2969
     40 H          -3.7919    3.6572   19.0687 H       1  UNL1        0.1499
     41 C          -4.9012    4.8915   17.6752 C.3     1  UNL1        0.1166
     42 C          -6.2736    4.5171   18.1514 C.3     1  UNL1        0.1064
     43 C          -5.7052    3.3134   18.8428 C.3     1  UNL1        0.0311
     44 C          -6.8418    5.7210   17.4600 C.3     1  UNL1        0.0311
     45 O          -7.6458    4.1428   18.6276 O.3     1  UNL1       -0.3851
     46 H          -7.5952    3.3282   19.1517 H       1  UNL1        0.2103
@<TRIPOS>BOND
     1    32    33    1
     2    27    33    1
     3    27    25    1
     4    25    22    1
     5    22    23    2
     6    22    24    2
     7    22    15    1
     8    15    16   ar
     9    16    17   ar
    10    17    18   ar
    11    18     1    1
    12     1     2   ar
    13     2     3   ar
    14     3    37    1
    15    37    38    2
    16    37    39   am
    17    39    41    1
    18    41    42    1
    19    42    43    1
    20    42    44    1
    21    42    45    1
    22     3     4   ar
    23     4     5   ar
    24     5     6    1
    25     6     7    2
    26     6     8   am
    27     8     9    1
    28     9    10    1
    29    10    11    1
    30    11    12    1
    31    12    13    1
    32    13    14    1
    33    18    19   ar
    34    19    34    1
    35    34    35    1
    36    34    36    1
    37    19    20   ar
    38    20    21    1
    39    27    28    1
    40    28    29    1
    41    28    30    1
    42    28    31    1
    43    20    15   ar
    44     5     1   ar
    45    13     8    1
    46    25    26    1
    47    39    40    1
    48    45    46    1
@<TRIPOS>MOLECULE
*****
 46 48 0 0 0
SMALL
GASTEIGER

@<TRIPOS>ATOM
      1 C           3.0471    0.4658   26.0568 C.ar    1  UNL1        0.0530
      2 S           3.2820   -0.5908   25.0183 S.2     1  UNL1       -0.0619
      3 C           3.0806    0.0327   23.6689 C.ar    1  UNL1        0.1641
      4 N           2.7213    1.4746   23.8735 N.ar    1  UNL1       -0.2291
      5 C           2.7006    1.7422   25.3493 C.ar    1  UNL1        0.1413
      6 C           2.3882    3.0557   26.0028 C.2     1  UNL1        0.2672
      7 O           3.5017    3.9762   26.4065 O.2     1  UNL1       -0.2682
      8 N           0.9624    3.4489   26.2525 N.am    1  UNL1       -0.2765
      9 C           0.6500    4.7624   26.9060 C.3     1  UNL1        0.0937
     10 C          -0.7759    5.1555   27.1558 C.3     1  UNL1        0.0216
     11 C          -1.8894    4.2352   26.7520 C.3     1  UNL1        0.0035
     12 C          -1.5771    2.9216   26.0985 C.3     1  UNL1        0.0199
     13 C          -0.1512    2.5285   25.8488 C.3     1  UNL1        0.0757
     14 C           0.1612    1.2150   25.1953 C.3     1  UNL1        0.0215
     15 C           3.3320   -0.0953   30.5126 C.ar    1  UNL1        0.1491
     16 C           2.0014   -0.1960   29.8276 C.ar    1  UNL1        0.0222
     17 C           1.9064   -0.0089   28.3423 C.ar    1  UNL1        0.0019
     18 C           3.1421    0.2787   27.5421 C.ar    1  UNL1        0.0112
     19 C           4.4727    0.3794   28.2271 C.ar    1  UNL1        0.0729
     20 C           4.5676    0.1923   29.7124 C.ar    1  UNL1        0.1599
     21 F           5.8983    0.2930   30.3974 F       1  UNL1       -0.2029
     22 S           3.4270   -0.2824   31.9979 S.O2    1  UNL1        0.0626
     23 O           3.5047    1.2045   32.1801 O.2     1  UNL1       -0.1529
     24 O           3.3493   -1.7692   31.8156 O.2     1  UNL1       -0.1529
     25 N           3.5220   -0.4694   33.4831 N.3     1  UNL1       -0.1723
     26 H           2.9003    0.2193   33.9070 H       1  UNL1        0.1491
     27 C           4.8477   -0.3381   34.1723 C.3     1  UNL1        0.1700
     28 C           6.1103   -0.6903   33.4430 C.3     1  UNL1        0.4118
     29 F           7.3729   -1.0424   32.7137 F       1  UNL1       -0.1685
     30 F           5.7846   -2.1478   33.5829 F       1  UNL1       -0.1685
     31 F           6.4360    0.7672   33.3031 F       1  UNL1       -0.1685
     32 C           6.0489   -0.2710   36.4751 C.3     1  UNL1        0.0018
     33 C           4.9110    0.1453   35.5909 C.3     1  UNL1        0.0261
     34 C           5.7084    0.6671   27.4269 C.3     1  UNL1        0.3432
     35 F           5.9280    2.0349   26.8519 F       1  UNL1       -0.1932
     36 F           6.7245   -0.4132   27.2017 F       1  UNL1       -0.1932
     37 C           3.2150   -0.6636   22.3471 C.2     1  UNL1        0.2699
     38 O           2.1500   -0.5029   21.3031 O.2     1  UNL1       -0.2679
     39 N           4.4144   -1.5204   22.0693 N.am    1  UNL1       -0.2969
     40 H           5.1134   -1.6258   22.7545 H       1  UNL1        0.1499
     41 C           4.5488   -2.2166   20.7475 C.3     1  UNL1        0.1166
     42 C           4.2547   -3.6836   20.6392 C.3     1  UNL1        0.1064
     43 C           4.8600   -3.9049   21.9937 C.3     1  UNL1        0.0311
     44 C           3.6494   -3.4622   19.2847 C.3     1  UNL1        0.0311
     45 O           3.9606   -5.1505   20.5309 O.3     1  UNL1       -0.3851
     46 H           4.2662   -5.6017   21.3334 H       1  UNL1        0.2103
@<TRIPOS>BOND
     1    32    33    1
     2    27    33    1
     3    27    25    1
     4    25    22    1
     5    22    23    2
     6    22    24    2
     7    22    15    1
     8    15    16   ar
     9    16    17   ar
    10    17    18   ar
    11    18     1    1
    12     1     2   ar
    13     2     3   ar
    14     3    37    1
    15    37    38    2
    16    37    39   am
    17    39    41    1
    18    41    42    1
    19    42    43    1
    20    42    44    1
    21    42    45    1
    22     3     4   ar
    23     4     5   ar
    24     5     6    1
    25     6     7    2
    26     6     8   am
    27     8     9    1
    28     9    10    1
    29    10    11    1
    30    11    12    1
    31    12    13    1
    32    13    14    1
    33    18    19   ar
    34    19    34    1
    35    34    35    1
    36    34    36    1
    37    19    20   ar
    38    20    21    1
    39    27    28    1
    40    28    29    1
    41    28    30    1
    42    28    31    1
    43    20    15   ar
    44     5     1   ar
    45    13     8    1
    46    25    26    1
    47    39    40    1
    48    45    46    1
@<TRIPOS>MOLECULE
*****
 46 48 0 0 0
SMALL
GASTEIGER

@<TRIPOS>ATOM
      1 C           2.9612   -0.1143   19.8303 C.ar    1  UNL1        0.0530
      2 S           1.7283    0.4998   20.4244 S.2     1  UNL1       -0.0619
      3 C           1.1716    1.4758   19.4306 C.ar    1  UNL1        0.1641
      4 N           2.0605    1.4648   18.2223 N.ar    1  UNL1       -0.2291
      5 C           3.1665    0.4821   18.4694 C.ar    1  UNL1        0.1413
      6 C           4.2819    0.1535   17.5219 C.2     1  UNL1        0.2672
      7 O           4.2765   -1.1504   16.7803 O.2     1  UNL1       -0.2682
      8 N           5.4028    1.1287   17.3158 N.am    1  UNL1       -0.2765
      9 C           6.5182    0.8001   16.3683 C.3     1  UNL1        0.0937
     10 C           7.6391    1.7754   16.1623 C.3     1  UNL1        0.0216
     11 C           7.6446    3.0793   16.9038 C.3     1  UNL1        0.0035
     12 C           6.5292    3.4079   17.8513 C.3     1  UNL1        0.0199
     13 C           5.4083    2.4327   18.0573 C.3     1  UNL1        0.0757
     14 C           4.2929    2.7613   19.0049 C.3     1  UNL1        0.0215
     15 C           5.5836   -3.2035   21.7874 C.ar    1  UNL1        0.1491
     16 C           4.4647   -3.6324   20.8852 C.ar    1  UNL1        0.0222
     17 C           3.5906   -2.6026   20.2328 C.ar    1  UNL1        0.0019
     18 C           3.8353   -1.1440   20.4827 C.ar    1  UNL1        0.0112
     19 C           4.9542   -0.7151   21.3849 C.ar    1  UNL1        0.0729
     20 C           5.8284   -1.7449   22.0373 C.ar    1  UNL1        0.1599
     21 F           6.9473   -1.3159   22.9396 F       1  UNL1       -0.2029
     22 S           6.4577   -4.2332   22.4398 S.O2    1  UNL1        0.0626
     23 O           7.2036   -4.4163   21.1513 O.2     1  UNL1       -0.1529
     24 O           5.7119   -4.0501   23.7283 O.2     1  UNL1       -0.1529
     25 N           7.3318   -5.2629   23.0922 N.3     1  UNL1       -0.1723
     26 H           6.7451   -6.0785   23.2681 H       1  UNL1        0.1491
     27 C           8.0304   -4.9459   24.3811 C.3     1  UNL1        0.1700
     28 C           8.7820   -3.6563   24.5294 C.3     1  UNL1        0.4118
     29 F           9.5337   -2.3667   24.6776 F       1  UNL1       -0.1685
     30 F           9.5352   -3.9501   23.2659 F       1  UNL1       -0.1685
     31 F           8.0289   -3.3625   25.7929 F       1  UNL1       -0.1685
     32 C           7.9306   -7.3926   25.2492 C.3     1  UNL1        0.0018
     33 C           7.9773   -5.9184   25.5220 C.3     1  UNL1        0.0261
     34 C           5.1991    0.7435   21.6349 C.3     1  UNL1        0.3432
     35 F           4.2187    1.5409   22.4430 F       1  UNL1       -0.1932
     36 F           6.4242    1.4048   21.0766 F       1  UNL1       -0.1932
     37 C          -0.0580    2.3152   19.6130 C.2     1  UNL1        0.2699
     38 O          -0.9944    2.0365   20.7512 O.2     1  UNL1       -0.2679
     39 N          -0.3512    3.4335   18.6572 N.am    1  UNL1       -0.2969
     40 H           0.2633    3.6164   17.9102 H       1  UNL1        0.1499
     41 C          -1.5808    4.2730   18.8397 C.3     1  UNL1        0.1166
     42 C          -2.8162    3.9770   18.0417 C.3     1  UNL1        0.1064
     43 C          -3.6294    3.9733   19.3022 C.3     1  UNL1        0.0311
     44 C          -2.0028    3.9807   16.7813 C.3     1  UNL1        0.0311
     45 O          -4.0514    3.6811   17.2438 O.3     1  UNL1       -0.3851
     46 H          -4.8135    3.6150   17.8403 H       1  UNL1        0.2103
@<TRIPOS>BOND
     1    32    33    1
     2    27    33    1
     3    27    25    1
     4    25    22    1
     5    22    23    2
     6    22    24    2
     7    22    15    1
     8    15    16   ar
     9    16    17   ar
    10    17    18   ar
    11    18     1    1
    12     1     2   ar
    13     2     3   ar
    14     3    37    1
    15    37    38    2
    16    37    39   am
    17    39    41    1
    18    41    42    1
    19    42    43    1
    20    42    44    1
    21    42    45    1
    22     3     4   ar
    23     4     5   ar
    24     5     6    1
    25     6     7    2
    26     6     8   am
    27     8     9    1
    28     9    10    1
    29    10    11    1
    30    11    12    1
    31    12    13    1
    32    13    14    1
    33    18    19   ar
    34    19    34    1
    35    34    35    1
    36    34    36    1
    37    19    20   ar
    38    20    21    1
    39    27    28    1
    40    28    29    1
    41    28    30    1
    42    28    31    1
    43    20    15   ar
    44     5     1   ar
    45    13     8    1
    46    25    26    1
    47    39    40    1
    48    45    46    1
@<TRIPOS>MOLECULE
*****
 46 48 0 0 0
SMALL
GASTEIGER

@<TRIPOS>ATOM
      1 C           4.2336   -0.3559   30.3538 C.ar    1  UNL1        0.0530
      2 S           5.4460   -1.1417   29.9508 S.2     1  UNL1       -0.0619
      3 C           5.1871   -1.7316   28.5962 C.ar    1  UNL1        0.1641
      4 N           3.8145   -1.3103   28.1619 N.ar    1  UNL1       -0.2291
      5 C           3.2252   -0.4601   29.2482 C.ar    1  UNL1        0.1413
      6 C           1.8662    0.1745   29.2316 C.2     1  UNL1        0.2672
      7 O           0.7074   -0.5172   29.8867 O.2     1  UNL1       -0.2682
      8 N           1.6657    1.5007   28.5602 N.am    1  UNL1       -0.2765
      9 C           0.3067    2.1353   28.5437 C.3     1  UNL1        0.0937
     10 C           0.1063    3.4615   27.8721 C.3     1  UNL1        0.0216
     11 C           1.2649    4.1532   27.2171 C.3     1  UNL1        0.0035
     12 C           2.6241    3.5187   27.2336 C.3     1  UNL1        0.0199
     13 C           2.8244    2.1925   27.9051 C.3     1  UNL1        0.0757
     14 C           4.1835    1.5579   27.9216 C.3     1  UNL1        0.0215
     15 C           3.7126    1.9155   34.2034 C.ar    1  UNL1        0.1491
     16 C           3.4821    2.6025   32.8901 C.ar    1  UNL1        0.0222
     17 C           3.6558    1.8454   31.6069 C.ar    1  UNL1        0.0019
     18 C           4.0599    0.4013   31.6370 C.ar    1  UNL1        0.0112
     19 C           4.2904   -0.2858   32.9503 C.ar    1  UNL1        0.0729
     20 C           4.1168    0.4713   34.2335 C.ar    1  UNL1        0.1599
     21 F           4.3473   -0.2159   35.5468 F       1  UNL1       -0.2029
     22 S           3.5390    2.6726   35.4866 S.O2    1  UNL1        0.0626
     23 O           5.0289    2.7629   35.6350 O.2     1  UNL1       -0.1529
     24 O           2.0491    2.5823   35.3383 O.2     1  UNL1       -0.1529
     25 N           3.3653    3.4297   36.7698 N.3     1  UNL1       -0.1723
     26 H           4.0532    4.1828   36.7628 H       1  UNL1        0.1491
     27 C           3.5118    2.7217   38.0841 C.3     1  UNL1        0.1700
     28 C           2.6950    1.4968   38.3713 C.3     1  UNL1        0.4118
     29 F           1.8783    0.2719   38.6585 F       1  UNL1       -0.1685
     30 F           3.9359    0.6560   38.3141 F       1  UNL1       -0.1685
     31 F           1.4542    2.3376   38.4284 F       1  UNL1       -0.1685
     32 C           4.1108    4.4278   39.9497 C.3     1  UNL1        0.0018
     33 C           4.4751    3.2386   39.1112 C.3     1  UNL1        0.0261
     34 C           4.6946   -1.7301   32.9804 C.3     1  UNL1        0.3432
     35 F           3.6641   -2.8016   32.7805 F       1  UNL1       -0.1932
     36 F           6.1292   -2.1027   33.2104 F       1  UNL1       -0.1932
     37 C           6.1343   -2.5917   27.8134 C.2     1  UNL1        0.2699
     38 O           6.4975   -2.2192   26.4065 O.2     1  UNL1       -0.2679
     39 N           6.7184   -3.8243   28.4374 N.am    1  UNL1       -0.2969
     40 H           6.4800   -4.0688   29.3608 H       1  UNL1        0.1499
     41 C           7.6657   -4.6844   27.6546 C.3     1  UNL1        0.1166
     42 C           7.5071   -6.1761   27.6646 C.3     1  UNL1        0.1064
     43 C           7.1892   -6.1521   26.1989 C.3     1  UNL1        0.0311
     44 C           7.8250   -6.1999   29.1304 C.3     1  UNL1        0.0311
     45 O           7.3486   -7.6676   27.6747 O.3     1  UNL1       -0.3851
     46 H           7.1206   -7.9746   26.7832 H       1  UNL1        0.2103
@<TRIPOS>BOND
     1    32    33    1
     2    27    33    1
     3    27    25    1
     4    25    22    1
     5    22    23    2
     6    22    24    2
     7    22    15    1
     8    15    16   ar
     9    16    17   ar
    10    17    18   ar
    11    18     1    1
    12     1     2   ar
    13     2     3   ar
    14     3    37    1
    15    37    38    2
    16    37    39   am
    17    39    41    1
    18    41    42    1
    19    42    43    1
    20    42    44    1
    21    42    45    1
    22     3     4   ar
    23     4     5   ar
    24     5     6    1
    25     6     7    2
    26     6     8   am
    27     8     9    1
    28     9    10    1
    29    10    11    1
    30    11    12    1
    31    12    13    1
    32    13    14    1
    33    18    19   ar
    34    19    34    1
    35    34    35    1
    36    34    36    1
    37    19    20   ar
    38    20    21    1
    39    27    28    1
    40    28    29    1
    41    28    30    1
    42    28    31    1
    43    20    15   ar
    44     5     1   ar
    45    13     8    1
    46    25    26    1
    47    39    40    1
    48    45    46    1
@<TRIPOS>MOLECULE
*****
 46 48 0 0 0
SMALL
GASTEIGER

@<TRIPOS>ATOM
      1 C           1.4027    2.8953   28.6608 C.ar    1  UNL1        0.0530
      2 S           1.4916    2.3139   30.0407 S.2     1  UNL1       -0.0619
      3 C           2.8536    1.7062   30.2008 C.ar    1  UNL1        0.1641
      4 N           3.6065    1.9120   28.9199 N.ar    1  UNL1       -0.2291
      5 C           2.7098    2.6469   27.9681 C.ar    1  UNL1        0.1413
      6 C           3.0590    3.0607   26.5693 C.2     1  UNL1        0.2672
      7 O           3.2500    4.5122   26.2421 O.2     1  UNL1       -0.2682
      8 N           3.2170    2.0233   25.4976 N.am    1  UNL1       -0.2765
      9 C           3.5662    2.4372   24.0987 C.3     1  UNL1        0.0937
     10 C           3.7243    1.3997   23.0270 C.3     1  UNL1        0.0216
     11 C           3.5332   -0.0517   23.3540 C.3     1  UNL1        0.0035
     12 C           3.1840   -0.4656   24.7529 C.3     1  UNL1        0.0199
     13 C           3.0260    0.5719   25.8246 C.3     1  UNL1        0.0757
     14 C           2.6768    0.1580   27.2235 C.3     1  UNL1        0.0215
     15 C          -2.1596    5.0130   26.9071 C.ar    1  UNL1        0.1491
     16 C          -1.2089    5.7562   27.7980 C.ar    1  UNL1        0.0222
     17 C          -0.0215    5.0503   28.3826 C.ar    1  UNL1        0.0019
     18 C           0.2153    3.6012   28.0762 C.ar    1  UNL1        0.0112
     19 C          -0.7354    2.8579   27.1854 C.ar    1  UNL1        0.0729
     20 C          -1.9229    3.5638   26.6008 C.ar    1  UNL1        0.1599
     21 F          -2.8736    2.8205   25.7099 F       1  UNL1       -0.2029
     22 S          -3.3471    5.7188   26.3226 S.O2    1  UNL1        0.0626
     23 O          -4.1815    5.2819   27.4900 O.2     1  UNL1       -0.1529
     24 O          -2.5127    6.1557   25.1552 O.2     1  UNL1       -0.1529
     25 N          -4.5345    6.4247   25.7380 N.3     1  UNL1       -0.1723
     26 H          -4.9395    6.9882   26.4856 H       1  UNL1        0.1491
     27 C          -5.6570    5.6321   25.1365 C.3     1  UNL1        0.1700
     28 C          -5.3567    4.4757   24.2296 C.3     1  UNL1        0.4118
     29 F          -5.0564    3.3194   23.3226 F       1  UNL1       -0.1685
     30 F          -5.7120    3.5204   25.3300 F       1  UNL1       -0.1685
     31 F          -5.0015    5.4311   23.1291 F       1  UNL1       -0.1685
     32 C          -8.1743    5.6038   24.4943 C.3     1  UNL1        0.0018
     33 C          -7.0798    5.9959   25.4421 C.3     1  UNL1        0.0261
     34 C          -0.4987    1.4087   26.8790 C.3     1  UNL1        0.3432
     35 F          -0.1708    0.9819   25.4789 F       1  UNL1       -0.1932
     36 F          -0.5898    0.3863   27.9728 F       1  UNL1       -0.1932
     37 C           3.3717    1.0141   31.4267 C.2     1  UNL1        0.2699
     38 O           2.5839    1.0585   32.7024 O.2     1  UNL1       -0.2679
     39 N           4.6775    0.2778   31.3767 N.am    1  UNL1       -0.2969
     40 H           5.1945    0.2486   30.5394 H       1  UNL1        0.1499
     41 C           5.1956   -0.4143   32.6026 C.3     1  UNL1        0.1166
     42 C           4.9764   -1.8875   32.7812 C.3     1  UNL1        0.1064
     43 C           5.6178   -2.1443   31.4498 C.3     1  UNL1        0.0311
     44 C           4.3350   -1.6305   34.1127 C.3     1  UNL1        0.0311
     45 O           4.7572   -3.3606   32.9599 O.3     1  UNL1       -0.3851
     46 H           5.1011   -3.8348   32.1867 H       1  UNL1        0.2103
@<TRIPOS>BOND
     1    32    33    1
     2    27    33    1
     3    27    25    1
     4    25    22    1
     5    22    23    2
     6    22    24    2
     7    22    15    1
     8    15    16   ar
     9    16    17   ar
    10    17    18   ar
    11    18     1    1
    12     1     2   ar
    13     2     3   ar
    14     3    37    1
    15    37    38    2
    16    37    39   am
    17    39    41    1
    18    41    42    1
    19    42    43    1
    20    42    44    1
    21    42    45    1
    22     3     4   ar
    23     4     5   ar
    24     5     6    1
    25     6     7    2
    26     6     8   am
    27     8     9    1
    28     9    10    1
    29    10    11    1
    30    11    12    1
    31    12    13    1
    32    13    14    1
    33    18    19   ar
    34    19    34    1
    35    34    35    1
    36    34    36    1
    37    19    20   ar
    38    20    21    1
    39    27    28    1
    40    28    29    1
    41    28    30    1
    42    28    31    1
    43    20    15   ar
    44     5     1   ar
    45    13     8    1
    46    25    26    1
    47    39    40    1
    48    45    46    1
