@<TRIPOS>MOLECULE
*****
 38 41 0 0 0
SMALL
GASTEIGER

@<TRIPOS>ATOM
      1 N          -5.4641  -15.1298   22.8917 N.am    1  UNL1       -0.2683
      2 C          -4.3985  -16.1673   22.6963 C.2     1  UNL1        0.3045
      3 O          -4.7065  -17.6145   22.9432 O.2     1  UNL1       -0.2525
      4 N          -3.0251  -15.7576   22.2539 N.am    1  UNL1       -0.2887
      5 H          -5.2620  -14.1800   22.7297 H       1  UNL1        0.1564
      6 H          -2.8230  -14.8078   22.0918 H       1  UNL1        0.1510
      7 C          -8.4756  -16.2467   25.2228 C.ar    1  UNL1        0.0360
      8 C          -7.1021  -15.8370   24.7804 C.ar    1  UNL1        0.0176
      9 C          -6.8376  -15.5395   23.3341 C.ar    1  UNL1        0.0518
     10 C          -7.9466  -15.6518   22.3304 C.ar    1  UNL1        0.0178
     11 C          -9.3200  -16.0614   22.7728 C.ar    1  UNL1        0.0387
     12 C          -9.5845  -16.3589   24.2190 C.ar    1  UNL1        0.0060
     13 C         -10.4290  -16.1737   21.7690 C.ar    1  UNL1        0.1839
     14 N         -10.3315  -15.8501   20.3075 N.ar    1  UNL1       -0.1081
     15 N         -11.6724  -16.1056   19.6857 N.ar    1  UNL1       -0.0227
     16 N         -12.5986  -16.5872   20.7629 N.ar    1  UNL1       -0.0429
     17 N         -11.8302  -16.6293   22.0504 N.ar    1  UNL1       -0.2113
     18 C         -12.3684  -17.0526   23.3849 C.3     1  UNL1        0.1573
     19 C          -8.4980  -15.4898   27.7080 C.3     1  UNL1        0.0773
     20 C          -8.7401  -16.5442   26.6690 C.2     1  UNL1        0.1735
     21 O          -9.2466  -17.8960   27.0762 O.2     1  UNL1       -0.2913
     22 C          -1.9595  -16.7951   22.0585 C.3     1  UNL1        0.0924
     23 C          -1.5954  -17.2448   20.6745 C.3     1  UNL1        0.0386
     24 C          -2.6694  -17.4658   19.6509 C.3     1  UNL1        0.0738
     25 N          -3.6481  -18.5897   19.8214 N.3     1  UNL1       -0.2726
     26 C          -3.1558  -19.9724   20.1309 C.3     1  UNL1        0.0721
     27 C          -4.1345  -21.0963   20.3013 C.3     1  UNL1        0.0174
     28 C          -5.6055  -20.8375   20.1622 C.3     1  UNL1        0.0031
     29 C          -6.0977  -19.4548   19.8527 C.3     1  UNL1        0.0204
     30 C          -5.1190  -18.3309   19.6823 C.3     1  UNL1        0.0724
     31 C          -7.5686  -19.1960   19.7136 C.3     1  UNL1        0.0277
     32 C          -8.4883  -19.4548   20.8700 C.ar    1  UNL1       -0.0220
     33 C          -7.9465  -19.4783   22.2685 C.ar    1  UNL1       -0.0020
     34 C          -8.8662  -19.7372   23.4249 C.ar    1  UNL1        0.0293
     35 C         -10.3277  -19.9725   23.1827 C.ar    1  UNL1        0.1401
     36 F         -11.2474  -20.2313   24.3391 F       1  UNL1       -0.2042
     37 C         -10.8695  -19.9490   21.7842 C.ar    1  UNL1        0.0293
     38 C          -9.9498  -19.6901   20.6279 C.ar    1  UNL1       -0.0020
@<TRIPOS>BOND
     1    19    20    1
     2    20    21    2
     3    20     7    1
     4     7     8   ar
     5     8     9   ar
     6     9     1    1
     7     1     2   am
     8     2     3    2
     9     2     4   am
    10     4    22    1
    11    22    23    1
    12    23    24    1
    13    24    25    1
    14    25    26    1
    15    26    27    1
    16    27    28    1
    17    28    29    1
    18    29    31    1
    19    31    32    1
    20    32    33   ar
    21    33    34   ar
    22    34    35   ar
    23    35    36    1
    24    35    37   ar
    25    37    38   ar
    26    29    30    1
    27     9    10   ar
    28    10    11   ar
    29    11    13    1
    30    13    14   ar
    31    14    15   ar
    32    15    16   ar
    33    16    17   ar
    34    17    18    1
    35    11    12   ar
    36    12     7   ar
    37    30    25    1
    38    17    13   ar
    39    38    32   ar
    40     1     5    1
    41     4     6    1
@<TRIPOS>MOLECULE
*****
 38 41 0 0 0
SMALL
GASTEIGER

@<TRIPOS>ATOM
      1 N          -6.6476  -19.9486   21.5962 N.am    1  UNL1       -0.2683
      2 C          -7.5040  -19.6861   20.3930 C.2     1  UNL1        0.3045
      3 O          -7.2340  -18.4919   19.5263 O.2     1  UNL1       -0.2525
      4 N          -8.6304  -20.6177   20.0565 N.am    1  UNL1       -0.2887
      5 H          -6.8248  -20.7324   22.1650 H       1  UNL1        0.1564
      6 H          -8.8076  -21.4015   20.6253 H       1  UNL1        0.1510
      7 C          -4.5380  -17.1145   23.4038 C.ar    1  UNL1        0.0360
      8 C          -5.6644  -18.0462   23.0673 C.ar    1  UNL1        0.0176
      9 C          -5.5212  -19.0169   21.9327 C.ar    1  UNL1        0.0518
     10 C          -4.2518  -19.0559   21.1347 C.ar    1  UNL1        0.0178
     11 C          -3.1254  -18.1243   21.4712 C.ar    1  UNL1        0.0387
     12 C          -3.2686  -17.1535   22.6058 C.ar    1  UNL1        0.0060
     13 C          -1.8559  -18.1633   20.6732 C.ar    1  UNL1        0.1839
     14 N          -0.5258  -18.6609   21.1562 N.ar    1  UNL1       -0.1081
     15 N           0.4586  -18.5167   20.0337 N.ar    1  UNL1       -0.0227
     16 N          -0.2631  -17.9299   18.8568 N.ar    1  UNL1       -0.0429
     17 N          -1.6935  -17.7115   19.2521 N.ar    1  UNL1       -0.2113
     18 C          -2.7721  -17.1413   18.3795 C.3     1  UNL1        0.1573
     19 C          -4.4937  -16.6093   25.9519 C.3     1  UNL1        0.0773
     20 C          -4.6812  -16.1438   24.5384 C.2     1  UNL1        0.1735
     21 O          -5.0117  -14.7075   24.2594 O.2     1  UNL1       -0.2913
     22 C          -9.4868  -20.3553   18.8533 C.3     1  UNL1        0.0924
     23 C         -10.7648  -19.5829   18.9964 C.3     1  UNL1        0.0386
     24 C         -10.7671  -18.2617   19.7066 C.3     1  UNL1        0.0738
     25 N         -11.3121  -18.1605   21.1004 N.3     1  UNL1       -0.2726
     26 C         -12.7374  -17.7477   21.3202 C.3     1  UNL1        0.0721
     27 C         -13.2824  -17.6464   22.7140 C.3     1  UNL1        0.0174
     28 C         -12.4022  -17.9579   23.8880 C.3     1  UNL1        0.0031
     29 C         -10.9770  -18.3707   23.6682 C.3     1  UNL1        0.0204
     30 C         -10.4320  -18.4720   22.2743 C.3     1  UNL1        0.0724
     31 C         -10.0968  -18.6822   24.8421 C.3     1  UNL1        0.0277
     32 C          -9.3419  -17.5815   25.5265 C.ar    1  UNL1       -0.0220
     33 C          -8.8504  -16.4052   24.7360 C.ar    1  UNL1       -0.0020
     34 C          -8.0954  -15.3044   25.4204 C.ar    1  UNL1        0.0293
     35 C          -7.8320  -15.3799   26.8952 C.ar    1  UNL1        0.1401
     36 F          -7.0770  -14.2791   27.5795 F       1  UNL1       -0.2042
     37 C          -8.3235  -16.5562   27.6856 C.ar    1  UNL1        0.0293
     38 C          -9.0785  -17.6569   27.0013 C.ar    1  UNL1       -0.0020
@<TRIPOS>BOND
     1    19    20    1
     2    20    21    2
     3    20     7    1
     4     7     8   ar
     5     8     9   ar
     6     9     1    1
     7     1     2   am
     8     2     3    2
     9     2     4   am
    10     4    22    1
    11    22    23    1
    12    23    24    1
    13    24    25    1
    14    25    26    1
    15    26    27    1
    16    27    28    1
    17    28    29    1
    18    29    31    1
    19    31    32    1
    20    32    33   ar
    21    33    34   ar
    22    34    35   ar
    23    35    36    1
    24    35    37   ar
    25    37    38   ar
    26    29    30    1
    27     9    10   ar
    28    10    11   ar
    29    11    13    1
    30    13    14   ar
    31    14    15   ar
    32    15    16   ar
    33    16    17   ar
    34    17    18    1
    35    11    12   ar
    36    12     7   ar
    37    30    25    1
    38    17    13   ar
    39    38    32   ar
    40     1     5    1
    41     4     6    1
@<TRIPOS>MOLECULE
*****
 38 41 0 0 0
SMALL
GASTEIGER

@<TRIPOS>ATOM
      1 N          -5.3361  -20.5508   20.4113 N.am    1  UNL1       -0.2683
      2 C          -6.6055  -20.0294   19.8055 C.2     1  UNL1        0.3045
      3 O          -6.9078  -18.5607   19.8460 O.2     1  UNL1       -0.2525
      4 N          -7.5724  -20.9766   19.1592 N.am    1  UNL1       -0.2887
      5 H          -5.1377  -21.5147   20.3847 H       1  UNL1        0.1564
      6 H          -7.3740  -21.9405   19.1326 H       1  UNL1        0.1510
      7 C          -2.1099  -18.3212   21.0200 C.ar    1  UNL1        0.0360
      8 C          -3.0768  -19.2685   20.3737 C.ar    1  UNL1        0.0176
      9 C          -4.3692  -19.6034   21.0576 C.ar    1  UNL1        0.0518
     10 C          -4.6946  -18.9911   22.3876 C.ar    1  UNL1        0.0178
     11 C          -3.7277  -18.0438   23.0339 C.ar    1  UNL1        0.0387
     12 C          -2.4353  -17.7089   22.3500 C.ar    1  UNL1        0.0060
     13 C          -4.0530  -17.4315   24.3640 C.ar    1  UNL1        0.1839
     14 N          -3.6578  -17.9748   25.7051 N.ar    1  UNL1       -0.1081
     15 N          -4.1913  -17.0475   26.7565 N.ar    1  UNL1       -0.0227
     16 N          -4.9162  -15.9309   26.0651 N.ar    1  UNL1       -0.0429
     17 N          -4.8307  -16.1683   24.5865 N.ar    1  UNL1       -0.2113
     18 C          -5.4196  -15.2956   23.5180 C.3     1  UNL1        0.1573
     19 C          -0.3938  -16.5545   20.1932 C.3     1  UNL1        0.0773
     20 C          -0.8175  -17.9863   20.3361 C.2     1  UNL1        0.1735
     21 O           0.0510  -19.0830   19.7953 O.2     1  UNL1       -0.2913
     22 C          -8.8417  -20.4553   18.5534 C.3     1  UNL1        0.0924
     23 C         -10.0316  -20.1816   19.4250 C.3     1  UNL1        0.0386
     24 C         -10.5116  -18.7736   19.6183 C.3     1  UNL1        0.0738
     25 N         -11.1112  -18.3590   20.9292 N.3     1  UNL1       -0.2726
     26 C         -12.4217  -17.6298   20.9574 C.3     1  UNL1        0.0721
     27 C         -13.0212  -17.2152   22.2683 C.3     1  UNL1        0.0174
     28 C         -12.3104  -17.5298   23.5512 C.3     1  UNL1        0.0031
     29 C         -10.9999  -18.2591   23.5230 C.3     1  UNL1        0.0204
     30 C         -10.4003  -18.6737   22.2120 C.3     1  UNL1        0.0724
     31 C         -10.2890  -18.5738   24.8058 C.3     1  UNL1        0.0277
     32 C          -9.5256  -17.5002   25.5231 C.ar    1  UNL1       -0.0220
     33 C          -9.1188  -17.6971   26.9533 C.ar    1  UNL1       -0.0020
     34 C          -8.3554  -16.6234   27.6706 C.ar    1  UNL1        0.0293
     35 C          -7.9988  -15.3528   26.9576 C.ar    1  UNL1        0.1401
     36 F          -7.2354  -14.2791   27.6748 F       1  UNL1       -0.2042
     37 C          -8.4057  -15.1558   25.5273 C.ar    1  UNL1        0.0293
     38 C          -9.1691  -16.2295   24.8100 C.ar    1  UNL1       -0.0020
@<TRIPOS>BOND
     1    19    20    1
     2    20    21    2
     3    20     7    1
     4     7     8   ar
     5     8     9   ar
     6     9     1    1
     7     1     2   am
     8     2     3    2
     9     2     4   am
    10     4    22    1
    11    22    23    1
    12    23    24    1
    13    24    25    1
    14    25    26    1
    15    26    27    1
    16    27    28    1
    17    28    29    1
    18    29    31    1
    19    31    32    1
    20    32    33   ar
    21    33    34   ar
    22    34    35   ar
    23    35    36    1
    24    35    37   ar
    25    37    38   ar
    26    29    30    1
    27     9    10   ar
    28    10    11   ar
    29    11    13    1
    30    13    14   ar
    31    14    15   ar
    32    15    16   ar
    33    16    17   ar
    34    17    18    1
    35    11    12   ar
    36    12     7   ar
    37    30    25    1
    38    17    13   ar
    39    38    32   ar
    40     1     5    1
    41     4     6    1
@<TRIPOS>MOLECULE
*****
 38 41 0 0 0
SMALL
GASTEIGER

@<TRIPOS>ATOM
      1 N          -9.5661  -15.7086   22.6694 N.am    1  UNL1       -0.2683
      2 C         -10.2600  -17.0015   22.3580 C.2     1  UNL1        0.3045
      3 O          -9.7303  -18.2899   22.9144 O.2     1  UNL1       -0.2525
      4 N         -11.4835  -17.0060   21.4903 N.am    1  UNL1       -0.2887
      5 H          -9.9137  -14.8630   22.3043 H       1  UNL1        0.1564
      6 H         -11.8312  -16.1604   21.1252 H       1  UNL1        0.1510
      7 C          -7.2561  -15.5822   25.8940 C.ar    1  UNL1        0.0360
      8 C          -8.4796  -15.5866   25.0263 C.ar    1  UNL1        0.0176
      9 C          -8.3425  -15.7042   23.5372 C.ar    1  UNL1        0.0518
     10 C          -6.9820  -15.8173   22.9158 C.ar    1  UNL1        0.0178
     11 C          -5.7585  -15.8128   23.7836 C.ar    1  UNL1        0.0387
     12 C          -5.8956  -15.6953   25.2726 C.ar    1  UNL1        0.0060
     13 C          -4.3979  -15.9259   23.1622 C.ar    1  UNL1        0.1839
     14 N          -3.7300  -14.8898   22.3076 N.ar    1  UNL1       -0.1081
     15 N          -2.3857  -15.4184   21.9036 N.ar    1  UNL1       -0.0227
     16 N          -2.2227  -16.7814   22.5085 N.ar    1  UNL1       -0.0429
     17 N          -3.4664  -17.0950   23.2864 N.ar    1  UNL1       -0.2113
     18 C          -3.7318  -18.3563   24.0536 C.3     1  UNL1        0.1573
     19 C          -8.5274  -14.6796   27.9722 C.3     1  UNL1        0.0773
     20 C          -7.3931  -15.4646   27.3831 C.2     1  UNL1        0.1735
     21 O          -6.3959  -16.1321   28.2831 O.2     1  UNL1       -0.2913
     22 C         -12.1774  -18.2989   21.1789 C.3     1  UNL1        0.0924
     23 C         -11.5647  -19.2639   20.2076 C.3     1  UNL1        0.0386
     24 C         -10.3698  -18.8559   19.3978 C.3     1  UNL1        0.0738
     25 N          -9.1606  -19.7420   19.3464 N.3     1  UNL1       -0.2726
     26 C          -9.1101  -20.8865   18.3781 C.3     1  UNL1        0.0721
     27 C          -7.9009  -21.7726   18.3267 C.3     1  UNL1        0.0174
     28 C          -6.7422  -21.5142   19.2437 C.3     1  UNL1        0.0031
     29 C          -6.7928  -20.3697   20.2120 C.3     1  UNL1        0.0204
     30 C          -8.0020  -19.4836   20.2633 C.3     1  UNL1        0.0724
     31 C          -5.6341  -20.1113   21.1289 C.3     1  UNL1        0.0277
     32 C          -4.3547  -19.5518   20.5814 C.ar    1  UNL1       -0.0220
     33 C          -3.0370  -20.0541   21.0925 C.ar    1  UNL1       -0.0020
     34 C          -1.7575  -19.4945   20.5448 C.ar    1  UNL1        0.0293
     35 C          -1.7958  -18.4325   19.4862 C.ar    1  UNL1        0.1401
     36 F          -0.5163  -17.8729   18.9386 F       1  UNL1       -0.2042
     37 C          -3.1135  -17.9302   18.9751 C.ar    1  UNL1        0.0293
     38 C          -4.3929  -18.4898   19.5226 C.ar    1  UNL1       -0.0020
@<TRIPOS>BOND
     1    19    20    1
     2    20    21    2
     3    20     7    1
     4     7     8   ar
     5     8     9   ar
     6     9     1    1
     7     1     2   am
     8     2     3    2
     9     2     4   am
    10     4    22    1
    11    22    23    1
    12    23    24    1
    13    24    25    1
    14    25    26    1
    15    26    27    1
    16    27    28    1
    17    28    29    1
    18    29    31    1
    19    31    32    1
    20    32    33   ar
    21    33    34   ar
    22    34    35   ar
    23    35    36    1
    24    35    37   ar
    25    37    38   ar
    26    29    30    1
    27     9    10   ar
    28    10    11   ar
    29    11    13    1
    30    13    14   ar
    31    14    15   ar
    32    15    16   ar
    33    16    17   ar
    34    17    18    1
    35    11    12   ar
    36    12     7   ar
    37    30    25    1
    38    17    13   ar
    39    38    32   ar
    40     1     5    1
    41     4     6    1
@<TRIPOS>MOLECULE
*****
 38 41 0 0 0
SMALL
GASTEIGER

@<TRIPOS>ATOM
      1 N          -5.6384  -14.9722   22.7958 N.am    1  UNL1       -0.2683
      2 C          -4.3562  -15.7492   22.8421 C.2     1  UNL1        0.3045
      3 O          -4.2015  -16.8839   23.8110 O.2     1  UNL1       -0.2525
      4 N          -3.2288  -15.3917   21.9197 N.am    1  UNL1       -0.2887
      5 H          -5.7400  -14.2275   22.1599 H       1  UNL1        0.1564
      6 H          -3.3303  -14.6470   21.2838 H       1  UNL1        0.1510
      7 C          -7.7312  -15.5215   26.1228 C.ar    1  UNL1        0.0360
      8 C          -6.6038  -15.1639   25.2003 C.ar    1  UNL1        0.0176
      9 C          -6.7659  -15.3298   23.7183 C.ar    1  UNL1        0.0518
     10 C          -8.0554  -15.8533   23.1589 C.ar    1  UNL1        0.0178
     11 C          -9.1828  -16.2108   24.0814 C.ar    1  UNL1        0.0387
     12 C          -9.0207  -16.0449   25.5633 C.ar    1  UNL1        0.0060
     13 C         -10.4725  -16.7344   23.5219 C.ar    1  UNL1        0.1839
     14 N         -11.4043  -15.9915   22.6110 N.ar    1  UNL1       -0.1081
     15 N         -12.5644  -16.8906   22.3013 N.ar    1  UNL1       -0.0227
     16 N         -12.3495  -18.1891   23.0209 N.ar    1  UNL1       -0.0429
     17 N         -11.0566  -18.0925   23.7753 N.ar    1  UNL1       -0.2113
     18 C         -10.4537  -19.1657   24.6325 C.3     1  UNL1        0.1573
     19 C          -8.4508  -14.4007   28.3534 C.3     1  UNL1        0.0773
     20 C          -7.5690  -15.3556   27.6047 C.2     1  UNL1        0.1735
     21 O          -6.5251  -16.1446   28.3380 O.2     1  UNL1       -0.2913
     22 C          -1.9466  -16.1687   21.9661 C.3     1  UNL1        0.0924
     23 C          -1.3800  -16.7568   20.7077 C.3     1  UNL1        0.0386
     24 C          -2.2159  -17.6755   19.8667 C.3     1  UNL1        0.0738
     25 N          -3.1577  -18.6422   20.5211 N.3     1  UNL1       -0.2726
     26 C          -2.9441  -19.0471   21.9495 C.3     1  UNL1        0.0721
     27 C          -3.8860  -20.0138   22.6039 C.3     1  UNL1        0.0174
     28 C          -5.0416  -20.5757   21.8299 C.3     1  UNL1        0.0031
     29 C          -5.2552  -20.1708   20.4015 C.3     1  UNL1        0.0204
     30 C          -4.3132  -19.2040   19.7471 C.3     1  UNL1        0.0724
     31 C          -6.4106  -20.7326   19.6275 C.3     1  UNL1        0.0277
     32 C          -7.7447  -20.0482   19.6689 C.ar    1  UNL1       -0.0220
     33 C          -8.7844  -20.3684   18.6361 C.ar    1  UNL1       -0.0020
     34 C         -10.1185  -19.6839   18.6776 C.ar    1  UNL1        0.0293
     35 C         -10.4129  -18.6792   19.7517 C.ar    1  UNL1        0.1401
     36 F         -11.7470  -17.9947   19.7932 F       1  UNL1       -0.2042
     37 C          -9.3733  -18.3590   20.7845 C.ar    1  UNL1        0.0293
     38 C          -8.0392  -19.0434   20.7431 C.ar    1  UNL1       -0.0020
@<TRIPOS>BOND
     1    19    20    1
     2    20    21    2
     3    20     7    1
     4     7     8   ar
     5     8     9   ar
     6     9     1    1
     7     1     2   am
     8     2     3    2
     9     2     4   am
    10     4    22    1
    11    22    23    1
    12    23    24    1
    13    24    25    1
    14    25    26    1
    15    26    27    1
    16    27    28    1
    17    28    29    1
    18    29    31    1
    19    31    32    1
    20    32    33   ar
    21    33    34   ar
    22    34    35   ar
    23    35    36    1
    24    35    37   ar
    25    37    38   ar
    26    29    30    1
    27     9    10   ar
    28    10    11   ar
    29    11    13    1
    30    13    14   ar
    31    14    15   ar
    32    15    16   ar
    33    16    17   ar
    34    17    18    1
    35    11    12   ar
    36    12     7   ar
    37    30    25    1
    38    17    13   ar
    39    38    32   ar
    40     1     5    1
    41     4     6    1
@<TRIPOS>MOLECULE
*****
 38 41 0 0 0
SMALL
GASTEIGER

@<TRIPOS>ATOM
      1 N           4.9490   -3.4254   33.0277 N.am    1  UNL1       -0.2683
      2 C           6.1599   -3.7828   32.2178 C.2     1  UNL1        0.3045
      3 O           6.9481   -2.7063   31.5322 O.2     1  UNL1       -0.2525
      4 N           6.5826   -5.2166   32.0935 N.am    1  UNL1       -0.2887
      5 H           4.4316   -4.1319   33.4777 H       1  UNL1        0.1564
      6 H           6.0653   -5.9231   32.5435 H       1  UNL1        0.1510
      7 C           4.4478    0.2214   34.5110 C.ar    1  UNL1        0.0360
      8 C           4.8705   -1.2124   34.3867 C.ar    1  UNL1        0.0176
      9 C           4.5262   -1.9915   33.1520 C.ar    1  UNL1        0.0518
     10 C           3.7592   -1.3368   32.0416 C.ar    1  UNL1        0.0178
     11 C           3.3365    0.0970   32.1660 C.ar    1  UNL1        0.0387
     12 C           3.6808    0.8761   33.4007 C.ar    1  UNL1        0.0060
     13 C           2.5695    0.7518   31.0555 C.ar    1  UNL1        0.1839
     14 N           1.1432    1.2117   31.1210 N.ar    1  UNL1       -0.1081
     15 N           0.7862    1.8058   29.7907 N.ar    1  UNL1       -0.0227
     16 N           1.9919    1.7130   28.9031 N.ar    1  UNL1       -0.0429
     17 N           3.0940    1.0616   29.6848 N.ar    1  UNL1       -0.2113
     18 C           4.4776    0.7711   29.1838 C.3     1  UNL1        0.1573
     19 C           5.3745    0.2992   36.9370 C.3     1  UNL1        0.0773
     20 C           4.7922    1.0004   35.7457 C.2     1  UNL1        0.1735
     21 O           4.5541    2.4807   35.7892 O.2     1  UNL1       -0.2913
     22 C           7.7936   -5.5739   31.2836 C.3     1  UNL1        0.0924
     23 C           7.6338   -6.2475   29.9528 C.3     1  UNL1        0.0386
     24 C           6.9751   -5.5201   28.8184 C.3     1  UNL1        0.0738
     25 N           7.3098   -5.8805   27.4013 N.3     1  UNL1       -0.2726
     26 C           7.5046   -7.3178   27.0190 C.3     1  UNL1        0.0721
     27 C           7.8392   -7.6783   25.6020 C.3     1  UNL1        0.0174
     28 C           7.9792   -6.6014   24.5672 C.3     1  UNL1        0.0031
     29 C           7.7844   -5.1640   24.9495 C.3     1  UNL1        0.0204
     30 C           7.4497   -4.8036   26.3666 C.3     1  UNL1        0.0724
     31 C           7.9243   -4.0871   23.9148 C.3     1  UNL1        0.0277
     32 C           6.8678   -3.9148   22.8641 C.ar    1  UNL1       -0.0220
     33 C           5.4518   -3.6246   23.2649 C.ar    1  UNL1       -0.0020
     34 C           4.3952   -3.4523   22.2141 C.ar    1  UNL1        0.0293
     35 C           4.7547   -3.5702   20.7626 C.ar    1  UNL1        0.1401
     36 F           3.6982   -3.3979   19.7118 F       1  UNL1       -0.2042
     37 C           6.1708   -3.8604   20.3618 C.ar    1  UNL1        0.0293
     38 C           7.2273   -4.0327   21.4125 C.ar    1  UNL1       -0.0020
@<TRIPOS>BOND
     1    19    20    1
     2    20    21    2
     3    20     7    1
     4     7     8   ar
     5     8     9   ar
     6     9     1    1
     7     1     2   am
     8     2     3    2
     9     2     4   am
    10     4    22    1
    11    22    23    1
    12    23    24    1
    13    24    25    1
    14    25    26    1
    15    26    27    1
    16    27    28    1
    17    28    29    1
    18    29    31    1
    19    31    32    1
    20    32    33   ar
    21    33    34   ar
    22    34    35   ar
    23    35    36    1
    24    35    37   ar
    25    37    38   ar
    26    29    30    1
    27     9    10   ar
    28    10    11   ar
    29    11    13    1
    30    13    14   ar
    31    14    15   ar
    32    15    16   ar
    33    16    17   ar
    34    17    18    1
    35    11    12   ar
    36    12     7   ar
    37    30    25    1
    38    17    13   ar
    39    38    32   ar
    40     1     5    1
    41     4     6    1
@<TRIPOS>MOLECULE
*****
 38 41 0 0 0
SMALL
GASTEIGER

@<TRIPOS>ATOM
      1 N           4.6524   -2.7478   24.0017 N.am    1  UNL1       -0.2683
      2 C           5.7654   -1.9664   24.6345 C.2     1  UNL1        0.3045
      3 O           6.3900   -0.8191   23.8971 O.2     1  UNL1       -0.2525
      4 N           6.2540   -2.3322   26.0047 N.am    1  UNL1       -0.2887
      5 H           4.2425   -3.5008   24.4857 H       1  UNL1        0.1564
      6 H           5.8441   -3.0852   26.4887 H       1  UNL1        0.1510
      7 C           4.1882   -2.7540   20.0603 C.ar    1  UNL1        0.0360
      8 C           4.6767   -3.1199   21.4305 C.ar    1  UNL1        0.0176
      9 C           4.1638   -2.3819   22.6315 C.ar    1  UNL1        0.0518
     10 C           3.1624   -1.2781   22.4622 C.ar    1  UNL1        0.0178
     11 C           2.6739   -0.9123   21.0920 C.ar    1  UNL1        0.0387
     12 C           3.1868   -1.6502   19.8911 C.ar    1  UNL1        0.0060
     13 C           1.6724    0.1916   20.9227 C.ar    1  UNL1        0.1839
     14 N           0.1853    0.0246   20.8190 N.ar    1  UNL1       -0.1081
     15 N          -0.4241    1.3860   20.6596 N.ar    1  UNL1       -0.0227
     16 N           0.6865    2.3943   20.6649 N.ar    1  UNL1       -0.0429
     17 N           1.9821    1.6562   20.8275 N.ar    1  UNL1       -0.2113
     18 C           3.3477    2.2741   20.8847 C.3     1  UNL1        0.1573
     19 C           4.5716   -4.9845   18.7844 C.3     1  UNL1        0.0773
     20 C           4.7012   -3.4920   18.8593 C.2     1  UNL1        0.1735
     21 O           5.3436   -2.7375   17.7333 O.2     1  UNL1       -0.2913
     22 C           7.3671   -1.5508   26.6375 C.3     1  UNL1        0.0924
     23 C           7.0564   -0.4887   27.6502 C.3     1  UNL1        0.0386
     24 C           5.6422   -0.0275   27.8436 C.3     1  UNL1        0.0738
     25 N           4.9462    0.7341   26.7548 N.3     1  UNL1       -0.2726
     26 C           5.6420    1.8763   26.0757 C.3     1  UNL1        0.0721
     27 C           4.9460    2.6379   24.9869 C.3     1  UNL1        0.0174
     28 C           3.5541    2.2572   24.5772 C.3     1  UNL1        0.0031
     29 C           2.8583    1.1150   25.2563 C.3     1  UNL1        0.0204
     30 C           3.5544    0.3534   26.3451 C.3     1  UNL1        0.0724
     31 C           1.4664    0.7344   24.8466 C.3     1  UNL1        0.0277
     32 C           0.3034    1.5863   25.2605 C.ar    1  UNL1       -0.0220
     33 C          -0.2272    1.5021   26.6610 C.ar    1  UNL1       -0.0020
     34 C          -1.3903    2.3542   27.0749 C.ar    1  UNL1        0.0293
     35 C          -2.0228    3.2904   26.0883 C.ar    1  UNL1        0.1401
     36 F          -3.1859    4.1424   26.5021 F       1  UNL1       -0.2042
     37 C          -1.4922    3.3746   24.6878 C.ar    1  UNL1        0.0293
     38 C          -0.3292    2.5226   24.2739 C.ar    1  UNL1       -0.0020
@<TRIPOS>BOND
     1    19    20    1
     2    20    21    2
     3    20     7    1
     4     7     8   ar
     5     8     9   ar
     6     9     1    1
     7     1     2   am
     8     2     3    2
     9     2     4   am
    10     4    22    1
    11    22    23    1
    12    23    24    1
    13    24    25    1
    14    25    26    1
    15    26    27    1
    16    27    28    1
    17    28    29    1
    18    29    31    1
    19    31    32    1
    20    32    33   ar
    21    33    34   ar
    22    34    35   ar
    23    35    36    1
    24    35    37   ar
    25    37    38   ar
    26    29    30    1
    27     9    10   ar
    28    10    11   ar
    29    11    13    1
    30    13    14   ar
    31    14    15   ar
    32    15    16   ar
    33    16    17   ar
    34    17    18    1
    35    11    12   ar
    36    12     7   ar
    37    30    25    1
    38    17    13   ar
    39    38    32   ar
    40     1     5    1
    41     4     6    1
@<TRIPOS>MOLECULE
*****
 38 41 0 0 0
SMALL
GASTEIGER

@<TRIPOS>ATOM
      1 N           4.7371   -2.7530   23.9046 N.am    1  UNL1       -0.2683
      2 C           5.8375   -3.7660   24.0185 C.2     1  UNL1        0.3045
      3 O           6.4135   -4.3899   22.7819 O.2     1  UNL1       -0.2525
      4 N           6.3618   -4.1552   25.3689 N.am    1  UNL1       -0.2887
      5 H           4.3590   -2.3436   24.7162 H       1  UNL1        0.1564
      6 H           5.9838   -3.7458   26.1805 H       1  UNL1        0.1510
      7 C           4.1794   -2.6830   19.9760 C.ar    1  UNL1        0.0360
      8 C           4.7037   -3.0721   21.3264 C.ar    1  UNL1        0.0176
      9 C           4.2127   -2.3639   22.5542 C.ar    1  UNL1        0.0518
     10 C           3.1975   -1.2666   22.4315 C.ar    1  UNL1        0.0178
     11 C           2.6732   -0.8775   21.0811 C.ar    1  UNL1        0.0387
     12 C           3.1641   -1.5857   19.8533 C.ar    1  UNL1        0.0060
     13 C           1.6578    0.2199   20.9584 C.ar    1  UNL1        0.1839
     14 N           0.1717    0.0395   20.8637 N.ar    1  UNL1       -0.1081
     15 N          -0.4542    1.3983   20.7556 N.ar    1  UNL1       -0.0227
     16 N           0.6451    2.4186   20.7835 N.ar    1  UNL1       -0.0429
     17 N           1.9504    1.6902   20.9088 N.ar    1  UNL1       -0.2113
     18 C           3.3095    2.3215   20.9733 C.3     1  UNL1        0.1573
     19 C           4.5504   -4.8828   18.6443 C.3     1  UNL1        0.0773
     20 C           4.6704   -3.3912   18.7482 C.2     1  UNL1        0.1735
     21 O           5.2813   -2.6079   17.6244 O.2     1  UNL1       -0.2913
     22 C           7.4622   -5.1682   25.4828 C.3     1  UNL1        0.0924
     23 C           7.9358   -5.6123   26.8350 C.3     1  UNL1        0.0386
     24 C           6.9400   -5.9549   27.9032 C.3     1  UNL1        0.0738
     25 N           6.8325   -5.0994   29.1306 N.3     1  UNL1       -0.2726
     26 C           7.0607   -5.7002   30.4859 C.3     1  UNL1        0.0721
     27 C           6.9532   -4.8447   31.7133 C.3     1  UNL1        0.0174
     28 C           6.6176   -3.3883   31.5854 C.3     1  UNL1        0.0031
     29 C           6.3895   -2.7875   30.2301 C.3     1  UNL1        0.0204
     30 C           6.4970   -3.6431   29.0027 C.3     1  UNL1        0.0724
     31 C           6.0539   -1.3311   30.1021 C.3     1  UNL1        0.0277
     32 C           4.6326   -0.9057   29.8809 C.ar    1  UNL1       -0.0220
     33 C           3.8098   -0.4110   31.0334 C.ar    1  UNL1       -0.0020
     34 C           2.3885    0.0145   30.8121 C.ar    1  UNL1        0.0293
     35 C           1.7901   -0.0547   29.4384 C.ar    1  UNL1        0.1401
     36 F           0.3687    0.3708   29.2171 F       1  UNL1       -0.2042
     37 C           2.6129   -0.5494   28.2859 C.ar    1  UNL1        0.0293
     38 C           4.0342   -0.9749   28.5072 C.ar    1  UNL1       -0.0020
@<TRIPOS>BOND
     1    19    20    1
     2    20    21    2
     3    20     7    1
     4     7     8   ar
     5     8     9   ar
     6     9     1    1
     7     1     2   am
     8     2     3    2
     9     2     4   am
    10     4    22    1
    11    22    23    1
    12    23    24    1
    13    24    25    1
    14    25    26    1
    15    26    27    1
    16    27    28    1
    17    28    29    1
    18    29    31    1
    19    31    32    1
    20    32    33   ar
    21    33    34   ar
    22    34    35   ar
    23    35    36    1
    24    35    37   ar
    25    37    38   ar
    26    29    30    1
    27     9    10   ar
    28    10    11   ar
    29    11    13    1
    30    13    14   ar
    31    14    15   ar
    32    15    16   ar
    33    16    17   ar
    34    17    18    1
    35    11    12   ar
    36    12     7   ar
    37    30    25    1
    38    17    13   ar
    39    38    32   ar
    40     1     5    1
    41     4     6    1
@<TRIPOS>MOLECULE
*****
 38 41 0 0 0
SMALL
GASTEIGER

@<TRIPOS>ATOM
      1 N           1.0950    0.8642   25.4860 N.am    1  UNL1       -0.2683
      2 C           2.4955    1.3278   25.7577 C.2     1  UNL1        0.3045
      3 O           2.8835    2.7487   25.4738 O.2     1  UNL1       -0.2525
      4 N           3.5079    0.3705   26.3132 N.am    1  UNL1       -0.2887
      5 H           0.8403   -0.0683   25.6724 H       1  UNL1        0.1564
      6 H           3.2532   -0.5620   26.4995 H       1  UNL1        0.1510
      7 C          -0.9779    3.0470   22.8999 C.ar    1  UNL1        0.0360
      8 C           0.0344    2.0897   23.4554 C.ar    1  UNL1        0.0176
      9 C           0.0826    1.8215   24.9305 C.ar    1  UNL1        0.0518
     10 C          -0.8816    2.5106   25.8499 C.ar    1  UNL1        0.0178
     11 C          -1.8940    3.4679   25.2944 C.ar    1  UNL1        0.0387
     12 C          -1.9421    3.7361   23.8193 C.ar    1  UNL1        0.0060
     13 C          -2.8582    4.1570   26.2138 C.ar    1  UNL1        0.1839
     14 N          -4.2828    3.7562   26.4586 N.ar    1  UNL1       -0.1081
     15 N          -4.8723    4.7194   27.4460 N.ar    1  UNL1       -0.0227
     16 N          -3.8119    5.7155   27.8114 N.ar    1  UNL1       -0.0429
     17 N          -2.5672    5.3679   27.0499 N.ar    1  UNL1       -0.2113
     18 C          -1.2608    6.1023   27.1134 C.3     1  UNL1        0.1573
     19 C          -0.0751    4.2988   20.8099 C.3     1  UNL1        0.0773
     20 C          -1.0261    3.3152   21.4248 C.2     1  UNL1        0.1735
     21 O          -2.0252    2.5998   20.5647 O.2     1  UNL1       -0.2913
     22 C           4.9084    0.8341   26.5849 C.3     1  UNL1        0.0924
     23 C           5.9738    0.6516   25.5448 C.3     1  UNL1        0.0386
     24 C           5.5970    0.5350   24.0976 C.3     1  UNL1        0.0738
     25 N           5.2678   -0.8070   23.5141 N.3     1  UNL1       -0.2726
     26 C           5.6411   -2.0581   24.2528 C.3     1  UNL1        0.0721
     27 C           5.3120   -3.4001   23.6693 C.3     1  UNL1        0.0174
     28 C           4.6095   -3.4912   22.3470 C.3     1  UNL1        0.0031
     29 C           4.2362   -2.2402   21.6083 C.3     1  UNL1        0.0204
     30 C           4.5654   -0.8981   22.1919 C.3     1  UNL1        0.0724
     31 C           3.5337   -2.3312   20.2861 C.3     1  UNL1        0.0277
     32 C           2.7446   -1.1629   19.7742 C.ar    1  UNL1       -0.0220
     33 C           3.3000   -0.3064   18.6751 C.ar    1  UNL1       -0.0020
     34 C           2.5108    0.8620   18.1631 C.ar    1  UNL1        0.0293
     35 C           1.1662    1.1739   18.7502 C.ar    1  UNL1        0.1401
     36 F           0.3769    2.3422   18.2383 F       1  UNL1       -0.2042
     37 C           0.6107    0.3174   19.8493 C.ar    1  UNL1        0.0293
     38 C           1.3999   -0.8510   20.3613 C.ar    1  UNL1       -0.0020
@<TRIPOS>BOND
     1    19    20    1
     2    20    21    2
     3    20     7    1
     4     7     8   ar
     5     8     9   ar
     6     9     1    1
     7     1     2   am
     8     2     3    2
     9     2     4   am
    10     4    22    1
    11    22    23    1
    12    23    24    1
    13    24    25    1
    14    25    26    1
    15    26    27    1
    16    27    28    1
    17    28    29    1
    18    29    31    1
    19    31    32    1
    20    32    33   ar
    21    33    34   ar
    22    34    35   ar
    23    35    36    1
    24    35    37   ar
    25    37    38   ar
    26    29    30    1
    27     9    10   ar
    28    10    11   ar
    29    11    13    1
    30    13    14   ar
    31    14    15   ar
    32    15    16   ar
    33    16    17   ar
    34    17    18    1
    35    11    12   ar
    36    12     7   ar
    37    30    25    1
    38    17    13   ar
    39    38    32   ar
    40     1     5    1
    41     4     6    1
