@<TRIPOS>MOLECULE
*****
 41 44 0 0 0
SMALL
GASTEIGER

@<TRIPOS>ATOM
      1 C           0.6422    1.9839   27.0362 C.ar    1  UNL1        0.0053
      2 C          -0.5893    2.3513   26.2627 C.ar    1  UNL1        0.0033
      3 C          -0.6509    2.0970   24.7857 C.ar    1  UNL1        0.0382
      4 C           0.5189    1.4753   24.0822 C.ar    1  UNL1        0.1529
      5 C           1.7505    1.1079   24.8557 C.ar    1  UNL1        0.0882
      6 C           1.8121    1.3622   26.3327 C.ar    1  UNL1        0.0181
      7 N           2.9203    0.4862   24.1523 N.am    1  UNL1       -0.2512
      8 C           2.8587    0.2318   22.6753 C.2     1  UNL1        0.2698
      9 O           4.0286   -0.3899   21.9719 O.2     1  UNL1       -0.2704
     10 C           1.6271    0.5992   21.9017 C.3     1  UNL1        0.2199
     11 C           0.6887    0.7715   20.7443 C.3     1  UNL1        0.0579
     12 O           0.4573    1.2209   22.6052 O.3     1  UNL1       -0.4686
     13 C           0.3574    1.1432   29.4779 C.ar    1  UNL1        0.0645
     14 N           0.4190    1.3974   30.9549 N.ar    1  UNL1       -0.2183
     15 C           0.8273    2.7469   31.4672 C.ar    1  UNL1        0.2145
     16 N           0.8889    3.0012   32.9442 N.pl3   1  UNL1       -0.3274
     17 N           1.1738    3.8420   30.5025 N.ar    1  UNL1       -0.1995
     18 C           1.1121    3.5877   29.0255 C.ar    1  UNL1        0.1293
     19 N           1.4586    4.6828   28.0608 N.pl3   1  UNL1       -0.3425
     20 C           0.7039    2.2383   28.5132 C.ar    1  UNL1        0.0449
     21 H           0.6615    2.2824   33.5773 H       1  UNL1        0.1452
     22 H           1.1568    3.8868   33.2804 H       1  UNL1        0.1452
     23 H           1.7265    5.5685   28.3970 H       1  UNL1        0.1437
     24 H           1.4181    4.5159   27.0914 H       1  UNL1        0.1437
     25 C          -1.5049   -0.5470   28.8256 C.3     1  UNL1        0.0067
     26 C          -0.0508   -0.2063   28.9655 C.3     1  UNL1        0.0460
     27 C           2.4711    0.0373   20.7963 C.ar    1  UNL1        0.0264
     28 C           3.3417    0.9469   19.9810 C.ar    1  UNL1        0.0293
     29 C           4.1857    0.3849   18.8755 C.ar    1  UNL1        0.1422
     30 F           5.0563    1.2946   18.0602 F       1  UNL1       -0.2041
     31 C           4.1591   -1.0864   18.5854 C.ar    1  UNL1        0.0592
     32 C           3.2885   -1.9960   19.4008 C.ar    1  UNL1        0.1422
     33 F           3.2619   -3.4674   19.1107 F       1  UNL1       -0.2041
     34 C           2.4445   -1.4341   20.5062 C.ar    1  UNL1        0.0293
     35 C           4.1519    0.1188   24.9258 C.3     1  UNL1        0.1196
     36 C           4.3452   -1.2900   25.4032 C.3     1  UNL1        0.1113
     37 N           4.5099   -2.4024   24.4104 N.am    1  UNL1       -0.3026
     38 C           5.8721   -2.7392   23.8805 C.2     1  UNL1        0.2230
     39 C           6.0368   -3.8515   22.8878 C.3     1  UNL1        0.0946
     40 O           7.0698   -1.9635   24.3433 O.2     1  UNL1       -0.2751
     41 H           3.7238   -2.9114   24.1067 H       1  UNL1        0.1495
@<TRIPOS>BOND
     1    25    26    1
     2    26    13    1
     3    13    14   ar
     4    14    15   ar
     5    15    16    1
     6    15    17   ar
     7    17    18   ar
     8    18    19    1
     9    18    20   ar
    10    20     1    1
    11     1     2   ar
    12     2     3   ar
    13     3     4   ar
    14     4     5   ar
    15     5     6   ar
    16     5     7    1
    17     7    35    1
    18    35    36    1
    19    36    37    1
    20    37    38   am
    21    38    39    1
    22    38    40    2
    23     7     8   am
    24     8     9    2
    25     8    10    1
    26    10    11    1
    27    10    27    1
    28    27    28   ar
    29    28    29   ar
    30    29    30    1
    31    29    31   ar
    32    31    32   ar
    33    32    33    1
    34    32    34   ar
    35    10    12    1
    36    20    13   ar
    37     6     1   ar
    38    34    27   ar
    39    12     4    1
    40    16    21    1
    41    16    22    1
    42    19    23    1
    43    19    24    1
    44    37    41    1
@<TRIPOS>MOLECULE
*****
 41 44 0 0 0
SMALL
GASTEIGER

@<TRIPOS>ATOM
      1 C           0.6555    1.9810   27.0277 C.ar    1  UNL1        0.0053
      2 C          -0.5790    2.3335   26.2520 C.ar    1  UNL1        0.0033
      3 C          -0.6384    2.0698   24.7766 C.ar    1  UNL1        0.0382
      4 C           0.5366    1.4536   24.0769 C.ar    1  UNL1        0.1529
      5 C           1.7711    1.1011   24.8526 C.ar    1  UNL1        0.0882
      6 C           1.8305    1.3648   26.3280 C.ar    1  UNL1        0.0181
      7 N           2.9461    0.4849   24.1529 N.am    1  UNL1       -0.2512
      8 C           2.8867    0.2212   22.6775 C.2     1  UNL1        0.2698
      9 O           4.0618   -0.3949   21.9778 O.2     1  UNL1       -0.2704
     10 C           1.6522    0.5738   21.9017 C.3     1  UNL1        0.2199
     11 C           0.7125    0.7313   20.7432 C.3     1  UNL1        0.0579
     12 O           0.4772    1.1899   22.6014 O.3     1  UNL1       -0.4686
     13 C           0.3667    1.1558   29.4743 C.ar    1  UNL1        0.0645
     14 N           0.4261    1.4194   30.9497 N.ar    1  UNL1       -0.2183
     15 C           0.8338    2.7720   31.4541 C.ar    1  UNL1        0.2145
     16 N           0.8933    3.0356   32.9296 N.pl3   1  UNL1       -0.3274
     17 N           1.1821    3.8609   30.4830 N.ar    1  UNL1       -0.1995
     18 C           1.1226    3.5972   29.0076 C.ar    1  UNL1        0.1293
     19 N           1.4708    4.6861   28.0365 N.pl3   1  UNL1       -0.3425
     20 C           0.7149    2.2447   28.5032 C.ar    1  UNL1        0.0449
     21 H           0.6647    2.3209   33.5669 H       1  UNL1        0.1452
     22 H           1.1608    3.9234   33.2606 H       1  UNL1        0.1452
     23 H           1.7384    5.5739   28.3675 H       1  UNL1        0.1437
     24 H           1.4318    4.5131   27.0681 H       1  UNL1        0.1437
     25 C          -1.4946   -0.5309   28.8103 C.3     1  UNL1        0.0067
     26 C          -0.0410   -0.1968   28.9699 C.3     1  UNL1        0.0460
     27 C           2.5009    0.0123   20.7997 C.ar    1  UNL1        0.0264
     28 C           2.4903   -1.4617   20.5217 C.ar    1  UNL1        0.0293
     29 C           3.3391   -2.0232   19.4197 C.ar    1  UNL1        0.1422
     30 F           3.3284   -3.4972   19.1418 F       1  UNL1       -0.2041
     31 C           4.1983   -1.1108   18.5957 C.ar    1  UNL1        0.0592
     32 C           4.2088    0.3632   18.8737 C.ar    1  UNL1        0.1422
     33 F           5.0681    1.2757   18.0496 F       1  UNL1       -0.2041
     34 C           3.3602    0.9248   19.9756 C.ar    1  UNL1        0.0293
     35 C           4.1806    0.1324   24.9286 C.3     1  UNL1        0.1196
     36 C           4.3797   -1.2689   25.4254 C.3     1  UNL1        0.1113
     37 N           4.5279   -2.3971   24.4480 N.am    1  UNL1       -0.3026
     38 C           5.8761   -2.7220   23.8764 C.2     1  UNL1        0.2230
     39 C           6.0243   -3.8502   22.8991 C.3     1  UNL1        0.0946
     40 O           7.0762   -1.9187   24.2823 O.2     1  UNL1       -0.2751
     41 H           3.7402   -2.9243   24.1816 H       1  UNL1        0.1495
@<TRIPOS>BOND
     1    25    26    1
     2    26    13    1
     3    13    14   ar
     4    14    15   ar
     5    15    16    1
     6    15    17   ar
     7    17    18   ar
     8    18    19    1
     9    18    20   ar
    10    20     1    1
    11     1     2   ar
    12     2     3   ar
    13     3     4   ar
    14     4     5   ar
    15     5     6   ar
    16     5     7    1
    17     7    35    1
    18    35    36    1
    19    36    37    1
    20    37    38   am
    21    38    39    1
    22    38    40    2
    23     7     8   am
    24     8     9    2
    25     8    10    1
    26    10    11    1
    27    10    27    1
    28    27    28   ar
    29    28    29   ar
    30    29    30    1
    31    29    31   ar
    32    31    32   ar
    33    32    33    1
    34    32    34   ar
    35    10    12    1
    36    20    13   ar
    37     6     1   ar
    38    34    27   ar
    39    12     4    1
    40    16    21    1
    41    16    22    1
    42    19    23    1
    43    19    24    1
    44    37    41    1
@<TRIPOS>MOLECULE
*****
 41 44 0 0 0
SMALL
GASTEIGER

@<TRIPOS>ATOM
      1 C           0.6609    1.9646   27.0078 C.ar    1  UNL1        0.0053
      2 C          -0.5934    2.3201   26.2660 C.ar    1  UNL1        0.0033
      3 C          -0.6824    2.0848   24.7873 C.ar    1  UNL1        0.0382
      4 C           0.4829    1.4940   24.0504 C.ar    1  UNL1        0.1529
      5 C           1.7372    1.1385   24.7922 C.ar    1  UNL1        0.0882
      6 C           1.8262    1.3738   26.2709 C.ar    1  UNL1        0.0181
      7 N           2.9025    0.5477   24.0553 N.am    1  UNL1       -0.2512
      8 C           2.8135    0.3124   22.5766 C.2     1  UNL1        0.2698
      9 O           3.9788   -0.2784   21.8397 O.2     1  UNL1       -0.2704
     10 C           1.5591    0.6679   21.8347 C.3     1  UNL1        0.2199
     11 C           0.5930    0.8388   20.7001 C.3     1  UNL1        0.0579
     12 O           0.3938    1.2587   22.5716 O.3     1  UNL1       -0.4686
     13 C           0.3844    1.1043   29.4437 C.ar    1  UNL1        0.0645
     14 N           0.4734    1.3396   30.9225 N.ar    1  UNL1       -0.2183
     15 C           0.9280    2.6705   31.4442 C.ar    1  UNL1        0.2145
     16 N           1.0170    2.9058   32.9229 N.pl3   1  UNL1       -0.3274
     17 N           1.2935    3.7661   30.4871 N.ar    1  UNL1       -0.1995
     18 C           1.2045    3.5308   29.0083 C.ar    1  UNL1        0.1293
     19 N           1.5700    4.6264   28.0512 N.pl3   1  UNL1       -0.3425
     20 C           0.7499    2.1999   28.4866 C.ar    1  UNL1        0.0449
     21 H           0.7771    2.1867   33.5511 H       1  UNL1        0.1452
     22 H           1.3154    3.7793   33.2653 H       1  UNL1        0.1452
     23 H           1.8683    5.4999   28.3935 H       1  UNL1        0.1437
     24 H           1.5116    4.4720   27.0806 H       1  UNL1        0.1437
     25 C          -1.5335   -0.5522   28.8715 C.3     1  UNL1        0.0067
     26 C          -0.0702   -0.2266   28.9220 C.3     1  UNL1        0.0460
     27 C           2.3889    0.1364   20.7038 C.ar    1  UNL1        0.0264
     28 C           3.1861    1.0786   19.8512 C.ar    1  UNL1        0.0293
     29 C           4.0159    0.5471   18.7202 C.ar    1  UNL1        0.1422
     30 F           4.8131    1.4893   17.8677 F       1  UNL1       -0.2041
     31 C           4.0484   -0.9264   18.4418 C.ar    1  UNL1        0.0592
     32 C           3.2512   -1.8685   19.2944 C.ar    1  UNL1        0.1422
     33 F           3.2838   -3.3421   19.0160 F       1  UNL1       -0.2041
     34 C           2.4214   -1.3372   20.4253 C.ar    1  UNL1        0.0293
     35 C           4.1568    0.1922   24.7971 C.3     1  UNL1        0.1196
     36 C           4.4051   -1.2272   25.2136 C.3     1  UNL1        0.1113
     37 N           5.2911   -1.5202   26.3880 N.am    1  UNL1       -0.3026
     38 C           4.7040   -1.6164   27.7650 C.2     1  UNL1        0.2230
     39 C           5.5899   -1.9094   28.9393 C.3     1  UNL1        0.0946
     40 O           3.2307   -1.4198   27.9675 O.2     1  UNL1       -0.2751
     41 H           6.2580   -1.6492   26.2551 H       1  UNL1        0.1495
@<TRIPOS>BOND
     1    25    26    1
     2    26    13    1
     3    13    14   ar
     4    14    15   ar
     5    15    16    1
     6    15    17   ar
     7    17    18   ar
     8    18    19    1
     9    18    20   ar
    10    20     1    1
    11     1     2   ar
    12     2     3   ar
    13     3     4   ar
    14     4     5   ar
    15     5     6   ar
    16     5     7    1
    17     7    35    1
    18    35    36    1
    19    36    37    1
    20    37    38   am
    21    38    39    1
    22    38    40    2
    23     7     8   am
    24     8     9    2
    25     8    10    1
    26    10    11    1
    27    10    27    1
    28    27    28   ar
    29    28    29   ar
    30    29    30    1
    31    29    31   ar
    32    31    32   ar
    33    32    33    1
    34    32    34   ar
    35    10    12    1
    36    20    13   ar
    37     6     1   ar
    38    34    27   ar
    39    12     4    1
    40    16    21    1
    41    16    22    1
    42    19    23    1
    43    19    24    1
    44    37    41    1
@<TRIPOS>MOLECULE
*****
 41 44 0 0 0
SMALL
GASTEIGER

@<TRIPOS>ATOM
      1 C           0.6577    1.9691   26.9115 C.ar    1  UNL1        0.0053
      2 C          -0.5439    2.3906   26.1188 C.ar    1  UNL1        0.0033
      3 C          -0.5916    2.1428   24.6402 C.ar    1  UNL1        0.0382
      4 C           0.5623    1.4733   23.9543 C.ar    1  UNL1        0.1529
      5 C           1.7639    1.0518   24.7471 C.ar    1  UNL1        0.0882
      6 C           1.8116    1.2996   26.2256 C.ar    1  UNL1        0.0181
      7 N           2.9177    0.3823   24.0612 N.am    1  UNL1       -0.2512
      8 C           2.8700    0.1345   22.5826 C.2     1  UNL1        0.2698
      9 O           4.0239   -0.5350   21.8967 O.2     1  UNL1       -0.2704
     10 C           1.6684    0.5560   21.7898 C.3     1  UNL1        0.2199
     11 C           0.7577    0.7711   20.6175 C.3     1  UNL1        0.0579
     12 O           0.5145    1.2255   22.4757 O.3     1  UNL1       -0.4686
     13 C           0.2575    1.1497   29.3443 C.ar    1  UNL1        0.0645
     14 N           0.3052    1.3975   30.8229 N.ar    1  UNL1       -0.2183
     15 C           0.8009    2.7126   31.3474 C.ar    1  UNL1        0.2145
     16 N           0.8486    2.9604   32.8260 N.pl3   1  UNL1       -0.3274
     17 N           1.2488    3.7798   30.3932 N.ar    1  UNL1       -0.1995
     18 C           1.2011    3.5319   28.9146 C.ar    1  UNL1        0.1293
     19 N           1.6490    4.5991   27.9604 N.pl3   1  UNL1       -0.3425
     20 C           0.7054    2.2169   28.3902 C.ar    1  UNL1        0.0449
     21 H           0.5546    2.2600   33.4522 H       1  UNL1        0.1452
     22 H           1.1740    3.8235   33.1702 H       1  UNL1        0.1452
     23 H           1.9744    5.4622   28.3046 H       1  UNL1        0.1437
     24 H           1.6177    4.4365   26.9899 H       1  UNL1        0.1437
     25 C          -1.6844   -0.5348   28.9681 C.3     1  UNL1        0.0067
     26 C          -0.2382   -0.1653   28.8199 C.3     1  UNL1        0.0460
     27 C           2.5060   -0.0387   20.6968 C.ar    1  UNL1        0.0264
     28 C           2.4450   -1.5122   20.4227 C.ar    1  UNL1        0.0293
     29 C           3.2827   -2.1069   19.3296 C.ar    1  UNL1        0.1422
     30 F           3.2217   -3.5805   19.0555 F       1  UNL1       -0.2041
     31 C           4.1812   -1.2283   18.5108 C.ar    1  UNL1        0.0592
     32 C           4.2421    0.2451   18.7850 C.ar    1  UNL1        0.1422
     33 F           5.1407    1.1238   17.9661 F       1  UNL1       -0.2041
     34 C           3.4046    0.8400   19.8780 C.ar    1  UNL1        0.0293
     35 C           4.1193   -0.0392   24.8539 C.3     1  UNL1        0.1196
     36 C           4.1280   -1.3655   25.5546 C.3     1  UNL1        0.1113
     37 N           3.4758   -1.5083   26.8979 N.am    1  UNL1       -0.3026
     38 C           4.0252   -0.7674   28.0809 C.2     1  UNL1        0.2230
     39 C           3.3731   -0.9102   29.4241 C.3     1  UNL1        0.0946
     40 O           5.2267    0.1162   27.9205 O.2     1  UNL1       -0.2751
     41 H           2.6873   -2.0882   27.0031 H       1  UNL1        0.1495
@<TRIPOS>BOND
     1    25    26    1
     2    26    13    1
     3    13    14   ar
     4    14    15   ar
     5    15    16    1
     6    15    17   ar
     7    17    18   ar
     8    18    19    1
     9    18    20   ar
    10    20     1    1
    11     1     2   ar
    12     2     3   ar
    13     3     4   ar
    14     4     5   ar
    15     5     6   ar
    16     5     7    1
    17     7    35    1
    18    35    36    1
    19    36    37    1
    20    37    38   am
    21    38    39    1
    22    38    40    2
    23     7     8   am
    24     8     9    2
    25     8    10    1
    26    10    11    1
    27    10    27    1
    28    27    28   ar
    29    28    29   ar
    30    29    30    1
    31    29    31   ar
    32    31    32   ar
    33    32    33    1
    34    32    34   ar
    35    10    12    1
    36    20    13   ar
    37     6     1   ar
    38    34    27   ar
    39    12     4    1
    40    16    21    1
    41    16    22    1
    42    19    23    1
    43    19    24    1
    44    37    41    1
@<TRIPOS>MOLECULE
*****
 41 44 0 0 0
SMALL
GASTEIGER

@<TRIPOS>ATOM
      1 C           0.7200    1.6818   26.6365 C.ar    1  UNL1        0.0053
      2 C          -0.4675    2.1291   25.8367 C.ar    1  UNL1        0.0033
      3 C          -0.4928    1.9210   24.3515 C.ar    1  UNL1        0.0382
      4 C           0.6693    1.2655   23.6661 C.ar    1  UNL1        0.1529
      5 C           1.8568    0.8182   24.4659 C.ar    1  UNL1        0.0882
      6 C           1.8821    1.0263   25.9511 C.ar    1  UNL1        0.0181
      7 N           3.0189    0.1627   23.7804 N.am    1  UNL1       -0.2512
      8 C           2.9936   -0.0455   22.2952 C.2     1  UNL1        0.2698
      9 O           4.1557   -0.7009   21.6098 O.2     1  UNL1       -0.2704
     10 C           1.8060    0.4019   21.4953 C.3     1  UNL1        0.2199
     11 C           0.9146    0.6517   20.3151 C.3     1  UNL1        0.0579
     12 O           0.6439    1.0573   22.1807 O.3     1  UNL1       -0.4686
     13 C           1.3219    3.1516   28.6926 C.ar    1  UNL1        0.0645
     14 N           1.3473    3.3598   30.1779 N.ar    1  UNL1       -0.2183
     15 C           0.7962    2.3062   31.0924 C.ar    1  UNL1        0.2145
     16 N           0.8217    2.5144   32.5777 N.pl3   1  UNL1       -0.3274
     17 N           0.2198    1.0445   30.5217 N.ar    1  UNL1       -0.1995
     18 C           0.1944    0.8364   29.0364 C.ar    1  UNL1        0.1293
     19 N          -0.3821   -0.4253   28.4656 N.pl3   1  UNL1       -0.3425
     20 C           0.7454    1.8899   28.1219 C.ar    1  UNL1        0.0449
     21 H           1.2000    3.3425   32.9523 H       1  UNL1        0.1452
     22 H           0.4600    1.8229   33.1779 H       1  UNL1        0.1452
     23 H          -0.7438   -1.1168   29.0658 H       1  UNL1        0.1437
     24 H          -0.3988   -0.5620   27.4908 H       1  UNL1        0.1437
     25 C           1.0017    5.3420   27.3326 C.3     1  UNL1        0.0067
     26 C           1.8730    4.2052   27.7780 C.3     1  UNL1        0.0460
     27 C           2.6586   -0.1668   20.4000 C.ar    1  UNL1        0.0264
     28 C           3.5325    0.7382   19.5832 C.ar    1  UNL1        0.0293
     29 C           4.3851    0.1694   18.4879 C.ar    1  UNL1        0.1422
     30 F           5.2590    1.0746   17.6711 F       1  UNL1       -0.2041
     31 C           4.3637   -1.3042   18.2094 C.ar    1  UNL1        0.0592
     32 C           3.4898   -2.2092   19.0261 C.ar    1  UNL1        0.1422
     33 F           3.4684   -3.6830   18.7476 F       1  UNL1       -0.2041
     34 C           2.6372   -1.6406   20.1215 C.ar    1  UNL1        0.0293
     35 C           4.2064   -0.2846   24.5802 C.3     1  UNL1        0.1196
     36 C           4.2719   -1.6886   25.1044 C.3     1  UNL1        0.1113
     37 N           5.4997   -2.5188   24.8735 N.am    1  UNL1       -0.3026
     38 C           5.5464   -3.4863   23.7282 C.2     1  UNL1        0.2230
     39 C           6.7742   -4.3165   23.4973 C.3     1  UNL1        0.0946
     40 O           4.3653   -3.6235   22.8137 O.2     1  UNL1       -0.2751
     41 H           6.2749   -2.4287   25.4737 H       1  UNL1        0.1495
@<TRIPOS>BOND
     1    25    26    1
     2    26    13    1
     3    13    14   ar
     4    14    15   ar
     5    15    16    1
     6    15    17   ar
     7    17    18   ar
     8    18    19    1
     9    18    20   ar
    10    20     1    1
    11     1     2   ar
    12     2     3   ar
    13     3     4   ar
    14     4     5   ar
    15     5     6   ar
    16     5     7    1
    17     7    35    1
    18    35    36    1
    19    36    37    1
    20    37    38   am
    21    38    39    1
    22    38    40    2
    23     7     8   am
    24     8     9    2
    25     8    10    1
    26    10    11    1
    27    10    27    1
    28    27    28   ar
    29    28    29   ar
    30    29    30    1
    31    29    31   ar
    32    31    32   ar
    33    32    33    1
    34    32    34   ar
    35    10    12    1
    36    20    13   ar
    37     6     1   ar
    38    34    27   ar
    39    12     4    1
    40    16    21    1
    41    16    22    1
    42    19    23    1
    43    19    24    1
    44    37    41    1
@<TRIPOS>MOLECULE
*****
 41 44 0 0 0
SMALL
GASTEIGER

@<TRIPOS>ATOM
      1 C           0.7078    1.7223   26.7721 C.ar    1  UNL1        0.0053
      2 C          -0.5434    2.0589   26.0163 C.ar    1  UNL1        0.0033
      3 C          -0.6095    1.8299   24.5354 C.ar    1  UNL1        0.0382
      4 C           0.5755    1.2644   23.8103 C.ar    1  UNL1        0.1529
      5 C           1.8267    0.9279   24.5660 C.ar    1  UNL1        0.0882
      6 C           1.8928    1.1568   26.0470 C.ar    1  UNL1        0.0181
      7 N           3.0118    0.3624   23.8409 N.am    1  UNL1       -0.2512
      8 C           2.9457    0.1335   22.3600 C.2     1  UNL1        0.2698
      9 O           4.1307   -0.4320   21.6348 O.2     1  UNL1       -0.2704
     10 C           1.6944    0.4700   21.6041 C.3     1  UNL1        0.2199
     11 C           0.7396    0.6294   20.4583 C.3     1  UNL1        0.0579
     12 O           0.5094    1.0355   22.3293 O.3     1  UNL1       -0.4686
     13 C           1.0760    3.3198   28.7877 C.ar    1  UNL1        0.0645
     14 N           1.1422    3.5488   30.2686 N.ar    1  UNL1       -0.2183
     15 C           0.9062    2.4092   31.2150 C.ar    1  UNL1        0.2145
     16 N           0.9724    2.6381   32.6959 N.pl3   1  UNL1       -0.3274
     17 N           0.6041    1.0406   30.6805 N.ar    1  UNL1       -0.1995
     18 C           0.5380    0.8117   29.1995 C.ar    1  UNL1        0.1293
     19 N           0.2359   -0.5569   28.6649 N.pl3   1  UNL1       -0.3425
     20 C           0.7739    1.9513   28.2531 C.ar    1  UNL1        0.0449
     21 H           1.1707    3.5364   33.0468 H       1  UNL1        0.1452
     22 H           0.8176    1.8902   33.3171 H       1  UNL1        0.1452
     23 H           0.0810   -1.3049   29.2860 H       1  UNL1        0.1437
     24 H           0.1924   -0.7072   27.6929 H       1  UNL1        0.1437
     25 C           0.1955    5.4064   27.5145 C.3     1  UNL1        0.0067
     26 C           1.3120    4.4594   27.8413 C.3     1  UNL1        0.0460
     27 C           2.5479   -0.0401   20.4811 C.ar    1  UNL1        0.0264
     28 C           3.3527    0.9192   19.6553 C.ar    1  UNL1        0.0293
     29 C           4.2062    0.4090   18.5321 C.ar    1  UNL1        0.1422
     30 F           5.0111    1.3685   17.7064 F       1  UNL1       -0.2041
     31 C           4.2549   -1.0603   18.2349 C.ar    1  UNL1        0.0592
     32 C           3.4501   -2.0196   19.0607 C.ar    1  UNL1        0.1422
     33 F           3.4987   -3.4891   18.7633 F       1  UNL1       -0.2041
     34 C           2.5965   -1.5096   20.1838 C.ar    1  UNL1        0.0293
     35 C           4.2630    0.0259   24.5967 C.3     1  UNL1        0.1196
     36 C           4.4178   -1.3266   25.2266 C.3     1  UNL1        0.1113
     37 N           5.2686   -1.4907   26.4511 N.am    1  UNL1       -0.3026
     38 C           4.6283   -1.5570   27.8059 C.2     1  UNL1        0.2230
     39 C           5.4791   -1.7211   29.0303 C.3     1  UNL1        0.0946
     40 O           3.1371   -1.4593   27.9363 O.2     1  UNL1       -0.2751
     41 H           6.2473   -1.5548   26.3655 H       1  UNL1        0.1495
@<TRIPOS>BOND
     1    25    26    1
     2    26    13    1
     3    13    14   ar
     4    14    15   ar
     5    15    16    1
     6    15    17   ar
     7    17    18   ar
     8    18    19    1
     9    18    20   ar
    10    20     1    1
    11     1     2   ar
    12     2     3   ar
    13     3     4   ar
    14     4     5   ar
    15     5     6   ar
    16     5     7    1
    17     7    35    1
    18    35    36    1
    19    36    37    1
    20    37    38   am
    21    38    39    1
    22    38    40    2
    23     7     8   am
    24     8     9    2
    25     8    10    1
    26    10    11    1
    27    10    27    1
    28    27    28   ar
    29    28    29   ar
    30    29    30    1
    31    29    31   ar
    32    31    32   ar
    33    32    33    1
    34    32    34   ar
    35    10    12    1
    36    20    13   ar
    37     6     1   ar
    38    34    27   ar
    39    12     4    1
    40    16    21    1
    41    16    22    1
    42    19    23    1
    43    19    24    1
    44    37    41    1
@<TRIPOS>MOLECULE
*****
 41 44 0 0 0
SMALL
GASTEIGER

@<TRIPOS>ATOM
      1 C           0.1541    2.3647   26.7355 C.ar    1  UNL1        0.0053
      2 C           1.1330    1.7504   25.7793 C.ar    1  UNL1        0.0033
      3 C           0.9034    1.8549   24.3007 C.ar    1  UNL1        0.0382
      4 C          -0.3051    2.5737   23.7783 C.ar    1  UNL1        0.1529
      5 C          -1.2840    3.1879   24.7345 C.ar    1  UNL1        0.0882
      6 C          -1.0544    3.0834   26.2131 C.ar    1  UNL1        0.0181
      7 N          -2.4925    3.9067   24.2121 N.am    1  UNL1       -0.2512
      8 C          -2.7221    4.0112   22.7335 C.2     1  UNL1        0.2698
      9 O          -3.9306    4.7300   22.2111 O.2     1  UNL1       -0.2704
     10 C          -1.7431    3.3969   21.7772 C.3     1  UNL1        0.2199
     11 C          -1.1072    2.9822   20.4835 C.3     1  UNL1        0.0579
     12 O          -0.5346    2.6782   22.2996 O.3     1  UNL1       -0.4686
     13 C           0.9899    3.4104   28.9622 C.ar    1  UNL1        0.0645
     14 N           1.2195    3.3060   30.4408 N.ar    1  UNL1       -0.2183
     15 C           0.8429    2.0513   31.1715 C.ar    1  UNL1        0.2145
     16 N           1.0724    1.9468   32.6501 N.pl3   1  UNL1       -0.3274
     17 N           0.2367    0.9010   30.4236 N.ar    1  UNL1       -0.1995
     18 C           0.0071    1.0055   28.9449 C.ar    1  UNL1        0.1293
     19 N          -0.5991   -0.1448   28.1969 N.pl3   1  UNL1       -0.3425
     20 C           0.3837    2.2602   28.2142 C.ar    1  UNL1        0.0449
     21 H           1.4703    2.7018   33.1410 H       1  UNL1        0.1452
     22 H           0.8253    1.1233   33.1297 H       1  UNL1        0.1452
     23 H          -0.8463   -0.9683   28.6765 H       1  UNL1        0.1437
     24 H          -0.7498   -0.0762   27.2264 H       1  UNL1        0.1437
     25 C           2.7864    4.8847   27.8007 C.3     1  UNL1        0.0067
     26 C           1.3665    4.6652   28.2315 C.3     1  UNL1        0.0460
     27 C          -2.7308    3.9717   20.8056 C.ar    1  UNL1        0.0264
     28 C          -3.8972    3.1480   20.3461 C.ar    1  UNL1        0.0293
     29 C          -4.8848    3.7228   19.3744 C.ar    1  UNL1        0.1422
     30 F          -6.0512    2.8990   18.9150 F       1  UNL1       -0.2041
     31 C          -4.7061    5.1212   18.8622 C.ar    1  UNL1        0.0592
     32 C          -3.5398    5.9449   19.3216 C.ar    1  UNL1        0.1422
     33 F          -3.3611    7.3433   18.8094 F       1  UNL1       -0.2041
     34 C          -2.5521    5.3702   20.2933 C.ar    1  UNL1        0.0293
     35 C          -3.4714    4.5210   25.1683 C.3     1  UNL1        0.1196
     36 C          -4.7196    3.7787   25.5439 C.3     1  UNL1        0.1113
     37 N          -5.8309    3.6279   24.5477 N.am    1  UNL1       -0.3026
     38 C          -6.9056    4.6707   24.4594 C.2     1  UNL1        0.2230
     39 C          -8.0169    4.5199   23.4633 C.3     1  UNL1        0.0946
     40 O          -6.8689    5.8642   25.3673 O.2     1  UNL1       -0.2751
     41 H          -5.8549    2.8446   23.9519 H       1  UNL1        0.1495
@<TRIPOS>BOND
     1    25    26    1
     2    26    13    1
     3    13    14   ar
     4    14    15   ar
     5    15    16    1
     6    15    17   ar
     7    17    18   ar
     8    18    19    1
     9    18    20   ar
    10    20     1    1
    11     1     2   ar
    12     2     3   ar
    13     3     4   ar
    14     4     5   ar
    15     5     6   ar
    16     5     7    1
    17     7    35    1
    18    35    36    1
    19    36    37    1
    20    37    38   am
    21    38    39    1
    22    38    40    2
    23     7     8   am
    24     8     9    2
    25     8    10    1
    26    10    11    1
    27    10    27    1
    28    27    28   ar
    29    28    29   ar
    30    29    30    1
    31    29    31   ar
    32    31    32   ar
    33    32    33    1
    34    32    34   ar
    35    10    12    1
    36    20    13   ar
    37     6     1   ar
    38    34    27   ar
    39    12     4    1
    40    16    21    1
    41    16    22    1
    42    19    23    1
    43    19    24    1
    44    37    41    1
@<TRIPOS>MOLECULE
*****
 41 44 0 0 0
SMALL
GASTEIGER

@<TRIPOS>ATOM
      1 C           1.3442    1.2416   26.3912 C.ar    1  UNL1        0.0053
      2 C           0.4160    1.9362   25.4395 C.ar    1  UNL1        0.0033
      3 C           0.5400    1.6993   23.9636 C.ar    1  UNL1        0.0382
      4 C           1.5924    0.7677   23.4394 C.ar    1  UNL1        0.1529
      5 C           2.5206    0.0731   24.3911 C.ar    1  UNL1        0.0882
      6 C           2.3966    0.3100   25.8670 C.ar    1  UNL1        0.0181
      7 N           3.5729   -0.8585   23.8668 N.am    1  UNL1       -0.2512
      8 C           3.6970   -1.0954   22.3909 C.2     1  UNL1        0.2698
      9 O           4.7493   -2.0270   21.8666 O.2     1  UNL1       -0.2704
     10 C           2.7687   -0.4008   21.4391 C.3     1  UNL1        0.2199
     11 C           2.1287    0.0213   20.1498 C.3     1  UNL1        0.0579
     12 O           1.7164    0.5308   21.9633 O.3     1  UNL1       -0.4686
     13 C           2.0504    2.5381   28.5291 C.ar    1  UNL1        0.0645
     14 N           1.9264    2.7750   30.0051 N.ar    1  UNL1       -0.2183
     15 C           0.9722    1.9523   30.8192 C.ar    1  UNL1        0.2145
     16 N           0.8482    2.1892   32.2952 N.pl3   1  UNL1       -0.3274
     17 N           0.1420    0.8927   30.1574 N.ar    1  UNL1       -0.1995
     18 C           0.2661    0.6558   28.6813 C.ar    1  UNL1        0.1293
     19 N          -0.5641   -0.4038   28.0195 N.pl3   1  UNL1       -0.3425
     20 C           1.2202    1.4785   27.8673 C.ar    1  UNL1        0.0449
     21 H           1.3931    2.8847   32.7296 H       1  UNL1        0.1452
     22 H           0.2220    1.6493   32.8295 H       1  UNL1        0.1452
     23 H          -1.1904   -0.9437   28.5538 H       1  UNL1        0.1437
     24 H          -0.4827   -0.5593   27.0507 H       1  UNL1        0.1437
     25 C           2.5409    4.6387   27.0810 C.3     1  UNL1        0.0067
     26 C           3.0046    3.3607   27.7150 C.3     1  UNL1        0.0460
     27 C           3.5987   -1.1857   20.4671 C.ar    1  UNL1        0.0264
     28 C           3.1633   -2.5580   20.0462 C.ar    1  UNL1        0.0293
     29 C           3.9934   -3.3430   19.0741 C.ar    1  UNL1        0.1422
     30 F           3.5579   -4.7154   18.6532 F       1  UNL1       -0.2041
     31 C           5.2588   -2.7558   18.5231 C.ar    1  UNL1        0.0592
     32 C           5.6942   -1.3835   18.9441 C.ar    1  UNL1        0.1422
     33 F           6.9597   -0.7962   18.3930 F       1  UNL1       -0.2041
     34 C           4.8642   -0.5984   19.9161 C.ar    1  UNL1        0.0293
     35 C           4.5012   -1.5531   24.8185 C.3     1  UNL1        0.1196
     36 C           5.8803   -1.0109   25.0513 C.3     1  UNL1        0.1113
     37 N           6.9308   -1.1524   23.9899 N.am    1  UNL1       -0.3026
     38 C           7.1698   -0.0356   23.0175 C.2     1  UNL1        0.2230
     39 C           8.2202   -0.1771   21.9562 C.3     1  UNL1        0.0946
     40 O           6.3582    1.2228   23.1065 O.2     1  UNL1       -0.2751
     41 H           7.4634   -1.9783   23.9315 H       1  UNL1        0.1495
@<TRIPOS>BOND
     1    25    26    1
     2    26    13    1
     3    13    14   ar
     4    14    15   ar
     5    15    16    1
     6    15    17   ar
     7    17    18   ar
     8    18    19    1
     9    18    20   ar
    10    20     1    1
    11     1     2   ar
    12     2     3   ar
    13     3     4   ar
    14     4     5   ar
    15     5     6   ar
    16     5     7    1
    17     7    35    1
    18    35    36    1
    19    36    37    1
    20    37    38   am
    21    38    39    1
    22    38    40    2
    23     7     8   am
    24     8     9    2
    25     8    10    1
    26    10    11    1
    27    10    27    1
    28    27    28   ar
    29    28    29   ar
    30    29    30    1
    31    29    31   ar
    32    31    32   ar
    33    32    33    1
    34    32    34   ar
    35    10    12    1
    36    20    13   ar
    37     6     1   ar
    38    34    27   ar
    39    12     4    1
    40    16    21    1
    41    16    22    1
    42    19    23    1
    43    19    24    1
    44    37    41    1
@<TRIPOS>MOLECULE
*****
 41 44 0 0 0
SMALL
GASTEIGER

@<TRIPOS>ATOM
      1 C           6.8797   -2.3410   31.2027 C.ar    1  UNL1        0.0053
      2 C           8.0168   -1.7145   31.9539 C.ar    1  UNL1        0.0033
      3 C           7.7970   -0.4491   32.7287 C.ar    1  UNL1        0.0382
      4 C           6.4400    0.1898   32.7523 C.ar    1  UNL1        0.1529
      5 C           5.3029   -0.4367   32.0011 C.ar    1  UNL1        0.0882
      6 C           5.5227   -1.7021   31.2263 C.ar    1  UNL1        0.0181
      7 N           3.9460    0.2021   32.0247 N.am    1  UNL1       -0.2512
      8 C           3.7262    1.4675   32.7995 C.2     1  UNL1        0.2698
      9 O           2.3692    2.1064   32.8231 O.2     1  UNL1       -0.2704
     10 C           4.8633    2.0941   33.5508 C.3     1  UNL1        0.2199
     11 C           5.6205    3.0589   34.4144 C.3     1  UNL1        0.0579
     12 O           6.2202    1.4552   33.5272 O.3     1  UNL1       -0.4686
     13 C           7.5267   -3.5418   28.9914 C.ar    1  UNL1        0.0645
     14 N           7.7464   -4.8071   28.2165 N.ar    1  UNL1       -0.2183
     15 C           7.5390   -6.1374   28.8781 C.ar    1  UNL1        0.2145
     16 N           7.7588   -7.4027   28.1032 N.pl3   1  UNL1       -0.3274
     17 N           7.1118   -6.2021   30.3145 N.ar    1  UNL1       -0.1995
     18 C           6.8920   -4.9366   31.0894 C.ar    1  UNL1        0.1293
     19 N           6.4648   -5.0014   32.5258 N.pl3   1  UNL1       -0.3425
     20 C           7.0994   -3.6065   30.4278 C.ar    1  UNL1        0.0449
     21 H           8.0392   -7.3602   27.1604 H       1  UNL1        0.1452
     22 H           7.6226   -8.2758   28.5374 H       1  UNL1        0.1452
     23 H           6.3286   -5.8744   32.9600 H       1  UNL1        0.1437
     24 H           6.3205   -4.1709   33.0343 H       1  UNL1        0.1437
     25 C           9.1029   -1.5993   28.2896 C.3     1  UNL1        0.0067
     26 C           7.7341   -2.2115   28.3299 C.3     1  UNL1        0.0460
     27 C           3.7694    3.0681   33.8743 C.ar    1  UNL1        0.0264
     28 C           3.4083    4.1436   32.8930 C.ar    1  UNL1        0.0293
     29 C           2.3143    5.1175   33.2165 C.ar    1  UNL1        0.1422
     30 F           1.9534    6.1931   32.2351 F       1  UNL1       -0.2041
     31 C           1.5814    5.0160   34.5212 C.ar    1  UNL1        0.0592
     32 C           1.9425    3.9405   35.5025 C.ar    1  UNL1        0.1422
     33 F           1.2095    3.8389   36.8073 F       1  UNL1       -0.2041
     34 C           3.0364    2.9665   35.1791 C.ar    1  UNL1        0.0293
     35 C           2.8089   -0.4244   31.2734 C.3     1  UNL1        0.1196
     36 C           2.5106    0.0066   29.8680 C.3     1  UNL1        0.1113
     37 N           1.3211   -0.5557   29.1475 N.am    1  UNL1       -0.3026
     38 C          -0.0377    0.0420   29.3630 C.2     1  UNL1        0.2230
     39 C          -1.2272   -0.5203   28.6426 C.3     1  UNL1        0.0946
     40 O          -0.2070    1.2020   30.2989 O.2     1  UNL1       -0.2751
     41 H           1.4322   -1.3170   28.5333 H       1  UNL1        0.1495
@<TRIPOS>BOND
     1    25    26    1
     2    26    13    1
     3    13    14   ar
     4    14    15   ar
     5    15    16    1
     6    15    17   ar
     7    17    18   ar
     8    18    19    1
     9    18    20   ar
    10    20     1    1
    11     1     2   ar
    12     2     3   ar
    13     3     4   ar
    14     4     5   ar
    15     5     6   ar
    16     5     7    1
    17     7    35    1
    18    35    36    1
    19    36    37    1
    20    37    38   am
    21    38    39    1
    22    38    40    2
    23     7     8   am
    24     8     9    2
    25     8    10    1
    26    10    11    1
    27    10    27    1
    28    27    28   ar
    29    28    29   ar
    30    29    30    1
    31    29    31   ar
    32    31    32   ar
    33    32    33    1
    34    32    34   ar
    35    10    12    1
    36    20    13   ar
    37     6     1   ar
    38    34    27   ar
    39    12     4    1
    40    16    21    1
    41    16    22    1
    42    19    23    1
    43    19    24    1
    44    37    41    1
