@<TRIPOS>MOLECULE
*****
 34 36 0 0 0
SMALL
GASTEIGER

@<TRIPOS>ATOM
      1 C           3.6180   -0.9069   21.6045 C.ar    1  UNL1       -0.0185
      2 C           2.8736    0.0691   22.4665 C.ar    1  UNL1       -0.0041
      3 C           1.7469    0.8731   21.8883 C.ar    1  UNL1        0.0057
      4 C           1.3647    0.7010   20.4480 C.ar    1  UNL1        0.0696
      5 C           2.1092   -0.2751   19.5860 C.ar    1  UNL1        0.0095
      6 C           3.2358   -1.0791   20.1642 C.ar    1  UNL1        0.0677
      7 C           8.1247   -4.1228   23.9173 C.2     1  UNL1        0.2665
      8 O           9.5359   -3.6278   23.8014 O.2     1  UNL1       -0.2683
      9 N           6.9980   -3.3188   23.3391 N.am    1  UNL1       -0.2748
     10 C           7.2825   -2.0198   22.6450 C.3     1  UNL1        0.0941
     11 C           6.1559   -1.2159   22.0668 C.3     1  UNL1        0.0259
     12 C           4.7447   -1.7109   22.1827 C.3     1  UNL1        0.0257
     13 C           4.4601   -3.0099   22.8768 C.3     1  UNL1        0.0259
     14 C           5.5868   -3.8138   23.4549 C.3     1  UNL1        0.0941
     15 C           6.8596   -4.4637   26.9061 C.3     1  UNL1        0.1322
     16 N           7.2586   -5.5784   25.9851 N.ar    1  UNL1       -0.3034
     17 C           7.1461   -7.0455   26.2763 C.ar    1  UNL1        0.1787
     18 N           7.6582   -7.7956   25.0824 N.ar    1  UNL1       -0.2222
     19 C           8.0870   -6.7920   24.0535 C.ar    1  UNL1        0.1224
     20 C           7.8401   -5.4217   24.6113 C.ar    1  UNL1        0.1347
     21 C           0.2381    1.5049   19.8698 C.2     1  UNL1        0.3078
     22 O           0.1267    1.6796   18.3842 O.2     1  UNL1       -0.2516
     23 N          -0.7771    2.1342   20.7772 N.am    1  UNL1       -0.1708
     24 H          -0.7039    2.0195   21.7522 H       1  UNL1        0.2545
     25 C          -1.9038    2.9382   20.1989 C.2     1  UNL1        0.3751
     26 N          -1.6341    3.9291   19.1056 N.pl3   1  UNL1       -0.1313
     27 N          -3.3000    2.7512   20.7140 N.pl3   1  UNL1       -0.2906
     28 H          -0.7176    4.0518   18.7676 H       1  UNL1        0.3060
     29 H          -3.4770    2.1008   21.4316 H       1  UNL1        0.2545
     30 H          -4.0395    3.2788   20.3345 H       1  UNL1        0.2545
     31 C           3.9803   -2.0552   19.3022 C.3     1  UNL1        0.4183
     32 F           4.7247   -3.0313   18.4403 F       1  UNL1       -0.1659
     33 F           3.0096   -3.1329   19.6843 F       1  UNL1       -0.1659
     34 F           4.9510   -0.9774   18.9201 F       1  UNL1       -0.1659
@<TRIPOS>BOND
     1    15    16    1
     2    16    17   ar
     3    17    18   ar
     4    18    19   ar
     5    19    20   ar
     6    20     7    1
     7     7     8    2
     8     7     9   am
     9     9    10    1
    10    10    11    1
    11    11    12    1
    12    12     1    1
    13     1     2   ar
    14     2     3   ar
    15     3     4   ar
    16     4    21    1
    17    21    22    2
    18    21    23   am
    19    23    25    1
    20    25    26    2
    21    25    27    1
    22     4     5   ar
    23     5     6   ar
    24     6    31    1
    25    31    32    1
    26    31    33    1
    27    31    34    1
    28    12    13    1
    29    13    14    1
    30    20    16   ar
    31    14     9    1
    32     6     1   ar
    33    23    24    1
    34    26    28    1
    35    27    29    1
    36    27    30    1
@<TRIPOS>MOLECULE
*****
 34 36 0 0 0
SMALL
GASTEIGER

@<TRIPOS>ATOM
      1 C           1.1371    1.4299   27.8809 C.ar    1  UNL1       -0.0185
      2 C           2.6124    1.5982   27.6686 C.ar    1  UNL1       -0.0041
      3 C           3.5843    0.8287   28.5134 C.ar    1  UNL1        0.0057
      4 C           3.0807   -0.1089   29.5704 C.ar    1  UNL1        0.0696
      5 C           1.6053   -0.2771   29.7826 C.ar    1  UNL1        0.0095
      6 C           0.6335    0.4923   28.9379 C.ar    1  UNL1        0.0677
      7 C          -2.7502    4.5077   24.5020 C.2     1  UNL1        0.2665
      8 O          -3.2549    5.8418   24.9661 O.2     1  UNL1       -0.2683
      9 N          -1.7784    3.7382   25.3468 N.am    1  UNL1       -0.2748
     10 C          -1.3113    4.3029   26.6555 C.3     1  UNL1        0.0941
     11 C          -0.3395    3.5335   27.5002 C.3     1  UNL1        0.0259
     12 C           0.1652    2.1994   27.0361 C.3     1  UNL1        0.0257
     13 C          -0.3019    1.6347   25.7274 C.3     1  UNL1        0.0259
     14 C          -1.2737    2.4041   24.8827 C.3     1  UNL1        0.0941
     15 C          -1.1516    4.6726   21.6618 C.3     1  UNL1        0.1322
     16 N          -2.4825    4.0187   21.8877 N.ar    1  UNL1       -0.3034
     17 C          -3.3123    3.3259   20.8478 C.ar    1  UNL1        0.1787
     18 N          -4.5600    2.8219   21.5107 N.ar    1  UNL1       -0.2222
     19 C          -4.5013    3.2033   22.9602 C.ar    1  UNL1        0.1224
     20 C          -3.2173    3.9429   23.1933 C.ar    1  UNL1        0.1347
     21 C           4.0525   -0.8783   30.4151 C.2     1  UNL1        0.3078
     22 O           5.3905   -1.2634   29.8570 O.2     1  UNL1       -0.2516
     23 N           3.6863   -1.2626   31.8180 N.am    1  UNL1       -0.1708
     24 H           2.8081   -1.0099   32.1843 H       1  UNL1        0.2545
     25 C           4.6581   -2.0321   32.6628 C.2     1  UNL1        0.3751
     26 N           4.2020   -3.2507   33.4091 N.pl3   1  UNL1       -0.1313
     27 N           6.0858   -1.5828   32.7614 N.pl3   1  UNL1       -0.2906
     28 H           3.2650   -3.5456   33.3444 H       1  UNL1        0.3060
     29 H           6.3851   -0.7830   32.2716 H       1  UNL1        0.2545
     30 H           6.7236   -2.0879   33.3158 H       1  UNL1        0.2545
     31 C          -0.8419    0.3241   29.1502 C.3     1  UNL1        0.4183
     32 F          -2.3172    0.1559   29.3624 F       1  UNL1       -0.1659
     33 F          -0.8830   -0.6984   28.0535 F       1  UNL1       -0.1659
     34 F          -0.8007    1.3466   30.2468 F       1  UNL1       -0.1659
@<TRIPOS>BOND
     1    15    16    1
     2    16    17   ar
     3    17    18   ar
     4    18    19   ar
     5    19    20   ar
     6    20     7    1
     7     7     8    2
     8     7     9   am
     9     9    10    1
    10    10    11    1
    11    11    12    1
    12    12     1    1
    13     1     2   ar
    14     2     3   ar
    15     3     4   ar
    16     4    21    1
    17    21    22    2
    18    21    23   am
    19    23    25    1
    20    25    26    2
    21    25    27    1
    22     4     5   ar
    23     5     6   ar
    24     6    31    1
    25    31    32    1
    26    31    33    1
    27    31    34    1
    28    12    13    1
    29    13    14    1
    30    20    16   ar
    31    14     9    1
    32     6     1   ar
    33    23    24    1
    34    26    28    1
    35    27    29    1
    36    27    30    1
@<TRIPOS>MOLECULE
*****
 34 36 0 0 0
SMALL
GASTEIGER

@<TRIPOS>ATOM
      1 C           2.9206   -0.1807   22.0838 C.ar    1  UNL1       -0.0185
      2 C           3.1252   -0.3959   23.5540 C.ar    1  UNL1       -0.0041
      3 C           4.0007   -1.5157   24.0334 C.ar    1  UNL1        0.0057
      4 C           4.6716   -2.4201   23.0424 C.ar    1  UNL1        0.0696
      5 C           4.4670   -2.2047   21.5721 C.ar    1  UNL1        0.0095
      6 C           3.5915   -1.0850   21.0928 C.ar    1  UNL1        0.0677
      7 C          -0.5813    4.2982   20.1663 C.2     1  UNL1        0.2665
      8 O          -0.0128    5.6764   20.0004 O.2     1  UNL1       -0.2683
      9 N           0.2942    3.1785   20.6457 N.am    1  UNL1       -0.2748
     10 C           1.7381    3.4369   20.9591 C.3     1  UNL1        0.0941
     11 C           2.6136    2.3172   21.4385 C.3     1  UNL1        0.0259
     12 C           2.0451    0.9391   21.6044 C.3     1  UNL1        0.0257
     13 C           0.6012    0.6806   21.2910 C.3     1  UNL1        0.0259
     14 C          -0.2742    1.8004   20.8116 C.3     1  UNL1        0.0941
     15 C          -2.9516    3.7658   22.3452 C.3     1  UNL1        0.1322
     16 N          -3.1147    3.7951   20.8544 N.ar    1  UNL1       -0.3034
     17 C          -4.3960    3.5847   20.1034 C.ar    1  UNL1        0.1787
     18 N          -4.0984    3.6995   18.6377 N.ar    1  UNL1       -0.2222
     19 C          -2.6331    3.9807   18.4829 C.ar    1  UNL1        0.1224
     20 C          -2.0252    4.0398   19.8529 C.ar    1  UNL1        0.1347
     21 C           5.5471   -3.5398   23.5217 C.2     1  UNL1        0.3078
     22 O           6.0647   -4.5566   22.5480 O.2     1  UNL1       -0.2516
     23 N           5.9050   -3.6426   24.9748 N.am    1  UNL1       -0.1708
     24 H           5.5653   -2.9752   25.6138 H       1  UNL1        0.2545
     25 C           6.7805   -4.7623   25.4541 C.2     1  UNL1        0.3751
     26 N           6.3751   -5.5721   26.6500 N.pl3   1  UNL1       -0.1313
     27 N           8.0613   -5.0723   24.7377 N.pl3   1  UNL1       -0.2906
     28 H           5.5344   -5.3686   27.1202 H       1  UNL1        0.3060
     29 H           8.3274   -4.5408   23.9528 H       1  UNL1        0.2545
     30 H           8.6360   -5.8072   25.0523 H       1  UNL1        0.2545
     31 C           3.3868   -0.8697   19.6225 C.3     1  UNL1        0.4183
     32 F           3.1822   -0.6543   18.1522 F       1  UNL1       -0.1659
     33 F           4.5731    0.0478   19.5918 F       1  UNL1       -0.1659
     34 F           2.2006   -1.7872   19.6531 F       1  UNL1       -0.1659
@<TRIPOS>BOND
     1    15    16    1
     2    16    17   ar
     3    17    18   ar
     4    18    19   ar
     5    19    20   ar
     6    20     7    1
     7     7     8    2
     8     7     9   am
     9     9    10    1
    10    10    11    1
    11    11    12    1
    12    12     1    1
    13     1     2   ar
    14     2     3   ar
    15     3     4   ar
    16     4    21    1
    17    21    22    2
    18    21    23   am
    19    23    25    1
    20    25    26    2
    21    25    27    1
    22     4     5   ar
    23     5     6   ar
    24     6    31    1
    25    31    32    1
    26    31    33    1
    27    31    34    1
    28    12    13    1
    29    13    14    1
    30    20    16   ar
    31    14     9    1
    32     6     1   ar
    33    23    24    1
    34    26    28    1
    35    27    29    1
    36    27    30    1
@<TRIPOS>MOLECULE
*****
 34 36 0 0 0
SMALL
GASTEIGER

@<TRIPOS>ATOM
      1 C           6.4752   -3.2860   24.7837 C.ar    1  UNL1       -0.0185
      2 C           5.8465   -2.5240   25.9124 C.ar    1  UNL1       -0.0041
      3 C           6.2670   -2.7953   27.3266 C.ar    1  UNL1        0.0057
      4 C           7.3161   -3.8287   27.6119 C.ar    1  UNL1        0.0696
      5 C           7.9448   -4.5908   26.4831 C.ar    1  UNL1        0.0095
      6 C           7.5243   -4.3194   25.0690 C.ar    1  UNL1        0.0677
      7 C           4.7934   -2.2007   19.1274 C.2     1  UNL1        0.2665
      8 O           3.7131   -3.0268   18.4945 O.2     1  UNL1       -0.2683
      9 N           5.2138   -2.4720   20.5415 N.am    1  UNL1       -0.2748
     10 C           4.5540   -3.5694   21.3227 C.3     1  UNL1        0.0941
     11 C           4.9744   -3.8407   22.7367 C.3     1  UNL1        0.0259
     12 C           6.0548   -3.0146   23.3696 C.3     1  UNL1        0.0257
     13 C           6.7146   -1.9173   22.5884 C.3     1  UNL1        0.0259
     14 C           6.2942   -1.6460   21.1744 C.3     1  UNL1        0.0941
     15 C           3.4114    0.6184   18.2370 C.3     1  UNL1        0.1322
     16 N           4.8180    0.1925   17.9370 N.ar    1  UNL1       -0.3034
     17 C           5.8364    0.9876   17.1749 C.ar    1  UNL1        0.1787
     18 N           7.1010    0.1832   17.1132 N.ar    1  UNL1       -0.2222
     19 C           6.8642   -1.1090   17.8371 C.ar    1  UNL1        0.1224
     20 C           5.4532   -1.1033   18.3462 C.ar    1  UNL1        0.1347
     21 C           7.7366   -4.1001   29.0259 C.2     1  UNL1        0.3078
     22 O           9.1480   -3.8271   29.4542 O.2     1  UNL1       -0.2516
     23 N           6.7456   -4.6445   30.0116 N.am    1  UNL1       -0.1708
     24 H           5.8193   -4.8237   29.7305 H       1  UNL1        0.2545
     25 C           7.1661   -4.9159   31.4257 C.2     1  UNL1        0.3751
     26 N           6.6127   -6.1022   32.1581 N.pl3   1  UNL1       -0.1313
     27 N           8.1398   -4.0009   32.1074 N.pl3   1  UNL1       -0.2906
     28 H           5.9736   -6.7027   31.7107 H       1  UNL1        0.3060
     29 H           8.5030   -3.2223   31.6267 H       1  UNL1        0.2545
     30 H           8.4157   -4.1791   33.0355 H       1  UNL1        0.2545
     31 C           8.1530   -5.0814   23.9402 C.3     1  UNL1        0.4183
     32 F           8.7817   -5.8434   22.8115 F       1  UNL1       -0.1659
     33 F           9.0892   -3.9368   23.6890 F       1  UNL1       -0.1659
     34 F           7.2168   -6.2261   24.1915 F       1  UNL1       -0.1659
@<TRIPOS>BOND
     1    15    16    1
     2    16    17   ar
     3    17    18   ar
     4    18    19   ar
     5    19    20   ar
     6    20     7    1
     7     7     8    2
     8     7     9   am
     9     9    10    1
    10    10    11    1
    11    11    12    1
    12    12     1    1
    13     1     2   ar
    14     2     3   ar
    15     3     4   ar
    16     4    21    1
    17    21    22    2
    18    21    23   am
    19    23    25    1
    20    25    26    2
    21    25    27    1
    22     4     5   ar
    23     5     6   ar
    24     6    31    1
    25    31    32    1
    26    31    33    1
    27    31    34    1
    28    12    13    1
    29    13    14    1
    30    20    16   ar
    31    14     9    1
    32     6     1   ar
    33    23    24    1
    34    26    28    1
    35    27    29    1
    36    27    30    1
@<TRIPOS>MOLECULE
*****
 34 36 0 0 0
SMALL
GASTEIGER

@<TRIPOS>ATOM
      1 C           0.1613    1.7504   20.3171 C.ar    1  UNL1       -0.0185
      2 C           0.3024    0.3146   20.7278 C.ar    1  UNL1       -0.0041
      3 C           1.3155   -0.5623   20.0534 C.ar    1  UNL1        0.0057
      4 C           2.1874   -0.0035   18.9683 C.ar    1  UNL1        0.0696
      5 C           2.0463    1.4323   18.5576 C.ar    1  UNL1        0.0095
      6 C           1.0333    2.3092   19.2319 C.ar    1  UNL1        0.0677
      7 C          -3.8907    5.2581   23.0146 C.2     1  UNL1        0.2665
      8 O          -3.5727    5.8919   24.3364 O.2     1  UNL1       -0.2683
      9 N          -2.8777    4.3812   22.3402 N.am    1  UNL1       -0.2748
     10 C          -1.5467    4.1380   22.9876 C.3     1  UNL1        0.0941
     11 C          -0.5337    3.2611   22.3133 C.3     1  UNL1        0.0259
     12 C          -0.8517    2.6273   20.9914 C.3     1  UNL1        0.0257
     13 C          -2.1827    2.8705   20.3440 C.3     1  UNL1        0.0259
     14 C          -3.1957    3.7474   21.0184 C.3     1  UNL1        0.0941
     15 C          -4.5036    7.4096   20.6387 C.3     1  UNL1        0.1322
     16 N          -5.5035    6.4902   21.2751 N.ar    1  UNL1       -0.3034
     17 C          -6.9606    6.3983   20.9311 C.ar    1  UNL1        0.1787
     18 N          -7.5794    5.3526   21.8106 N.ar    1  UNL1       -0.2222
     19 C          -6.5048    4.7982   22.6982 C.ar    1  UNL1        0.1224
     20 C          -5.2217    5.5013   22.3672 C.ar    1  UNL1        0.1347
     21 C           3.2005   -0.8804   18.2939 C.2     1  UNL1        0.3078
     22 O           3.5626   -0.6408   16.8581 O.2     1  UNL1       -0.2516
     23 N           3.8514   -1.9968   19.0553 N.am    1  UNL1       -0.1708
     24 H           3.6137   -2.1540   19.9977 H       1  UNL1        0.2545
     25 C           4.8645   -2.8738   18.3809 C.2     1  UNL1        0.3751
     26 N           6.0392   -2.2596   17.6790 N.pl3   1  UNL1       -0.1313
     27 N           4.7027   -4.3647   18.4085 N.pl3   1  UNL1       -0.2906
     28 H           6.1454   -1.2811   17.6609 H       1  UNL1        0.3060
     29 H           3.9317   -4.7678   18.8693 H       1  UNL1        0.2545
     30 H           5.3676   -4.9403   17.9659 H       1  UNL1        0.2545
     31 C           0.8921    3.7450   18.8212 C.3     1  UNL1        0.4183
     32 F           0.7510    5.1808   18.4106 F       1  UNL1       -0.1659
     33 F           1.8586    4.1473   19.8954 F       1  UNL1       -0.1659
     34 F          -0.0744    3.3428   17.7470 F       1  UNL1       -0.1659
@<TRIPOS>BOND
     1    15    16    1
     2    16    17   ar
     3    17    18   ar
     4    18    19   ar
     5    19    20   ar
     6    20     7    1
     7     7     8    2
     8     7     9   am
     9     9    10    1
    10    10    11    1
    11    11    12    1
    12    12     1    1
    13     1     2   ar
    14     2     3   ar
    15     3     4   ar
    16     4    21    1
    17    21    22    2
    18    21    23   am
    19    23    25    1
    20    25    26    2
    21    25    27    1
    22     4     5   ar
    23     5     6   ar
    24     6    31    1
    25    31    32    1
    26    31    33    1
    27    31    34    1
    28    12    13    1
    29    13    14    1
    30    20    16   ar
    31    14     9    1
    32     6     1   ar
    33    23    24    1
    34    26    28    1
    35    27    29    1
    36    27    30    1
@<TRIPOS>MOLECULE
*****
 34 36 0 0 0
SMALL
GASTEIGER

@<TRIPOS>ATOM
      1 C           6.1773   -2.9762   24.9005 C.ar    1  UNL1       -0.0185
      2 C           7.0339   -4.1529   25.2631 C.ar    1  UNL1       -0.0041
      3 C           7.4050   -4.3973   26.6958 C.ar    1  UNL1        0.0057
      4 C           6.9196   -3.4649   27.7659 C.ar    1  UNL1        0.0696
      5 C           6.0630   -2.2881   27.4032 C.ar    1  UNL1        0.0095
      6 C           5.6919   -2.0437   25.9705 C.ar    1  UNL1        0.0677
      7 C           4.6926   -1.9987   19.1698 C.2     1  UNL1        0.2665
      8 O           3.6005   -2.8038   18.5302 O.2     1  UNL1       -0.2683
      9 N           5.0638   -2.2431   20.6025 N.am    1  UNL1       -0.2748
     10 C           4.3428   -3.2925   21.3956 C.3     1  UNL1        0.0941
     11 C           4.7140   -3.5369   22.8282 C.3     1  UNL1        0.0259
     12 C           5.8061   -2.7318   23.4678 C.3     1  UNL1        0.0257
     13 C           6.5271   -1.6823   22.6748 C.3     1  UNL1        0.0259
     14 C           6.1559   -1.4380   21.2422 C.3     1  UNL1        0.0941
     15 C           3.5112    0.9282   18.3411 C.3     1  UNL1        0.1322
     16 N           4.8705    0.3961   17.9959 N.ar    1  UNL1       -0.3034
     17 C           5.9254    1.1159   17.2091 C.ar    1  UNL1        0.1787
     18 N           7.1204    0.2154   17.1038 N.ar    1  UNL1       -0.2222
     19 C           6.8040   -1.0610   17.8255 C.ar    1  UNL1        0.1224
     20 C           5.4135   -0.9493   18.3768 C.ar    1  UNL1        0.1347
     21 C           7.2907   -3.7092   29.1985 C.2     1  UNL1        0.3078
     22 O           7.9642   -2.6300   29.9934 O.2     1  UNL1       -0.2516
     23 N           6.9884   -5.0327   29.8363 N.am    1  UNL1       -0.1708
     24 H           6.5464   -5.7410   29.3146 H       1  UNL1        0.2545
     25 C           7.3595   -5.2771   31.2690 C.2     1  UNL1        0.3751
     26 N           6.4562   -6.0884   32.1499 N.pl3   1  UNL1       -0.1313
     27 N           8.6339   -4.7103   31.8208 N.pl3   1  UNL1       -0.2906
     28 H           5.6197   -6.4604   31.7877 H       1  UNL1        0.3060
     29 H           9.2268   -4.1778   31.2427 H       1  UNL1        0.2545
     30 H           8.8775   -4.8707   32.7612 H       1  UNL1        0.2545
     31 C           4.8353   -0.8669   25.6079 C.3     1  UNL1        0.4183
     32 F           3.9788    0.3098   25.2452 F       1  UNL1       -0.1659
     33 F           6.0608   -0.0093   25.4964 F       1  UNL1       -0.1659
     34 F           3.6098   -1.7246   25.7193 F       1  UNL1       -0.1659
@<TRIPOS>BOND
     1    15    16    1
     2    16    17   ar
     3    17    18   ar
     4    18    19   ar
     5    19    20   ar
     6    20     7    1
     7     7     8    2
     8     7     9   am
     9     9    10    1
    10    10    11    1
    11    11    12    1
    12    12     1    1
    13     1     2   ar
    14     2     3   ar
    15     3     4   ar
    16     4    21    1
    17    21    22    2
    18    21    23   am
    19    23    25    1
    20    25    26    2
    21    25    27    1
    22     4     5   ar
    23     5     6   ar
    24     6    31    1
    25    31    32    1
    26    31    33    1
    27    31    34    1
    28    12    13    1
    29    13    14    1
    30    20    16   ar
    31    14     9    1
    32     6     1   ar
    33    23    24    1
    34    26    28    1
    35    27    29    1
    36    27    30    1
@<TRIPOS>MOLECULE
*****
 34 36 0 0 0
SMALL
GASTEIGER

@<TRIPOS>ATOM
      1 C          -1.3911    2.6333   26.7069 C.ar    1  UNL1       -0.0185
      2 C          -2.7329    3.1447   27.1402 C.ar    1  UNL1       -0.0041
      3 C          -3.6940    3.6847   26.1230 C.ar    1  UNL1        0.0057
      4 C          -3.3133    3.7132   24.6724 C.ar    1  UNL1        0.0696
      5 C          -1.9713    3.2017   24.2391 C.ar    1  UNL1        0.0095
      6 C          -1.0103    2.6618   25.2563 C.ar    1  UNL1        0.0677
      7 C           2.4534    0.4734   30.7758 C.2     1  UNL1        0.2665
      8 O           2.4456   -0.9882   31.1132 O.2     1  UNL1       -0.2683
      9 N           1.4922    1.0133   29.7585 N.am    1  UNL1       -0.2748
     10 C           0.5234    0.0918   29.0788 C.3     1  UNL1        0.0941
     11 C          -0.4377    0.6318   28.0616 C.3     1  UNL1        0.0259
     12 C          -0.4299    2.0933   27.7241 C.3     1  UNL1        0.0257
     13 C           0.5389    3.0149   28.4039 C.3     1  UNL1        0.0259
     14 C           1.5000    2.4749   29.4211 C.3     1  UNL1        0.0941
     15 C           5.3494    1.4157   29.6034 C.3     1  UNL1        0.1322
     16 N           4.7533    1.8281   30.9166 N.ar    1  UNL1       -0.3034
     17 C           5.3838    2.7460   31.9215 C.ar    1  UNL1        0.1787
     18 N           4.4423    2.8801   33.0816 N.ar    1  UNL1       -0.2222
     19 C           3.2299    2.0451   32.7935 C.ar    1  UNL1        0.1224
     20 C           3.4222    1.3949   31.4555 C.ar    1  UNL1        0.1347
     21 C          -4.2743    4.2531   23.6552 C.2     1  UNL1        0.3078
     22 O          -3.8964    5.4430   22.8237 O.2     1  UNL1       -0.2516
     23 N          -5.6133    3.6031   23.4694 N.am    1  UNL1       -0.1708
     24 H          -5.8613    2.8221   24.0151 H       1  UNL1        0.2545
     25 C          -6.5744    4.1430   22.4521 C.2     1  UNL1        0.3751
     26 N          -7.9878    4.4540   22.8466 N.pl3   1  UNL1       -0.1313
     27 N          -6.1222    4.3719   21.0404 N.pl3   1  UNL1       -0.2906
     28 H          -8.2846    4.3038   23.7732 H       1  UNL1        0.3060
     29 H          -5.1945    4.1678   20.7814 H       1  UNL1        0.2545
     30 H          -6.7530    4.7263   20.3727 H       1  UNL1        0.2545
     31 C           0.3317    2.1503   24.8230 C.3     1  UNL1        0.4183
     32 F           1.6735    1.6389   24.3897 F       1  UNL1       -0.1659
     33 F           0.8851    3.5426   24.8936 F       1  UNL1       -0.1659
     34 F          -0.2218    0.7579   24.7523 F       1  UNL1       -0.1659
@<TRIPOS>BOND
     1    15    16    1
     2    16    17   ar
     3    17    18   ar
     4    18    19   ar
     5    19    20   ar
     6    20     7    1
     7     7     8    2
     8     7     9   am
     9     9    10    1
    10    10    11    1
    11    11    12    1
    12    12     1    1
    13     1     2   ar
    14     2     3   ar
    15     3     4   ar
    16     4    21    1
    17    21    22    2
    18    21    23   am
    19    23    25    1
    20    25    26    2
    21    25    27    1
    22     4     5   ar
    23     5     6   ar
    24     6    31    1
    25    31    32    1
    26    31    33    1
    27    31    34    1
    28    12    13    1
    29    13    14    1
    30    20    16   ar
    31    14     9    1
    32     6     1   ar
    33    23    24    1
    34    26    28    1
    35    27    29    1
    36    27    30    1
@<TRIPOS>MOLECULE
*****
 34 36 0 0 0
SMALL
GASTEIGER

@<TRIPOS>ATOM
      1 C           1.2615    2.0016   28.0044 C.ar    1  UNL1       -0.0185
      2 C           1.9473    2.9645   27.0812 C.ar    1  UNL1       -0.0041
      3 C           1.5463    3.0343   25.6375 C.ar    1  UNL1        0.0057
      4 C           0.4594    2.1411   25.1170 C.ar    1  UNL1        0.0696
      5 C          -0.2264    1.1782   26.0403 C.ar    1  UNL1        0.0095
      6 C           0.1746    1.1084   27.4839 C.ar    1  UNL1        0.0677
      7 C           2.8654    1.7226   33.7794 C.2     1  UNL1        0.2665
      8 O           1.9681    2.2964   34.8356 O.2     1  UNL1       -0.2683
      9 N           2.4644    1.7924   32.3356 N.am    1  UNL1       -0.2748
     10 C           1.1661    2.4359   31.9481 C.3     1  UNL1        0.0941
     11 C           0.7651    2.5057   30.5044 C.3     1  UNL1        0.0259
     12 C           1.6625    1.9318   29.4482 C.3     1  UNL1        0.0257
     13 C           2.9608    1.2883   29.8357 C.3     1  UNL1        0.0259
     14 C           3.3617    1.2185   31.2794 C.3     1  UNL1        0.0941
     15 C           5.7552    3.2210   34.0110 C.3     1  UNL1        0.1322
     16 N           5.4920    1.7677   34.2733 N.ar    1  UNL1       -0.3034
     17 C           6.5109    0.7481   34.6883 C.ar    1  UNL1        0.1787
     18 N           5.8123   -0.5708   34.8382 N.ar    1  UNL1       -0.2222
     19 C           4.3616   -0.3663   34.5160 C.ar    1  UNL1        0.1224
     20 C           4.1637    1.0790   34.1669 C.ar    1  UNL1        0.1347
     21 C           0.0584    2.2109   23.6733 C.2     1  UNL1        0.3078
     22 O          -0.9474    3.2283   23.2226 O.2     1  UNL1       -0.2516
     23 N           0.6632    1.2631   22.6803 N.am    1  UNL1       -0.1708
     24 H           1.3233    0.5954   22.9762 H       1  UNL1        0.2545
     25 C           0.2622    1.3328   21.2366 C.2     1  UNL1        0.3751
     26 N          -0.1148    0.0807   20.5016 N.pl3   1  UNL1       -0.1313
     27 N           0.2381    2.6546   20.5278 N.pl3   1  UNL1       -0.2906
     28 H          -0.0989   -0.7868   20.9668 H       1  UNL1        0.3060
     29 H           0.4855    3.4764   21.0102 H       1  UNL1        0.2545
     30 H          -0.0251    2.7003   19.5803 H       1  UNL1        0.2545
     31 C          -0.5113    0.1454   28.4072 C.3     1  UNL1        0.4183
     32 F          -1.1970   -0.8175   29.3305 F       1  UNL1       -0.1659
     33 F           0.7162   -0.7165   28.4200 F       1  UNL1       -0.1659
     34 F          -1.7388    1.0074   28.3945 F       1  UNL1       -0.1659
@<TRIPOS>BOND
     1    15    16    1
     2    16    17   ar
     3    17    18   ar
     4    18    19   ar
     5    19    20   ar
     6    20     7    1
     7     7     8    2
     8     7     9   am
     9     9    10    1
    10    10    11    1
    11    11    12    1
    12    12     1    1
    13     1     2   ar
    14     2     3   ar
    15     3     4   ar
    16     4    21    1
    17    21    22    2
    18    21    23   am
    19    23    25    1
    20    25    26    2
    21    25    27    1
    22     4     5   ar
    23     5     6   ar
    24     6    31    1
    25    31    32    1
    26    31    33    1
    27    31    34    1
    28    12    13    1
    29    13    14    1
    30    20    16   ar
    31    14     9    1
    32     6     1   ar
    33    23    24    1
    34    26    28    1
    35    27    29    1
    36    27    30    1
@<TRIPOS>MOLECULE
*****
 34 36 0 0 0
SMALL
GASTEIGER

@<TRIPOS>ATOM
      1 C           3.6114   -0.9479   21.6071 C.ar    1  UNL1       -0.0185
      2 C           3.0730   -1.2570   20.2416 C.ar    1  UNL1       -0.0041
      3 C           1.9485   -0.4409   19.6763 C.ar    1  UNL1        0.0057
      4 C           1.3624    0.6843   20.4764 C.ar    1  UNL1        0.0696
      5 C           1.9009    0.9935   21.8420 C.ar    1  UNL1        0.0095
      6 C           3.0253    0.1774   22.4073 C.ar    1  UNL1        0.0677
      7 C           8.1093   -4.2122   23.8684 C.2     1  UNL1        0.2665
      8 O           9.5312   -3.8268   23.5864 O.2     1  UNL1       -0.2683
      9 N           6.9848   -3.3961   23.3030 N.am    1  UNL1       -0.2748
     10 C           7.2823   -2.1946   22.4558 C.3     1  UNL1        0.0941
     11 C           6.1578   -1.3786   21.8905 C.3     1  UNL1        0.0259
     12 C           4.7359   -1.7640   22.1724 C.3     1  UNL1        0.0257
     13 C           4.4384   -2.9655   23.0197 C.3     1  UNL1        0.0259
     14 C           5.5628   -3.7815   23.5850 C.3     1  UNL1        0.0941
     15 C           8.8959   -7.2997   23.1623 C.3     1  UNL1        0.1322
     16 N           8.1733   -6.8328   24.3911 N.ar    1  UNL1       -0.3034
     17 C           7.6855   -7.7032   25.5111 C.ar    1  UNL1        0.1787
     18 N           7.0224   -6.8220   26.5279 N.ar    1  UNL1       -0.2222
     19 C           7.1005   -5.4070   26.0362 C.ar    1  UNL1        0.1224
     20 C           7.8118   -5.4137   24.7156 C.ar    1  UNL1        0.1347
     21 C           0.2380    1.5004   19.9112 C.2     1  UNL1        0.3078
     22 O           0.1350    1.7107   18.4296 O.2     1  UNL1       -0.2516
     23 N          -0.7834    2.1062   20.8275 N.am    1  UNL1       -0.1708
     24 H          -0.7157    1.9682   21.7999 H       1  UNL1        0.2545
     25 C          -1.9079    2.9224   20.2622 C.2     1  UNL1        0.3751
     26 N          -3.3136    2.6881   20.7302 N.pl3   1  UNL1       -0.1313
     27 N          -1.6266    3.9728   19.2291 N.pl3   1  UNL1       -0.2906
     28 H          -3.4982    1.9986   21.4083 H       1  UNL1        0.3060
     29 H          -0.7040    4.1266   18.9220 H       1  UNL1        0.2545
     30 H          -2.3647    4.5085   18.8581 H       1  UNL1        0.2545
     31 C           3.5637    0.4865   23.7728 C.3     1  UNL1        0.4183
     32 F           4.1021    0.7956   25.1383 F       1  UNL1       -0.1659
     33 F           2.5760   -0.4664   24.3779 F       1  UNL1       -0.1659
     34 F           4.5514    1.4395   23.1677 F       1  UNL1       -0.1659
@<TRIPOS>BOND
     1    15    16    1
     2    16    17   ar
     3    17    18   ar
     4    18    19   ar
     5    19    20   ar
     6    20     7    1
     7     7     8    2
     8     7     9   am
     9     9    10    1
    10    10    11    1
    11    11    12    1
    12    12     1    1
    13     1     2   ar
    14     2     3   ar
    15     3     4   ar
    16     4    21    1
    17    21    22    2
    18    21    23   am
    19    23    25    1
    20    25    26    2
    21    25    27    1
    22     4     5   ar
    23     5     6   ar
    24     6    31    1
    25    31    32    1
    26    31    33    1
    27    31    34    1
    28    12    13    1
    29    13    14    1
    30    20    16   ar
    31    14     9    1
    32     6     1   ar
    33    23    24    1
    34    26    28    1
    35    27    29    1
    36    27    30    1
