@<TRIPOS>MOLECULE
*****
 30 33 0 0 0
SMALL
GASTEIGER

@<TRIPOS>ATOM
      1 C           6.7264    1.1409   33.2528 C.3     1  UNL1        0.0324
      2 C           6.3018   -0.2846   33.0588 C.ar    1  UNL1       -0.0071
      3 C           7.0852   -1.1833   32.1485 C.ar    1  UNL1        0.0115
      4 C           6.6605   -2.6088   31.9545 C.ar    1  UNL1        0.0476
      5 C           5.4525   -3.1356   32.6707 C.ar    1  UNL1        0.0158
      6 C           4.6691   -2.2369   33.5810 C.ar    1  UNL1        0.0156
      7 C           5.0937   -0.8114   33.7750 C.ar    1  UNL1        0.0466
      8 N           7.4440   -3.5075   31.0442 N.pl3   1  UNL1       -0.3061
      9 C           8.9393   -3.5965   30.9661 C.3     1  UNL1        0.0923
     10 C           9.2891   -4.6189   29.9258 C.3     1  UNL1        0.0391
     11 C           8.0099   -5.1618   29.3609 C.3     1  UNL1        0.0790
     12 C           6.8696   -4.4749   30.0521 C.3     1  UNL1        0.1067
     13 N           7.8918   -6.2080   28.2924 N.3     1  UNL1       -0.2736
     14 C           8.3192   -7.6409   28.4105 C.3     1  UNL1        0.0721
     15 C           8.0171   -8.3234   27.1093 C.3     1  UNL1        0.0187
     16 C           7.4031   -7.3122   26.1871 C.3     1  UNL1        0.0174
     17 C           7.3257   -6.0048   26.9183 C.3     1  UNL1        0.0576
     18 C           6.7782   -4.7198   26.3714 C.3     1  UNL1        0.0173
     19 N           4.3103    0.0873   34.6853 N.am    1  UNL1       -0.2806
     20 C           4.7003    0.2180   36.1278 C.2     1  UNL1        0.2493
     21 O           5.8737   -0.5500   36.6601 O.2     1  UNL1       -0.2698
     22 H           3.5401    0.5914   34.3360 H       1  UNL1        0.1552
     23 C           3.9168    1.1167   37.0382 C.ar    1  UNL1        0.0520
     24 C           2.9053    0.5331   37.9796 C.ar    1  UNL1        0.0338
     25 C           2.1219    1.4317   38.8899 C.ar    1  UNL1        0.1403
     26 F           1.1104    0.8481   39.8313 F       1  UNL1       -0.2042
     27 C           2.3499    2.9139   38.8587 C.ar    1  UNL1        0.0293
     28 C           3.3614    3.4975   37.9173 C.ar    1  UNL1       -0.0018
     29 C           4.1448    2.5989   37.0070 C.ar    1  UNL1       -0.0173
     30 C           5.1563    3.1825   36.0656 C.3     1  UNL1        0.0312
@<TRIPOS>BOND
     1     1     2    1
     2     2     3   ar
     3     3     4   ar
     4     4     8    1
     5     8     9    1
     6     9    10    1
     7    10    11    1
     8    11    13    1
     9    13    14    1
    10    14    15    1
    11    15    16    1
    12    16    17    1
    13    17    18    1
    14    11    12    1
    15     4     5   ar
    16     5     6   ar
    17     6     7   ar
    18     7    19    1
    19    19    20   am
    20    20    21    2
    21    20    23    1
    22    23    24   ar
    23    24    25   ar
    24    25    26    1
    25    25    27   ar
    26    27    28   ar
    27    28    29   ar
    28    29    30    1
    29     7     2   ar
    30    29    23   ar
    31    12     8    1
    32    17    13    1
    33    19    22    1
@<TRIPOS>MOLECULE
*****
 30 33 0 0 0
SMALL
GASTEIGER

@<TRIPOS>ATOM
      1 C           1.1829    0.9637   24.8455 C.3     1  UNL1        0.0324
      2 C           0.1819    1.8345   24.1458 C.ar    1  UNL1       -0.0071
      3 C          -0.9623    2.4277   24.9132 C.ar    1  UNL1        0.0115
      4 C          -1.9633    3.2986   24.2134 C.ar    1  UNL1        0.0476
      5 C          -1.8202    3.5761   22.7463 C.ar    1  UNL1        0.0158
      6 C          -0.6760    2.9829   21.9790 C.ar    1  UNL1        0.0156
      7 C           0.3250    2.1121   22.6787 C.ar    1  UNL1        0.0466
      8 N          -3.1075    3.8919   24.9809 N.pl3   1  UNL1       -0.3061
      9 C          -3.2148    3.9823   26.4743 C.3     1  UNL1        0.0923
     10 C          -4.5189    4.6452   26.8060 C.3     1  UNL1        0.0391
     11 C          -5.2176    4.9644   25.5175 C.3     1  UNL1        0.0790
     12 C          -4.3453    4.4988   24.3896 C.3     1  UNL1        0.1067
     13 N          -6.5538    5.6320   25.3811 N.3     1  UNL1       -0.2736
     14 C          -7.0998    6.7033   26.2778 C.3     1  UNL1        0.0721
     15 C          -8.4622    7.0789   25.7748 C.3     1  UNL1        0.0187
     16 C          -8.7581    6.2397   24.5673 C.3     1  UNL1        0.0174
     17 C          -7.5787    5.3454   24.3240 C.3     1  UNL1        0.0576
     18 C          -7.4472    4.3409   23.2177 C.3     1  UNL1        0.0173
     19 N           1.4692    1.5188   21.9112 N.am    1  UNL1       -0.2806
     20 C           1.2328    0.3601   20.9885 C.2     1  UNL1        0.2493
     21 O          -0.1478   -0.2054   20.8332 O.2     1  UNL1       -0.2698
     22 H           2.3754    1.8899   22.0132 H       1  UNL1        0.1552
     23 C           2.3770   -0.2332   20.2211 C.ar    1  UNL1        0.0520
     24 C           2.4796   -0.0162   18.7404 C.ar    1  UNL1        0.0338
     25 C           3.6237   -0.6094   17.9730 C.ar    1  UNL1        0.1403
     26 F           3.7263   -0.3924   16.4923 F       1  UNL1       -0.2042
     27 C           4.6652   -1.4196   18.6862 C.ar    1  UNL1        0.0293
     28 C           4.5626   -1.6367   20.1669 C.ar    1  UNL1       -0.0018
     29 C           3.4185   -1.0435   20.9343 C.ar    1  UNL1       -0.0173
     30 C           3.3159   -1.2605   22.4150 C.3     1  UNL1        0.0312
@<TRIPOS>BOND
     1     1     2    1
     2     2     3   ar
     3     3     4   ar
     4     4     8    1
     5     8     9    1
     6     9    10    1
     7    10    11    1
     8    11    13    1
     9    13    14    1
    10    14    15    1
    11    15    16    1
    12    16    17    1
    13    17    18    1
    14    11    12    1
    15     4     5   ar
    16     5     6   ar
    17     6     7   ar
    18     7    19    1
    19    19    20   am
    20    20    21    2
    21    20    23    1
    22    23    24   ar
    23    24    25   ar
    24    25    26    1
    25    25    27   ar
    26    27    28   ar
    27    28    29   ar
    28    29    30    1
    29     7     2   ar
    30    29    23   ar
    31    12     8    1
    32    17    13    1
    33    19    22    1
@<TRIPOS>MOLECULE
*****
 30 33 0 0 0
SMALL
GASTEIGER

@<TRIPOS>ATOM
      1 C          -1.1396    3.2830   24.8221 C.3     1  UNL1        0.0324
      2 C          -1.3247    3.2548   23.3338 C.ar    1  UNL1       -0.0071
      3 C          -0.3692    2.4819   22.4737 C.ar    1  UNL1        0.0115
      4 C          -0.5542    2.4537   20.9855 C.ar    1  UNL1        0.0476
      5 C          -1.6947    3.1984   20.3572 C.ar    1  UNL1        0.0158
      6 C          -2.6501    3.9713   21.2172 C.ar    1  UNL1        0.0156
      7 C          -2.4651    3.9995   22.7055 C.ar    1  UNL1        0.0466
      8 N           0.4013    1.6808   20.1254 N.pl3   1  UNL1       -0.3061
      9 C           0.6542    1.9078   18.6645 C.3     1  UNL1        0.0923
     10 C           1.6809    0.9125   18.2115 C.3     1  UNL1        0.0391
     11 C           2.0626    0.0702   19.3926 C.3     1  UNL1        0.0790
     12 C           1.2718    0.5450   20.5755 C.3     1  UNL1        0.1067
     13 N           3.0599   -1.0502   19.3911 N.3     1  UNL1       -0.2736
     14 C           3.4032   -1.9265   20.5591 C.3     1  UNL1        0.0721
     15 C           4.4446   -2.9089   20.1112 C.3     1  UNL1        0.0187
     16 C           4.7448   -2.6396   18.6664 C.3     1  UNL1        0.0174
     17 C           3.8891   -1.4909   18.2214 C.3     1  UNL1        0.0576
     18 C           3.8664   -0.8886   16.8478 C.3     1  UNL1        0.0173
     19 N          -3.4207    4.7724   23.5656 N.am    1  UNL1       -0.2806
     20 C          -4.6661    4.1145   24.0812 C.2     1  UNL1        0.2493
     21 O          -4.9562    2.6837   23.7368 O.2     1  UNL1       -0.2698
     22 H          -3.2303    5.7115   23.7916 H       1  UNL1        0.1552
     23 C          -5.6217    4.8875   24.9412 C.ar    1  UNL1        0.0520
     24 C          -6.8680    5.4688   24.3421 C.ar    1  UNL1        0.0338
     25 C          -7.8235    6.2417   25.2021 C.ar    1  UNL1        0.1403
     26 F          -9.0698    6.8230   24.6031 F       1  UNL1       -0.2042
     27 C          -7.5327    6.4333   26.6611 C.ar    1  UNL1        0.0293
     28 C          -6.2864    5.8520   27.2601 C.ar    1  UNL1       -0.0018
     29 C          -5.3309    5.0791   26.4002 C.ar    1  UNL1       -0.0173
     30 C          -4.0846    4.4978   26.9992 C.3     1  UNL1        0.0312
@<TRIPOS>BOND
     1     1     2    1
     2     2     3   ar
     3     3     4   ar
     4     4     8    1
     5     8     9    1
     6     9    10    1
     7    10    11    1
     8    11    13    1
     9    13    14    1
    10    14    15    1
    11    15    16    1
    12    16    17    1
    13    17    18    1
    14    11    12    1
    15     4     5   ar
    16     5     6   ar
    17     6     7   ar
    18     7    19    1
    19    19    20   am
    20    20    21    2
    21    20    23    1
    22    23    24   ar
    23    24    25   ar
    24    25    26    1
    25    25    27   ar
    26    27    28   ar
    27    28    29   ar
    28    29    30    1
    29     7     2   ar
    30    29    23   ar
    31    12     8    1
    32    17    13    1
    33    19    22    1
@<TRIPOS>MOLECULE
*****
 30 33 0 0 0
SMALL
GASTEIGER

@<TRIPOS>ATOM
      1 C           4.3807    0.7560   30.8580 C.3     1  UNL1        0.0324
      2 C           4.7784   -0.5451   31.4895 C.ar    1  UNL1       -0.0071
      3 C           5.6264   -1.5202   30.7279 C.ar    1  UNL1        0.0115
      4 C           6.0241   -2.8214   31.3595 C.ar    1  UNL1        0.0476
      5 C           5.5738   -3.1474   32.7527 C.ar    1  UNL1        0.0158
      6 C           4.7259   -2.1723   33.5143 C.ar    1  UNL1        0.0156
      7 C           4.3282   -0.8712   32.8827 C.ar    1  UNL1        0.0466
      8 N           6.8721   -3.7965   30.5978 N.pl3   1  UNL1       -0.3061
      9 C           8.1993   -4.3410   31.0360 C.3     1  UNL1        0.0923
     10 C           8.6891   -5.2793   29.9733 C.3     1  UNL1        0.0391
     11 C           7.6646   -5.3149   28.8781 C.3     1  UNL1        0.0790
     12 C           6.5416   -4.3984   29.2642 C.3     1  UNL1        0.1067
     13 N           7.7484   -6.1246   27.6183 N.3     1  UNL1       -0.2736
     14 C           8.1261   -7.5732   27.5249 C.3     1  UNL1        0.0721
     15 C           8.0804   -7.9718   26.0795 C.3     1  UNL1        0.0187
     16 C           7.6744   -6.7695   25.2797 C.3     1  UNL1        0.0174
     17 C           7.4693   -5.6279   26.2308 C.3     1  UNL1        0.0576
     18 C           7.0573   -4.2342   25.8595 C.3     1  UNL1        0.0173
     19 N           3.4802    0.1040   33.6444 N.am    1  UNL1       -0.2806
     20 C           4.1277    1.1603   34.4900 C.2     1  UNL1        0.2493
     21 O           5.6231    1.2415   34.5739 O.2     1  UNL1       -0.2698
     22 H           2.4987    0.0507   33.5893 H       1  UNL1        0.1552
     23 C           3.2797    2.1354   35.2516 C.ar    1  UNL1        0.0520
     24 C           2.5657    3.2362   34.5246 C.ar    1  UNL1        0.0338
     25 C           1.7178    4.2113   35.2862 C.ar    1  UNL1        0.1403
     26 F           1.0038    5.3120   34.5591 F       1  UNL1       -0.2042
     27 C           1.5838    4.0856   36.7748 C.ar    1  UNL1        0.0293
     28 C           2.2977    2.9849   37.5019 C.ar    1  UNL1       -0.0018
     29 C           3.1456    2.0098   36.7403 C.ar    1  UNL1       -0.0173
     30 C           3.8596    0.9090   37.4674 C.3     1  UNL1        0.0312
@<TRIPOS>BOND
     1     1     2    1
     2     2     3   ar
     3     3     4   ar
     4     4     8    1
     5     8     9    1
     6     9    10    1
     7    10    11    1
     8    11    13    1
     9    13    14    1
    10    14    15    1
    11    15    16    1
    12    16    17    1
    13    17    18    1
    14    11    12    1
    15     4     5   ar
    16     5     6   ar
    17     6     7   ar
    18     7    19    1
    19    19    20   am
    20    20    21    2
    21    20    23    1
    22    23    24   ar
    23    24    25   ar
    24    25    26    1
    25    25    27   ar
    26    27    28   ar
    27    28    29   ar
    28    29    30    1
    29     7     2   ar
    30    29    23   ar
    31    12     8    1
    32    17    13    1
    33    19    22    1
@<TRIPOS>MOLECULE
*****
 30 33 0 0 0
SMALL
GASTEIGER

@<TRIPOS>ATOM
      1 C           7.3305   -5.5904   24.9881 C.3     1  UNL1        0.0324
      2 C           6.9194   -4.3724   25.7610 C.ar    1  UNL1       -0.0071
      3 C           6.8993   -4.4069   27.2604 C.ar    1  UNL1        0.0115
      4 C           6.4882   -3.1888   28.0332 C.ar    1  UNL1        0.0476
      5 C           6.0972   -1.9362   27.3066 C.ar    1  UNL1        0.0158
      6 C           6.1173   -1.9017   25.8072 C.ar    1  UNL1        0.0156
      7 C           6.5284   -3.1197   25.0344 C.ar    1  UNL1        0.0466
      8 N           6.4682   -3.2234   29.5327 N.pl3   1  UNL1       -0.3061
      9 C           6.8851   -4.3788   30.3937 C.3     1  UNL1        0.0923
     10 C           6.7023   -3.9781   31.8275 C.3     1  UNL1        0.0391
     11 C           6.1723   -2.5751   31.8528 C.3     1  UNL1        0.0790
     12 C           6.0276   -2.1087   30.4346 C.3     1  UNL1        0.1067
     13 N           5.8446   -1.7783   33.0807 N.3     1  UNL1       -0.2736
     14 C           4.5228   -1.7546   33.7895 C.3     1  UNL1        0.0721
     15 C           4.6424   -0.8271   34.9623 C.3     1  UNL1        0.0187
     16 C           6.0380   -0.2776   34.9783 C.3     1  UNL1        0.0174
     17 C           6.7810   -0.8655   33.8154 C.3     1  UNL1        0.0576
     18 C           8.2096   -0.5891   33.4511 C.3     1  UNL1        0.0173
     19 N           6.5485   -3.0852   23.5348 N.am    1  UNL1       -0.2806
     20 C           5.2720   -2.8886   22.7720 C.2     1  UNL1        0.2493
     21 O           3.9754   -2.7267   23.5086 O.2     1  UNL1       -0.2698
     22 H           7.3995   -3.1914   23.0514 H       1  UNL1        0.1552
     23 C           5.2921   -2.8540   21.2725 C.ar    1  UNL1        0.0520
     24 C           4.9795   -4.0947   20.4895 C.ar    1  UNL1        0.0338
     25 C           4.9996   -4.0601   18.9900 C.ar    1  UNL1        0.1403
     26 F           4.6870   -5.3007   18.2070 F       1  UNL1       -0.2042
     27 C           5.3322   -2.7850   18.2736 C.ar    1  UNL1        0.0293
     28 C           5.6447   -1.5443   19.0567 C.ar    1  UNL1       -0.0018
     29 C           5.6247   -1.5789   20.5561 C.ar    1  UNL1       -0.0173
     30 C           5.9372   -0.3383   21.3392 C.3     1  UNL1        0.0312
@<TRIPOS>BOND
     1     1     2    1
     2     2     3   ar
     3     3     4   ar
     4     4     8    1
     5     8     9    1
     6     9    10    1
     7    10    11    1
     8    11    13    1
     9    13    14    1
    10    14    15    1
    11    15    16    1
    12    16    17    1
    13    17    18    1
    14    11    12    1
    15     4     5   ar
    16     5     6   ar
    17     6     7   ar
    18     7    19    1
    19    19    20   am
    20    20    21    2
    21    20    23    1
    22    23    24   ar
    23    24    25   ar
    24    25    26    1
    25    25    27   ar
    26    27    28   ar
    27    28    29   ar
    28    29    30    1
    29     7     2   ar
    30    29    23   ar
    31    12     8    1
    32    17    13    1
    33    19    22    1
@<TRIPOS>MOLECULE
*****
 30 33 0 0 0
SMALL
GASTEIGER

@<TRIPOS>ATOM
      1 C           0.0051    3.0759   20.4256 C.3     1  UNL1        0.0324
      2 C          -0.1396    2.6633   21.8605 C.ar    1  UNL1       -0.0071
      3 C          -1.2168    3.2694   22.7102 C.ar    1  UNL1        0.0115
      4 C          -1.3615    2.8568   24.1451 C.ar    1  UNL1        0.0476
      5 C          -0.4290    1.8381   24.7302 C.ar    1  UNL1        0.0158
      6 C           0.6483    1.2319   23.8805 C.ar    1  UNL1        0.0156
      7 C           0.7930    1.6445   22.4456 C.ar    1  UNL1        0.0466
      8 N          -2.4389    3.4630   24.9948 N.pl3   1  UNL1       -0.3061
      9 C          -2.4226    3.5775   26.4903 C.3     1  UNL1        0.0923
     10 C          -3.6952    4.2464   26.9179 C.3     1  UNL1        0.0391
     11 C          -4.4981    4.5454   25.6866 C.3     1  UNL1        0.0790
     12 C          -3.7216    4.0612   24.4981 C.3     1  UNL1        0.1067
     13 N          -5.8416    5.2115   25.6503 N.3     1  UNL1       -0.2736
     14 C          -6.4165    6.0955   26.7171 C.3     1  UNL1        0.0721
     15 C          -7.7762    6.5409   26.2669 C.3     1  UNL1        0.0187
     16 C          -8.0416    5.9323   24.9219 C.3     1  UNL1        0.0174
     17 C          -6.8460    5.1106   24.5408 C.3     1  UNL1        0.0576
     18 C          -6.6832    4.3259   23.2728 C.3     1  UNL1        0.0173
     19 N           1.8703    1.0383   21.5959 N.am    1  UNL1       -0.2806
     20 C           1.5314   -0.0442   20.6145 C.2     1  UNL1        0.2493
     21 O           0.1152   -0.5205   20.4827 O.2     1  UNL1       -0.2698
     22 H           2.7999    1.3510   21.6824 H       1  UNL1        0.1552
     23 C           2.6087   -0.6504   19.7648 C.ar    1  UNL1        0.0520
     24 C           3.1617   -2.0022   20.1063 C.ar    1  UNL1        0.0338
     25 C           4.2390   -2.6085   19.2567 C.ar    1  UNL1        0.1403
     26 F           4.7919   -3.9603   19.5983 F       1  UNL1       -0.2042
     27 C           4.7633   -1.8628   18.0655 C.ar    1  UNL1        0.0293
     28 C           4.2103   -0.5109   17.7239 C.ar    1  UNL1       -0.0018
     29 C           3.1331    0.0953   18.5735 C.ar    1  UNL1       -0.0173
     30 C           2.5801    1.4472   18.2320 C.3     1  UNL1        0.0312
@<TRIPOS>BOND
     1     1     2    1
     2     2     3   ar
     3     3     4   ar
     4     4     8    1
     5     8     9    1
     6     9    10    1
     7    10    11    1
     8    11    13    1
     9    13    14    1
    10    14    15    1
    11    15    16    1
    12    16    17    1
    13    17    18    1
    14    11    12    1
    15     4     5   ar
    16     5     6   ar
    17     6     7   ar
    18     7    19    1
    19    19    20   am
    20    20    21    2
    21    20    23    1
    22    23    24   ar
    23    24    25   ar
    24    25    26    1
    25    25    27   ar
    26    27    28   ar
    27    28    29   ar
    28    29    30    1
    29     7     2   ar
    30    29    23   ar
    31    12     8    1
    32    17    13    1
    33    19    22    1
@<TRIPOS>MOLECULE
*****
 30 33 0 0 0
SMALL
GASTEIGER

@<TRIPOS>ATOM
      1 C           6.0723   -2.3332   28.5581 C.3     1  UNL1        0.0324
      2 C           5.1203   -1.4500   27.8073 C.ar    1  UNL1       -0.0071
      3 C           4.8778   -1.6805   26.3452 C.ar    1  UNL1        0.0115
      4 C           3.9257   -0.7973   25.5945 C.ar    1  UNL1        0.0476
      5 C           3.2161    0.3164   26.3059 C.ar    1  UNL1        0.0158
      6 C           3.4587    0.5469   27.7681 C.ar    1  UNL1        0.0156
      7 C           4.4107   -0.3363   28.5188 C.ar    1  UNL1        0.0466
      8 N           3.6832   -1.0278   24.1322 N.pl3   1  UNL1       -0.3061
      9 C           2.6655   -0.3228   23.2853 C.3     1  UNL1        0.0923
     10 C           2.7692   -0.8631   21.8899 C.3     1  UNL1        0.0391
     11 C           3.8511   -1.9021   21.8743 C.3     1  UNL1        0.0790
     12 C           4.4159   -2.0038   23.2601 C.3     1  UNL1        0.1067
     13 N           4.2908   -2.6993   20.6822 N.3     1  UNL1       -0.2736
     14 C           4.1008   -4.1746   20.4894 C.3     1  UNL1        0.0721
     15 C           4.6903   -4.5482   19.1616 C.3     1  UNL1        0.0187
     16 C           5.2446   -3.3037   18.5339 C.3     1  UNL1        0.0174
     17 C           4.9976   -2.1610   19.4736 C.3     1  UNL1        0.0576
     18 C           5.3889   -0.7311   19.2450 C.3     1  UNL1        0.0173
     19 N           4.6532   -0.1058   29.9811 N.am    1  UNL1       -0.2806
     20 C           3.5593   -0.3682   30.9732 C.2     1  UNL1        0.2493
     21 O           2.2228   -0.8612   30.5032 O.2     1  UNL1       -0.2698
     22 H           5.5303    0.2178   30.2896 H       1  UNL1        0.1552
     23 C           3.8018   -0.1377   32.4355 C.ar    1  UNL1        0.0520
     24 C           3.3833    1.1552   33.0704 C.ar    1  UNL1        0.0338
     25 C           3.6257    1.3858   34.5326 C.ar    1  UNL1        0.1403
     26 F           3.2072    2.6788   35.1675 F       1  UNL1       -0.2042
     27 C           4.2867    0.3234   35.3599 C.ar    1  UNL1        0.0293
     28 C           4.7052   -0.9696   34.7249 C.ar    1  UNL1       -0.0018
     29 C           4.4627   -1.2001   33.2628 C.ar    1  UNL1       -0.0173
     30 C           4.8812   -2.4931   32.6278 C.3     1  UNL1        0.0312
@<TRIPOS>BOND
     1     1     2    1
     2     2     3   ar
     3     3     4   ar
     4     4     8    1
     5     8     9    1
     6     9    10    1
     7    10    11    1
     8    11    13    1
     9    13    14    1
    10    14    15    1
    11    15    16    1
    12    16    17    1
    13    17    18    1
    14    11    12    1
    15     4     5   ar
    16     5     6   ar
    17     6     7   ar
    18     7    19    1
    19    19    20   am
    20    20    21    2
    21    20    23    1
    22    23    24   ar
    23    24    25   ar
    24    25    26    1
    25    25    27   ar
    26    27    28   ar
    27    28    29   ar
    28    29    30    1
    29     7     2   ar
    30    29    23   ar
    31    12     8    1
    32    17    13    1
    33    19    22    1
@<TRIPOS>MOLECULE
*****
 30 33 0 0 0
SMALL
GASTEIGER

@<TRIPOS>ATOM
      1 C          -3.2530    3.9870   20.1043 C.3     1  UNL1        0.0324
      2 C          -2.1533    3.4367   20.9632 C.ar    1  UNL1       -0.0071
      3 C          -1.0527    2.6266   20.3448 C.ar    1  UNL1        0.0115
      4 C           0.0470    2.0762   21.2038 C.ar    1  UNL1        0.0476
      5 C           0.0461    2.3360   22.6811 C.ar    1  UNL1        0.0158
      6 C          -1.0545    3.1461   23.2994 C.ar    1  UNL1        0.0156
      7 C          -2.1542    3.6964   22.4405 C.ar    1  UNL1        0.0466
      8 N           1.1476    1.2661   20.5853 N.pl3   1  UNL1       -0.3061
      9 C           2.0560    1.7127   19.4784 C.3     1  UNL1        0.0923
     10 C           3.0028    0.5897   19.1742 C.3     1  UNL1        0.0391
     11 C           2.6795   -0.5510   20.0932 C.3     1  UNL1        0.0790
     12 C           1.5329   -0.1329   20.9652 C.3     1  UNL1        0.1067
     13 N           3.3798   -1.8769   20.1330 N.3     1  UNL1       -0.2736
     14 C           3.5339   -2.8274   18.9829 C.3     1  UNL1        0.0721
     15 C           4.2983   -4.0230   19.4690 C.3     1  UNL1        0.0187
     16 C           4.6167   -3.8113   20.9195 C.3     1  UNL1        0.0174
     17 C           4.0490   -2.4849   21.3298 C.3     1  UNL1        0.0576
     18 C           4.1354   -1.8738   22.6970 C.3     1  UNL1        0.0173
     19 N          -3.2548    4.5066   23.0589 N.am    1  UNL1       -0.2806
     20 C          -4.5345    3.8418   23.4715 C.2     1  UNL1        0.2493
     21 O          -4.7138    2.3668   23.2656 O.2     1  UNL1       -0.2698
     22 H          -3.1371    5.4746   23.1941 H       1  UNL1        0.1552
     23 C          -5.6351    4.6519   24.0899 C.ar    1  UNL1        0.0520
     24 C          -5.5661    5.0269   25.5406 C.ar    1  UNL1        0.0338
     25 C          -6.6666    5.8370   26.1591 C.ar    1  UNL1        0.1403
     26 F          -6.5975    6.2120   27.6098 F       1  UNL1       -0.2042
     27 C          -7.8362    6.2721   25.3268 C.ar    1  UNL1        0.0293
     28 C          -7.9052    5.8971   23.8761 C.ar    1  UNL1       -0.0018
     29 C          -6.8047    5.0870   23.2576 C.ar    1  UNL1       -0.0173
     30 C          -6.8738    4.7120   21.8069 C.3     1  UNL1        0.0312
@<TRIPOS>BOND
     1     1     2    1
     2     2     3   ar
     3     3     4   ar
     4     4     8    1
     5     8     9    1
     6     9    10    1
     7    10    11    1
     8    11    13    1
     9    13    14    1
    10    14    15    1
    11    15    16    1
    12    16    17    1
    13    17    18    1
    14    11    12    1
    15     4     5   ar
    16     5     6   ar
    17     6     7   ar
    18     7    19    1
    19    19    20   am
    20    20    21    2
    21    20    23    1
    22    23    24   ar
    23    24    25   ar
    24    25    26    1
    25    25    27   ar
    26    27    28   ar
    27    28    29   ar
    28    29    30    1
    29     7     2   ar
    30    29    23   ar
    31    12     8    1
    32    17    13    1
    33    19    22    1
@<TRIPOS>MOLECULE
*****
 30 33 0 0 0
SMALL
GASTEIGER

@<TRIPOS>ATOM
      1 C           3.2405   -0.4251   25.2166 C.3     1  UNL1        0.0324
      2 C           4.4781   -1.0950   25.7357 C.ar    1  UNL1       -0.0071
      3 C           4.6255   -1.3642   27.2039 C.ar    1  UNL1        0.0115
      4 C           5.8632   -2.0341   27.7230 C.ar    1  UNL1        0.0476
      5 C           6.9534   -2.4347   26.7739 C.ar    1  UNL1        0.0158
      6 C           6.8060   -2.1655   25.3057 C.ar    1  UNL1        0.0156
      7 C           5.5683   -1.4956   24.7866 C.ar    1  UNL1        0.0466
      8 N           6.0106   -2.3033   29.1914 N.pl3   1  UNL1       -0.3061
      9 C           6.5914   -3.5418   29.8067 C.3     1  UNL1        0.0923
     10 C           6.5428   -3.3852   31.2977 C.3     1  UNL1        0.0391
     11 C           5.9319   -2.0498   31.6039 C.3     1  UNL1        0.0790
     12 C           5.6030   -1.3812   30.3021 C.3     1  UNL1        0.1067
     13 N           5.6920   -1.4827   32.9717 N.3     1  UNL1       -0.2736
     14 C           4.4018   -1.5369   33.7347 C.3     1  UNL1        0.0721
     15 C           4.6127   -0.8495   35.0512 C.3     1  UNL1        0.0187
     16 C           6.0332   -0.3705   35.1017 C.3     1  UNL1        0.0174
     17 C           6.7003   -0.7618   33.8164 C.3     1  UNL1        0.0576
     18 C           8.1255   -0.4815   33.4418 C.3     1  UNL1        0.0173
     19 N           5.4209   -1.2264   23.3183 N.am    1  UNL1       -0.2806
     20 C           4.8575   -2.2830   22.4149 C.2     1  UNL1        0.2493
     21 O           4.4415   -3.6089   22.9798 O.2     1  UNL1       -0.2698
     22 H           5.6940   -0.3562   22.9475 H       1  UNL1        0.1552
     23 C           4.7101   -2.0138   20.9466 C.ar    1  UNL1        0.0520
     24 C           5.7730   -2.4678   19.9905 C.ar    1  UNL1        0.0338
     25 C           5.6257   -2.1986   18.5222 C.ar    1  UNL1        0.1403
     26 F           6.6886   -2.6526   17.5661 F       1  UNL1       -0.2042
     27 C           4.4154   -1.4755   18.0101 C.ar    1  UNL1        0.0293
     28 C           3.3525   -1.0215   18.9662 C.ar    1  UNL1       -0.0018
     29 C           3.4999   -1.2907   20.4344 C.ar    1  UNL1       -0.0173
     30 C           2.4370   -0.8367   21.3906 C.3     1  UNL1        0.0312
@<TRIPOS>BOND
     1     1     2    1
     2     2     3   ar
     3     3     4   ar
     4     4     8    1
     5     8     9    1
     6     9    10    1
     7    10    11    1
     8    11    13    1
     9    13    14    1
    10    14    15    1
    11    15    16    1
    12    16    17    1
    13    17    18    1
    14    11    12    1
    15     4     5   ar
    16     5     6   ar
    17     6     7   ar
    18     7    19    1
    19    19    20   am
    20    20    21    2
    21    20    23    1
    22    23    24   ar
    23    24    25   ar
    24    25    26    1
    25    25    27   ar
    26    27    28   ar
    27    28    29   ar
    28    29    30    1
    29     7     2   ar
    30    29    23   ar
    31    12     8    1
    32    17    13    1
    33    19    22    1
