@<TRIPOS>MOLECULE
*****
 37 40 0 0 0
SMALL
GASTEIGER

@<TRIPOS>ATOM
      1 C           4.6414   -0.6826   18.2648 C.3     1  UNL1        0.3254
      2 F           5.0656    0.0601   19.4971 F       1  UNL1       -0.1949
      3 F           3.9010   -1.2510   17.0907 F       1  UNL1       -0.1949
      4 C           0.9938    1.6873   19.4176 C.ar    1  UNL1        0.0889
      5 C           2.1438    2.3657   18.7342 C.ar    1  UNL1        0.0207
      6 C           3.3597    1.5757   18.3499 C.ar    1  UNL1        0.0217
      7 C           3.4255    0.1074   18.6491 C.ar    1  UNL1        0.1219
      8 N           2.2755   -0.5711   19.3326 N.ar    1  UNL1       -0.2412
      9 C           1.0597    0.2189   19.7169 C.ar    1  UNL1        0.1163
     10 N          -2.2031    3.8734   19.6738 N.ar    1  UNL1       -0.2005
     11 N          -1.9831    3.5121   21.1129 N.ar    1  UNL1       -0.1442
     12 C          -0.7587    2.6491   21.1921 C.ar    1  UNL1        0.2073
     13 N          -0.2221    2.4772   19.8019 N.ar    1  UNL1       -0.2382
     14 C          -1.1148    3.2339   18.8636 C.ar    1  UNL1        0.3523
     15 O          -0.9484    3.3335   17.3762 O.2     1  UNL1       -0.2444
     16 C          -3.3162    4.7249   19.1388 C.3     1  UNL1        0.1322
     17 C          -5.0181    4.4338   20.3711 C.3     1  UNL1        0.0020
     18 C          -4.6815    4.1365   18.9399 C.3     1  UNL1        0.0228
     19 C          -4.3449    3.8392   17.5088 C.3     1  UNL1        0.0020
     20 C          -6.0468    3.5481   18.7411 C.3     1  UNL1        0.0020
     21 C           5.8572   -1.4725   17.8805 C.3     1  UNL1        0.1932
     22 O           7.0731   -2.2624   17.4962 O.3     1  UNL1       -0.3755
     23 H           6.8954   -3.2084   17.6162 H       1  UNL1        0.2110
     24 C           6.5787   -0.2002   17.5479 C.ar    1  UNL1        0.0368
     25 C           6.2104    0.5705   16.3147 C.ar    1  UNL1        0.0028
     26 C           6.9318    1.8428   15.9821 C.ar    1  UNL1        0.0295
     27 C           8.0216    2.3445   16.8825 C.ar    1  UNL1        0.1424
     28 F           8.7431    3.6168   16.5497 F       1  UNL1       -0.2041
     29 C           8.3899    1.5738   18.1155 C.ar    1  UNL1        0.0590
     30 C           7.6685    0.3015   18.4482 C.ar    1  UNL1        0.1408
     31 F           8.0368   -0.4691   19.6813 F       1  UNL1       -0.2043
     32 C           5.1358   -2.7448   18.2132 C.3     1  UNL1        0.1679
     33 N           5.2648   -3.3443   19.5822 N.ar    1  UNL1       -0.2078
     34 C           4.1320   -3.7155   20.4925 C.ar    1  UNL1        0.2216
     35 N           4.7164   -4.2784   21.7541 N.ar    1  UNL1       -0.1048
     36 N           6.2106   -4.2551   21.6234 N.ar    1  UNL1       -0.0226
     37 N           6.5495   -3.6778   20.2811 N.ar    1  UNL1       -0.0428
@<TRIPOS>BOND
     1    17    18    1
     2    18    19    1
     3    18    20    1
     4    18    16    1
     5    16    10    1
     6    10    11   ar
     7    11    12   ar
     8    12    13   ar
     9    13     4    1
    10     4     5   ar
    11     5     6   ar
    12     6     7   ar
    13     7     1    1
    14     1     2    1
    15     1     3    1
    16     1    21    1
    17    21    22    1
    18    21    32    1
    19    32    33    1
    20    33    34   ar
    21    34    35   ar
    22    35    36   ar
    23    36    37   ar
    24    21    24    1
    25    24    25   ar
    26    25    26   ar
    27    26    27   ar
    28    27    28    1
    29    27    29   ar
    30    29    30   ar
    31    30    31    1
    32     7     8   ar
    33     8     9   ar
    34    13    14   ar
    35    14    15    2
    36    14    10   ar
    37     9     4   ar
    38    37    33   ar
    39    30    24   ar
    40    22    23    1
@<TRIPOS>MOLECULE
*****
 37 40 0 0 0
SMALL
GASTEIGER

@<TRIPOS>ATOM
      1 C         -14.2663   -5.1176   18.8802 C.3     1  UNL1        0.3254
      2 F         -14.6144   -4.8913   17.4388 F       1  UNL1       -0.1949
      3 F         -14.0395   -5.0010   20.3583 F       1  UNL1       -0.1949
      4 C         -15.8523   -0.9073   18.7915 C.ar    1  UNL1        0.0889
      5 C         -15.1936   -1.4346   20.0316 C.ar    1  UNL1        0.0207
      6 C         -14.6649   -2.8381   20.0612 C.ar    1  UNL1        0.0217
      7 C         -14.7950   -3.7142   18.8506 C.ar    1  UNL1        0.1219
      8 N         -15.4538   -3.1869   17.6105 N.ar    1  UNL1       -0.2412
      9 C         -15.9824   -1.7835   17.5809 C.ar    1  UNL1        0.1163
     10 N         -17.4924    2.5580   19.3977 N.ar    1  UNL1       -0.2005
     11 N         -16.8967    2.7536   18.0349 N.ar    1  UNL1       -0.1442
     12 C         -16.2098    1.4793   17.6421 C.ar    1  UNL1        0.2073
     13 N         -16.3810    0.4961   18.7619 N.ar    1  UNL1       -0.2382
     14 C         -17.1736    1.1628   19.8469 C.ar    1  UNL1        0.3523
     15 O         -17.5768    0.5431   21.1521 O.2     1  UNL1       -0.2444
     16 C         -18.2702    3.5784   20.1747 C.3     1  UNL1        0.1322
     17 C         -19.1277    3.4583   22.1112 C.3     1  UNL1        0.0020
     18 C         -17.8299    3.9651   21.5555 C.3     1  UNL1        0.0228
     19 C         -16.5321    4.4718   20.9998 C.3     1  UNL1        0.0020
     20 C         -17.3897    4.3517   22.9363 C.3     1  UNL1        0.0020
     21 C         -13.7377   -6.5210   18.9098 C.3     1  UNL1        0.1932
     22 O         -13.2089   -7.9245   18.9394 O.3     1  UNL1       -0.3755
     23 H         -13.8933   -8.5207   19.2816 H       1  UNL1        0.2110
     24 C         -12.4283   -6.0394   18.3590 C.ar    1  UNL1        0.0368
     25 C         -11.4585   -5.3212   19.2499 C.ar    1  UNL1        0.0028
     26 C         -10.1491   -4.8395   18.6991 C.ar    1  UNL1        0.0295
     27 C          -9.8094   -5.0761   17.2574 C.ar    1  UNL1        0.1424
     28 F          -8.4999   -4.5944   16.7066 F       1  UNL1       -0.2041
     29 C         -10.7791   -5.7943   16.3664 C.ar    1  UNL1        0.0590
     30 C         -12.0886   -6.2760   16.9172 C.ar    1  UNL1        0.1408
     31 F         -13.0583   -6.9942   16.0263 F       1  UNL1       -0.2043
     32 C         -15.0471   -7.0027   19.4606 C.3     1  UNL1        0.1679
     33 N         -15.5019   -8.4070   19.1939 N.ar    1  UNL1       -0.2078
     34 C         -16.4462   -9.2044   20.0438 C.ar    1  UNL1        0.2216
     35 N         -16.6202  -10.5506   19.4056 N.ar    1  UNL1       -0.1048
     36 N         -15.7834  -10.5853   18.1611 N.ar    1  UNL1       -0.0226
     37 N         -15.0923   -9.2604   18.0303 N.ar    1  UNL1       -0.0428
@<TRIPOS>BOND
     1    17    18    1
     2    18    19    1
     3    18    20    1
     4    18    16    1
     5    16    10    1
     6    10    11   ar
     7    11    12   ar
     8    12    13   ar
     9    13     4    1
    10     4     5   ar
    11     5     6   ar
    12     6     7   ar
    13     7     1    1
    14     1     2    1
    15     1     3    1
    16     1    21    1
    17    21    22    1
    18    21    32    1
    19    32    33    1
    20    33    34   ar
    21    34    35   ar
    22    35    36   ar
    23    36    37   ar
    24    21    24    1
    25    24    25   ar
    26    25    26   ar
    27    26    27   ar
    28    27    28    1
    29    27    29   ar
    30    29    30   ar
    31    30    31    1
    32     7     8   ar
    33     8     9   ar
    34    13    14   ar
    35    14    15    2
    36    14    10   ar
    37     9     4   ar
    38    37    33   ar
    39    30    24   ar
    40    22    23    1
@<TRIPOS>MOLECULE
*****
 37 40 0 0 0
SMALL
GASTEIGER

@<TRIPOS>ATOM
      1 C           4.5652   -0.4299   18.0731 C.3     1  UNL1        0.3254
      2 F           4.8654    0.1403   19.4276 F       1  UNL1       -0.1949
      3 F           3.9612   -0.7991   16.7507 F       1  UNL1       -0.1949
      4 C           1.0216    2.1988   18.9576 C.ar    1  UNL1        0.0889
      5 C           2.3236    2.8123   18.5355 C.ar    1  UNL1        0.0207
      6 C           3.5048    1.9360   18.2407 C.ar    1  UNL1        0.0217
      7 C           3.3839    0.4463   18.3680 C.ar    1  UNL1        0.1219
      8 N           2.0819   -0.1671   18.7901 N.ar    1  UNL1       -0.2412
      9 C           0.9007    0.7091   19.0849 C.ar    1  UNL1        0.1163
     10 N          -1.9371    4.2339   20.4307 N.ar    1  UNL1       -0.2005
     11 N          -2.0178    4.6128   18.9815 N.ar    1  UNL1       -0.1442
     12 C          -0.9193    3.8966   18.2534 C.ar    1  UNL1        0.2073
     13 N          -0.1597    3.0750   19.2525 N.ar    1  UNL1       -0.2382
     14 C          -0.7888    3.2836   20.5981 C.ar    1  UNL1        0.3523
     15 O          -0.3471    2.6525   21.8852 O.2     1  UNL1       -0.2444
     16 C          -2.8454    4.7201   21.5210 C.3     1  UNL1        0.1322
     17 C          -3.0970    3.9680   23.4885 C.3     1  UNL1        0.0020
     18 C          -3.8021    3.7707   22.1793 C.3     1  UNL1        0.0228
     19 C          -4.5071    3.5734   20.8701 C.3     1  UNL1        0.0020
     20 C          -4.7587    2.8213   22.8375 C.3     1  UNL1        0.0020
     21 C           5.7464   -1.3061   17.7782 C.3     1  UNL1        0.1932
     22 O           6.9277   -2.1823   17.4833 O.3     1  UNL1       -0.3755
     23 H           6.6706   -3.1132   17.5746 H       1  UNL1        0.2110
     24 C           6.5857   -0.0892   17.5243 C.ar    1  UNL1        0.0368
     25 C           6.4101    0.6917   16.2556 C.ar    1  UNL1        0.0028
     26 C           7.2494    1.9087   16.0017 C.ar    1  UNL1        0.0295
     27 C           8.2644    2.3448   17.0164 C.ar    1  UNL1        0.1424
     28 F           9.1037    3.5618   16.7624 F       1  UNL1       -0.2041
     29 C           8.4401    1.5640   18.2850 C.ar    1  UNL1        0.0590
     30 C           7.6007    0.3470   18.5390 C.ar    1  UNL1        0.1408
     31 F           7.7764   -0.4339   19.8076 F       1  UNL1       -0.2043
     32 C           4.9071   -2.5230   18.0322 C.3     1  UNL1        0.1679
     33 N           5.0058   -3.2416   19.3452 N.ar    1  UNL1       -0.2078
     34 C           3.9114   -4.0274   20.0047 C.ar    1  UNL1        0.2216
     35 N           4.4454   -4.5719   21.2964 N.ar    1  UNL1       -0.1048
     36 N           5.8699   -4.1225   21.4352 N.ar    1  UNL1       -0.0226
     37 N           6.2161   -3.3004   20.2293 N.ar    1  UNL1       -0.0428
@<TRIPOS>BOND
     1    17    18    1
     2    18    19    1
     3    18    20    1
     4    18    16    1
     5    16    10    1
     6    10    11   ar
     7    11    12   ar
     8    12    13   ar
     9    13     4    1
    10     4     5   ar
    11     5     6   ar
    12     6     7   ar
    13     7     1    1
    14     1     2    1
    15     1     3    1
    16     1    21    1
    17    21    22    1
    18    21    32    1
    19    32    33    1
    20    33    34   ar
    21    34    35   ar
    22    35    36   ar
    23    36    37   ar
    24    21    24    1
    25    24    25   ar
    26    25    26   ar
    27    26    27   ar
    28    27    28    1
    29    27    29   ar
    30    29    30   ar
    31    30    31    1
    32     7     8   ar
    33     8     9   ar
    34    13    14   ar
    35    14    15    2
    36    14    10   ar
    37     9     4   ar
    38    37    33   ar
    39    30    24   ar
    40    22    23    1
@<TRIPOS>MOLECULE
*****
 37 40 0 0 0
SMALL
GASTEIGER

@<TRIPOS>ATOM
      1 C         -13.9498   -4.8937   18.8287 C.3     1  UNL1        0.3254
      2 F         -14.0743   -4.6392   17.3557 F       1  UNL1       -0.1949
      3 F         -13.9807   -4.8183   20.3264 F       1  UNL1       -0.1949
      4 C         -15.8666   -0.8298   18.5843 C.ar    1  UNL1        0.0889
      5 C         -14.6625   -1.1427   17.7462 C.ar    1  UNL1        0.0207
      6 C         -14.0236   -2.4973   17.8277 C.ar    1  UNL1        0.0217
      7 C         -14.5887   -3.5390   18.7472 C.ar    1  UNL1        0.1219
      8 N         -15.7928   -3.2261   19.5852 N.ar    1  UNL1       -0.2412
      9 C         -16.4317   -1.8715   19.5038 C.ar    1  UNL1        0.1163
     10 N         -16.8357    2.9287   18.5621 N.ar    1  UNL1       -0.2005
     11 N         -18.1420    2.2904   18.1928 N.ar    1  UNL1       -0.1442
     12 C         -17.9379    0.8048   18.1562 C.ar    1  UNL1        0.2073
     13 N         -16.5055    0.5249   18.5028 N.ar    1  UNL1       -0.2382
     14 C         -15.8244    1.8376   18.7537 C.ar    1  UNL1        0.3523
     15 O         -14.3847    2.0261   19.1301 O.2     1  UNL1       -0.2444
     16 C         -16.5849    4.3998   18.7133 C.3     1  UNL1        0.1322
     17 C         -16.3178    4.6841   16.6281 C.3     1  UNL1        0.0020
     18 C         -15.5549    5.0768   17.8584 C.3     1  UNL1        0.0228
     19 C         -14.7919    5.4695   19.0888 C.3     1  UNL1        0.0020
     20 C         -14.5248    5.7537   17.0036 C.3     1  UNL1        0.0020
     21 C         -13.3108   -6.2484   18.9101 C.3     1  UNL1        0.1932
     22 O         -12.6718   -7.6031   18.9916 O.3     1  UNL1       -0.3755
     23 H         -13.2936   -8.2303   19.3927 H       1  UNL1        0.2110
     24 C         -12.0650   -5.6986   18.2812 C.ar    1  UNL1        0.0368
     25 C         -11.1264   -4.8534   19.0904 C.ar    1  UNL1        0.0028
     26 C          -9.8806   -4.3036   18.4614 C.ar    1  UNL1        0.0295
     27 C          -9.5733   -4.5990   17.0233 C.ar    1  UNL1        0.1424
     28 F          -8.3274   -4.0491   16.3943 F       1  UNL1       -0.2041
     29 C         -10.5118   -5.4441   16.2141 C.ar    1  UNL1        0.0590
     30 C         -11.7577   -5.9939   16.8430 C.ar    1  UNL1        0.1408
     31 F         -12.6962   -6.8391   16.0338 F       1  UNL1       -0.2043
     32 C         -14.5566   -6.7982   19.5391 C.3     1  UNL1        0.1679
     33 N         -15.2605   -7.9656   18.9132 N.ar    1  UNL1       -0.2078
     34 C         -16.5218   -7.9040   18.1036 C.ar    1  UNL1        0.2216
     35 N         -16.8674   -9.2999   17.6770 N.ar    1  UNL1       -0.1048
     36 N         -15.8197  -10.2242   18.2229 N.ar    1  UNL1       -0.0226
     37 N         -14.8266   -9.3996   18.9869 N.ar    1  UNL1       -0.0428
@<TRIPOS>BOND
     1    17    18    1
     2    18    19    1
     3    18    20    1
     4    18    16    1
     5    16    10    1
     6    10    11   ar
     7    11    12   ar
     8    12    13   ar
     9    13     4    1
    10     4     5   ar
    11     5     6   ar
    12     6     7   ar
    13     7     1    1
    14     1     2    1
    15     1     3    1
    16     1    21    1
    17    21    22    1
    18    21    32    1
    19    32    33    1
    20    33    34   ar
    21    34    35   ar
    22    35    36   ar
    23    36    37   ar
    24    21    24    1
    25    24    25   ar
    26    25    26   ar
    27    26    27   ar
    28    27    28    1
    29    27    29   ar
    30    29    30   ar
    31    30    31    1
    32     7     8   ar
    33     8     9   ar
    34    13    14   ar
    35    14    15    2
    36    14    10   ar
    37     9     4   ar
    38    37    33   ar
    39    30    24   ar
    40    22    23    1
@<TRIPOS>MOLECULE
*****
 37 40 0 0 0
SMALL
GASTEIGER

@<TRIPOS>ATOM
      1 C           3.9655   -1.8111   20.6429 C.3     1  UNL1        0.3254
      2 F           4.4795   -0.4186   20.8586 F       1  UNL1       -0.1949
      3 F           3.4649   -3.2172   20.7923 F       1  UNL1       -0.1949
      4 C           4.3160   -1.4606   25.1155 C.ar    1  UNL1        0.0889
      5 C           3.4002   -0.5431   24.3608 C.ar    1  UNL1        0.0207
      6 C           3.2834   -0.6600   22.8699 C.ar    1  UNL1        0.0217
      7 C           4.0824   -1.6943   22.1338 C.ar    1  UNL1        0.1219
      8 N           4.9982   -2.6117   22.8885 N.ar    1  UNL1       -0.2412
      9 C           5.1150   -2.4949   24.3793 C.ar    1  UNL1        0.1163
     10 N           5.3569   -1.2404   28.8483 N.ar    1  UNL1       -0.2005
     11 N           3.8684   -1.0875   28.9530 N.ar    1  UNL1       -0.1442
     12 C           3.2973   -1.1513   27.5674 C.ar    1  UNL1        0.2073
     13 N           4.4329   -1.3437   26.6064 N.ar    1  UNL1       -0.2382
     14 C           5.7058   -1.3988   27.3980 C.ar    1  UNL1        0.3523
     15 O           7.0853   -1.5804   26.8378 O.2     1  UNL1       -0.2444
     16 C           6.3264   -1.2358   29.9929 C.3     1  UNL1        0.1322
     17 C           7.1524   -3.1880   30.0744 C.3     1  UNL1        0.0020
     18 C           6.3108   -2.3532   30.9935 C.3     1  UNL1        0.0228
     19 C           5.4691   -1.5184   31.9126 C.3     1  UNL1        0.0020
     20 C           6.2952   -3.4706   31.9941 C.3     1  UNL1        0.0020
     21 C           3.8486   -1.9280   19.1520 C.3     1  UNL1        0.1932
     22 O           3.7317   -2.0448   17.6611 O.3     1  UNL1       -0.3755
     23 H           4.2844   -2.7787   17.3500 H       1  UNL1        0.2110
     24 C           2.9008   -0.7656   19.1352 C.ar    1  UNL1        0.0368
     25 C           1.5564   -0.8845   19.7899 C.ar    1  UNL1        0.0028
     26 C           0.6085    0.2779   19.7731 C.ar    1  UNL1        0.0295
     27 C           1.0050    1.5593   19.1016 C.ar    1  UNL1        0.1424
     28 F           0.0570    2.7217   19.0848 F       1  UNL1       -0.2041
     29 C           2.3493    1.6782   18.4470 C.ar    1  UNL1        0.0590
     30 C           3.2972    0.5158   18.4637 C.ar    1  UNL1        0.1408
     31 F           4.6415    0.6348   17.8091 F       1  UNL1       -0.2043
     32 C           4.7965   -3.0904   19.1689 C.3     1  UNL1        0.1679
     33 N           6.2746   -2.8544   19.0705 N.ar    1  UNL1       -0.2078
     34 C           7.2916   -3.1812   20.1235 C.ar    1  UNL1        0.2216
     35 N           8.6407   -2.7789   19.6056 N.ar    1  UNL1       -0.1048
     36 N           8.4574   -2.2035   18.2325 N.ar    1  UNL1       -0.0226
     37 N           6.9951   -2.2501   17.9018 N.ar    1  UNL1       -0.0428
@<TRIPOS>BOND
     1    17    18    1
     2    18    19    1
     3    18    20    1
     4    18    16    1
     5    16    10    1
     6    10    11   ar
     7    11    12   ar
     8    12    13   ar
     9    13     4    1
    10     4     5   ar
    11     5     6   ar
    12     6     7   ar
    13     7     1    1
    14     1     2    1
    15     1     3    1
    16     1    21    1
    17    21    22    1
    18    21    32    1
    19    32    33    1
    20    33    34   ar
    21    34    35   ar
    22    35    36   ar
    23    36    37   ar
    24    21    24    1
    25    24    25   ar
    26    25    26   ar
    27    26    27   ar
    28    27    28    1
    29    27    29   ar
    30    29    30   ar
    31    30    31    1
    32     7     8   ar
    33     8     9   ar
    34    13    14   ar
    35    14    15    2
    36    14    10   ar
    37     9     4   ar
    38    37    33   ar
    39    30    24   ar
    40    22    23    1
@<TRIPOS>MOLECULE
*****
 37 40 0 0 0
SMALL
GASTEIGER

@<TRIPOS>ATOM
      1 C         -16.7869    1.0197   19.9048 C.3     1  UNL1        0.3254
      2 F         -16.7438    1.3721   18.4474 F       1  UNL1       -0.1949
      3 F         -16.5302    0.4752   21.2786 F       1  UNL1       -0.1949
      4 C         -13.1650   -1.1615   18.3639 C.ar    1  UNL1        0.0889
      5 C         -14.1480   -1.8706   19.2475 C.ar    1  UNL1        0.0207
      6 C         -15.3553   -1.1436   19.7611 C.ar    1  UNL1        0.0217
      7 C         -15.5795    0.2927   19.3911 C.ar    1  UNL1        0.1219
      8 N         -14.5966    1.0018   18.5075 N.ar    1  UNL1       -0.2412
      9 C         -13.3893    0.2748   17.9939 C.ar    1  UNL1        0.1163
     10 N         -10.2552   -3.5850   17.5122 N.ar    1  UNL1       -0.2005
     11 N          -9.9444   -2.4296   16.6074 N.ar    1  UNL1       -0.1442
     12 C         -10.9966   -1.3812   16.8163 C.ar    1  UNL1        0.2073
     13 N         -11.9577   -1.8885   17.8503 N.ar    1  UNL1       -0.2382
     14 C         -11.4995   -3.2505   18.2803 C.ar    1  UNL1        0.3523
     15 O         -12.1681   -4.1247   19.2995 O.2     1  UNL1       -0.2444
     16 C          -9.4611   -4.8522   17.6285 C.3     1  UNL1        0.1322
     17 C         -10.7605   -5.9248   16.3397 C.3     1  UNL1        0.0020
     18 C         -10.1651   -6.1751   17.6935 C.3     1  UNL1        0.0228
     19 C          -9.5698   -6.4255   19.0473 C.3     1  UNL1        0.0020
     20 C         -10.8691   -7.4981   17.7585 C.3     1  UNL1        0.0020
     21 C         -17.9942    1.7467   20.4184 C.3     1  UNL1        0.1932
     22 O         -19.2015    2.4738   20.9322 O.3     1  UNL1       -0.3755
     23 H         -20.0043    2.0165   20.6368 H       1  UNL1        0.2110
     24 C         -17.1043    2.7539   21.0845 C.ar    1  UNL1        0.0368
     25 C         -16.2122    3.6304   20.2562 C.ar    1  UNL1        0.0028
     26 C         -15.3223    4.6376   20.9222 C.ar    1  UNL1        0.0295
     27 C         -15.3244    4.7683   22.4165 C.ar    1  UNL1        0.1424
     28 F         -14.4345    5.7756   23.0826 F       1  UNL1       -0.2041
     29 C         -16.2165    3.8919   23.2448 C.ar    1  UNL1        0.0590
     30 C         -17.1064    2.8846   22.5788 C.ar    1  UNL1        0.1408
     31 F         -17.9985    2.0082   23.4070 F       1  UNL1       -0.2043
     32 C         -18.8841    0.7396   19.7524 C.3     1  UNL1        0.1679
     33 N         -19.3255   -0.4828   20.5015 N.ar    1  UNL1       -0.2078
     34 C         -18.8424   -1.8832   20.2666 C.ar    1  UNL1        0.2216
     35 N         -19.5459   -2.7852   21.2369 N.ar    1  UNL1       -0.1048
     36 N         -20.4639   -1.9421   22.0716 N.ar    1  UNL1       -0.0226
     37 N         -20.3276   -0.5191   21.6171 N.ar    1  UNL1       -0.0428
@<TRIPOS>BOND
     1    17    18    1
     2    18    19    1
     3    18    20    1
     4    18    16    1
     5    16    10    1
     6    10    11   ar
     7    11    12   ar
     8    12    13   ar
     9    13     4    1
    10     4     5   ar
    11     5     6   ar
    12     6     7   ar
    13     7     1    1
    14     1     2    1
    15     1     3    1
    16     1    21    1
    17    21    22    1
    18    21    32    1
    19    32    33    1
    20    33    34   ar
    21    34    35   ar
    22    35    36   ar
    23    36    37   ar
    24    21    24    1
    25    24    25   ar
    26    25    26   ar
    27    26    27   ar
    28    27    28    1
    29    27    29   ar
    30    29    30   ar
    31    30    31    1
    32     7     8   ar
    33     8     9   ar
    34    13    14   ar
    35    14    15    2
    36    14    10   ar
    37     9     4   ar
    38    37    33   ar
    39    30    24   ar
    40    22    23    1
@<TRIPOS>MOLECULE
*****
 37 40 0 0 0
SMALL
GASTEIGER

@<TRIPOS>ATOM
      1 C           2.8203   -0.0626   20.2995 C.3     1  UNL1        0.3254
      2 F           4.0446    0.7074   20.6971 F       1  UNL1       -0.1949
      3 F           1.5199   -0.8090   20.2588 F       1  UNL1       -0.1949
      4 C           2.3555    0.5047   24.7393 C.ar    1  UNL1        0.0889
      5 C           3.1629   -0.6434   24.2105 C.ar    1  UNL1        0.0207
      6 C           3.3179   -0.8325   22.7305 C.ar    1  UNL1        0.0217
      7 C           2.6653    0.1265   21.7795 C.ar    1  UNL1        0.1219
      8 N           1.8579    1.2746   22.3084 N.ar    1  UNL1       -0.2412
      9 C           1.7029    1.4638   23.7883 C.ar    1  UNL1        0.1163
     10 N           1.2783    1.2734   28.3883 N.ar    1  UNL1       -0.2005
     11 N           2.6459    0.6965   28.6052 N.ar    1  UNL1       -0.1442
     12 C           3.2158    0.3384   27.2647 C.ar    1  UNL1        0.2073
     13 N           2.2005    0.6939   26.2193 N.ar    1  UNL1       -0.2382
     14 C           1.0031    1.2717   26.9137 C.ar    1  UNL1        0.3523
     15 O          -0.2497    1.7619   26.2502 O.2     1  UNL1       -0.2444
     16 C           0.3491    1.7655   29.4581 C.3     1  UNL1        0.1322
     17 C           0.9364    1.9911   31.4839 C.3     1  UNL1        0.0020
     18 C           0.7485    2.9233   30.3240 C.3     1  UNL1        0.0228
     19 C           0.5606    3.8556   29.1640 C.3     1  UNL1        0.0020
     20 C           1.1479    4.0812   31.1899 C.3     1  UNL1        0.0020
     21 C           2.9752   -0.2518   18.8196 C.3     1  UNL1        0.1932
     22 O           3.1301   -0.4409   17.3396 O.3     1  UNL1       -0.3755
     23 H           3.5091   -1.3163   17.1634 H       1  UNL1        0.2110
     24 C           2.4084    1.1170   18.5853 C.ar    1  UNL1        0.0368
     25 C           0.9229    1.3251   18.5931 C.ar    1  UNL1        0.0028
     26 C           0.3561    2.6940   18.3588 C.ar    1  UNL1        0.0295
     27 C           1.2747    3.8548   18.1167 C.ar    1  UNL1        0.1424
     28 F           0.7079    5.2237   17.8824 F       1  UNL1       -0.2041
     29 C           2.7602    3.6468   18.1089 C.ar    1  UNL1        0.0590
     30 C           3.3271    2.2778   18.3432 C.ar    1  UNL1        0.1408
     31 F           4.8125    2.0698   18.3355 F       1  UNL1       -0.2043
     32 C           3.5420   -1.6207   19.0539 C.3     1  UNL1        0.1679
     33 N           4.9831   -1.8988   18.7442 N.ar    1  UNL1       -0.2078
     34 C           6.0574   -2.2030   19.7458 C.ar    1  UNL1        0.2216
     35 N           7.3411   -2.4138   18.9990 N.ar    1  UNL1       -0.1048
     36 N           7.0602   -2.2400   17.5358 N.ar    1  UNL1       -0.0226
     37 N           5.6028   -1.9217   17.3783 N.ar    1  UNL1       -0.0428
@<TRIPOS>BOND
     1    17    18    1
     2    18    19    1
     3    18    20    1
     4    18    16    1
     5    16    10    1
     6    10    11   ar
     7    11    12   ar
     8    12    13   ar
     9    13     4    1
    10     4     5   ar
    11     5     6   ar
    12     6     7   ar
    13     7     1    1
    14     1     2    1
    15     1     3    1
    16     1    21    1
    17    21    22    1
    18    21    32    1
    19    32    33    1
    20    33    34   ar
    21    34    35   ar
    22    35    36   ar
    23    36    37   ar
    24    21    24    1
    25    24    25   ar
    26    25    26   ar
    27    26    27   ar
    28    27    28    1
    29    27    29   ar
    30    29    30   ar
    31    30    31    1
    32     7     8   ar
    33     8     9   ar
    34    13    14   ar
    35    14    15    2
    36    14    10   ar
    37     9     4   ar
    38    37    33   ar
    39    30    24   ar
    40    22    23    1
@<TRIPOS>MOLECULE
*****
 37 40 0 0 0
SMALL
GASTEIGER

@<TRIPOS>ATOM
      1 C         -15.0599   -6.1289   17.5226 C.3     1  UNL1        0.3254
      2 F         -15.4171   -5.2695   16.3462 F       1  UNL1       -0.1949
      3 F         -14.8544   -6.7147   18.8881 F       1  UNL1       -0.1949
      4 C         -17.0156   -2.5194   19.3655 C.ar    1  UNL1        0.0889
      5 C         -17.0284   -3.8319   20.0914 C.ar    1  UNL1        0.0207
      6 C         -16.3765   -5.0351   19.4771 C.ar    1  UNL1        0.0217
      7 C         -15.7118   -4.9257   18.1369 C.ar    1  UNL1        0.1219
      8 N         -15.6990   -3.6132   17.4109 N.ar    1  UNL1       -0.2412
      9 C         -16.3509   -2.4100   18.0252 C.ar    1  UNL1        0.1163
     10 N         -18.0432    0.9314   20.8153 N.ar    1  UNL1       -0.2005
     11 N         -19.2981    0.1394   21.0348 N.ar    1  UNL1       -0.1442
     12 C         -19.0658   -1.2496   20.5185 C.ar    1  UNL1        0.2073
     13 N         -17.6675   -1.3161   19.9798 N.ar    1  UNL1       -0.2382
     14 C         -17.0354    0.0318   20.1633 C.ar    1  UNL1        0.3523
     15 O         -15.6406    0.4132   19.7647 O.2     1  UNL1       -0.2444
     16 C         -17.8330    2.3703   21.1833 C.3     1  UNL1        0.1322
     17 C         -17.2956    2.2008   23.2283 C.3     1  UNL1        0.0020
     18 C         -18.3844    2.9030   22.4725 C.3     1  UNL1        0.0228
     19 C         -19.4732    3.6053   21.7167 C.3     1  UNL1        0.0020
     20 C         -18.9358    3.4357   23.7617 C.3     1  UNL1        0.0020
     21 C         -14.4081   -7.3322   16.9083 C.3     1  UNL1        0.1932
     22 O         -13.7562   -8.5355   16.2941 O.3     1  UNL1       -0.3755
     23 H         -12.8453   -8.3167   16.0426 H       1  UNL1        0.2110
     24 C         -15.6717   -8.1164   17.1036 C.ar    1  UNL1        0.0368
     25 C         -16.8999   -7.7680   16.3160 C.ar    1  UNL1        0.0028
     26 C         -18.1635   -8.5523   16.5113 C.ar    1  UNL1        0.0295
     27 C         -18.1990   -9.6849   17.4940 C.ar    1  UNL1        0.1424
     28 F         -19.4627  -10.4692   17.6893 F       1  UNL1       -0.2041
     29 C         -16.9709  -10.0333   18.2816 C.ar    1  UNL1        0.0590
     30 C         -15.7072   -9.2491   18.0863 C.ar    1  UNL1        0.1408
     31 F         -14.4790   -9.5975   18.8739 F       1  UNL1       -0.2043
     32 C         -13.1445   -6.5479   16.7131 C.3     1  UNL1        0.1679
     33 N         -11.8766   -6.9897   17.3820 N.ar    1  UNL1       -0.2078
     34 C         -11.3011   -6.4201   18.6447 C.ar    1  UNL1        0.2216
     35 N         -10.0305   -7.1571   18.9487 N.ar    1  UNL1       -0.1048
     36 N          -9.8206   -8.1821   17.8738 N.ar    1  UNL1       -0.0226
     37 N         -10.9616   -8.0786   16.9056 N.ar    1  UNL1       -0.0428
@<TRIPOS>BOND
     1    17    18    1
     2    18    19    1
     3    18    20    1
     4    18    16    1
     5    16    10    1
     6    10    11   ar
     7    11    12   ar
     8    12    13   ar
     9    13     4    1
    10     4     5   ar
    11     5     6   ar
    12     6     7   ar
    13     7     1    1
    14     1     2    1
    15     1     3    1
    16     1    21    1
    17    21    22    1
    18    21    32    1
    19    32    33    1
    20    33    34   ar
    21    34    35   ar
    22    35    36   ar
    23    36    37   ar
    24    21    24    1
    25    24    25   ar
    26    25    26   ar
    27    26    27   ar
    28    27    28    1
    29    27    29   ar
    30    29    30   ar
    31    30    31    1
    32     7     8   ar
    33     8     9   ar
    34    13    14   ar
    35    14    15    2
    36    14    10   ar
    37     9     4   ar
    38    37    33   ar
    39    30    24   ar
    40    22    23    1
@<TRIPOS>MOLECULE
*****
 37 40 0 0 0
SMALL
GASTEIGER

@<TRIPOS>ATOM
      1 C           3.9385   -0.4057   21.2971 C.3     1  UNL1        0.3254
      2 F           2.7094   -1.0516   21.8646 F       1  UNL1       -0.1949
      3 F           5.2987    0.1828   21.0661 F       1  UNL1       -0.1949
      4 C           5.0628   -1.3330   25.5546 C.ar    1  UNL1        0.0889
      5 C           3.6276   -1.0874   25.1944 C.ar    1  UNL1        0.0207
      6 C           3.2528   -0.7783   23.7752 C.ar    1  UNL1        0.0217
      7 C           4.3133   -0.7148   22.7163 C.ar    1  UNL1        0.1219
      8 N           5.7485   -0.9604   23.0765 N.ar    1  UNL1       -0.2412
      9 C           6.1233   -1.2695   24.4956 C.ar    1  UNL1        0.1163
     10 N           6.3062   -2.7727   28.9379 N.ar    1  UNL1       -0.2005
     11 N           5.7224   -1.4627   29.3774 N.ar    1  UNL1       -0.1442
     12 C           5.1855   -0.7640   28.1635 C.ar    1  UNL1        0.2073
     13 N           5.4376   -1.6421   26.9738 N.ar    1  UNL1       -0.2382
     14 C           6.1302   -2.8835   27.4524 C.ar    1  UNL1        0.3523
     15 O           6.5696   -4.0339   26.5959 O.2     1  UNL1       -0.2444
     16 C           6.9526   -3.7927   29.8277 C.3     1  UNL1        0.1322
     17 C           8.8609   -2.9132   30.1182 C.3     1  UNL1        0.0020
     18 C           7.7464   -3.3513   31.0214 C.3     1  UNL1        0.0228
     19 C           6.6318   -3.7894   31.9246 C.3     1  UNL1        0.0020
     20 C           8.5402   -2.9099   32.2151 C.3     1  UNL1        0.0020
     21 C           3.5638   -0.0966   19.8779 C.3     1  UNL1        0.1932
     22 O           3.1891    0.2125   18.4587 O.3     1  UNL1       -0.3755
     23 H           2.8857    1.1318   18.3973 H       1  UNL1        0.2110
     24 C           3.9289   -1.4951   19.4769 C.ar    1  UNL1        0.0368
     25 C           2.9798   -2.6248   19.7471 C.ar    1  UNL1        0.0028
     26 C           3.3449   -4.0233   19.3461 C.ar    1  UNL1        0.0295
     27 C           4.6591   -4.2922   18.6749 C.ar    1  UNL1        0.1424
     28 F           5.0242   -5.6908   18.2739 F       1  UNL1       -0.2041
     29 C           5.6082   -3.1626   18.4047 C.ar    1  UNL1        0.0590
     30 C           5.2431   -1.7640   18.8057 C.ar    1  UNL1        0.1408
     31 F           6.1922   -0.6343   18.5355 F       1  UNL1       -0.2043
     32 C           3.1987    1.3019   20.2790 C.3     1  UNL1        0.1679
     33 N           1.7953    1.6181   20.7038 N.ar    1  UNL1       -0.2078
     34 C           1.3926    2.3065   21.9742 C.ar    1  UNL1        0.2216
     35 N          -0.1034    2.4153   21.9884 N.ar    1  UNL1       -0.1048
     36 N          -0.6253    1.7942   20.7266 N.ar    1  UNL1       -0.0226
     37 N           0.5482    1.3015   19.9328 N.ar    1  UNL1       -0.0428
@<TRIPOS>BOND
     1    17    18    1
     2    18    19    1
     3    18    20    1
     4    18    16    1
     5    16    10    1
     6    10    11   ar
     7    11    12   ar
     8    12    13   ar
     9    13     4    1
    10     4     5   ar
    11     5     6   ar
    12     6     7   ar
    13     7     1    1
    14     1     2    1
    15     1     3    1
    16     1    21    1
    17    21    22    1
    18    21    32    1
    19    32    33    1
    20    33    34   ar
    21    34    35   ar
    22    35    36   ar
    23    36    37   ar
    24    21    24    1
    25    24    25   ar
    26    25    26   ar
    27    26    27   ar
    28    27    28    1
    29    27    29   ar
    30    29    30   ar
    31    30    31    1
    32     7     8   ar
    33     8     9   ar
    34    13    14   ar
    35    14    15    2
    36    14    10   ar
    37     9     4   ar
    38    37    33   ar
    39    30    24   ar
    40    22    23    1
