@<TRIPOS>MOLECULE
*****
 35 39 0 0 0
SMALL
GASTEIGER

@<TRIPOS>ATOM
      1 O           9.1107   -2.8324   19.3087 O.2     1  UNL1       -0.2749
      2 C           7.8465   -2.7323   20.1098 C.2     1  UNL1        0.2252
      3 N           7.7876   -3.3094   21.4931 N.am    1  UNL1       -0.2794
      4 C           8.9929   -3.9865   22.0752 C.3     1  UNL1        0.0953
      5 C           8.9340   -4.5635   23.4585 C.3     1  UNL1        0.0442
      6 C           7.6698   -4.4635   24.2597 C.3     1  UNL1        0.0933
      7 C           6.4646   -3.7865   23.6776 C.3     1  UNL1        0.0442
      8 C           6.5235   -3.2094   22.2943 C.3     1  UNL1        0.0953
      9 N           7.6109   -5.0406   25.6430 N.ar    1  UNL1       -0.2817
     10 C           6.9212   -4.4275   26.8255 C.ar    1  UNL1        0.3316
     11 O           6.1692   -3.1296   26.8324 O.2     1  UNL1       -0.2463
     12 N           7.1155   -5.3401   28.0000 N.ar    1  UNL1       -0.2774
     13 C           7.9253   -6.5173   27.5434 C.ar    1  UNL1        0.0798
     14 C           8.4234   -7.7338   28.2658 C.ar    1  UNL1        0.0188
     15 C           9.2277   -8.7652   27.5315 C.ar    1  UNL1        0.0016
     16 C           9.5339   -8.5801   26.0748 C.ar    1  UNL1        0.0016
     17 C           9.0358   -7.3636   25.3524 C.ar    1  UNL1        0.0188
     18 C           8.2315   -6.3322   26.0867 C.ar    1  UNL1        0.0796
     19 C           6.5919   -5.1151   29.3875 C.3     1  UNL1        0.1422
     20 C           7.2747   -5.7552   30.5598 C.3     1  UNL1        0.1617
     21 O           6.4912   -6.0855   31.7955 O.3     1  UNL1       -0.3799
     22 H           6.1858   -5.2652   32.2136 H       1  UNL1        0.2105
     23 C           6.6412   -2.0553   19.5277 C.3     1  UNL1        0.0795
     24 C           6.4088   -0.5943   19.7756 C.3     1  UNL1        0.0264
     25 C           5.2035    0.0828   19.1935 C.3     1  UNL1        0.0729
     26 N           4.2307   -0.7011   18.3634 N.3     1  UNL1       -0.2689
     27 C           4.4631   -2.1622   18.1155 C.3     1  UNL1        0.0729
     28 C           5.6684   -2.8393   18.6976 C.3     1  UNL1        0.0264
     29 C           3.0254   -0.0241   17.7813 C.3     1  UNL1        0.0992
     30 C           1.9220    0.4473   18.6814 C.ar    1  UNL1       -0.0031
     31 C           1.3018    1.7958   18.4646 C.ar    1  UNL1        0.0178
     32 C           0.1984    2.2673   19.3647 C.ar    1  UNL1        0.0986
     33 N          -0.2848    1.3904   20.4816 N.ar    1  UNL1       -0.2423
     34 C           0.3355    0.0419   20.6984 C.ar    1  UNL1        0.0986
     35 C           1.4388   -0.4296   19.7984 C.ar    1  UNL1        0.0178
@<TRIPOS>BOND
     1     1     2    2
     2     2    23    1
     3    23    24    1
     4    24    25    1
     5    25    26    1
     6    26    29    1
     7    29    30    1
     8    30    31   ar
     9    31    32   ar
    10    32    33   ar
    11    33    34   ar
    12    34    35   ar
    13    26    27    1
    14    27    28    1
    15     2     3   am
    16     3     4    1
    17     4     5    1
    18     5     6    1
    19     6     9    1
    20     9    10   ar
    21    10    11    2
    22    10    12   ar
    23    12    19    1
    24    19    20    1
    25    20    21    1
    26    12    13   ar
    27    13    14   ar
    28    14    15   ar
    29    15    16   ar
    30    16    17   ar
    31    17    18   ar
    32     6     7    1
    33     7     8    1
    34    28    23    1
    35     8     3    1
    36    35    30   ar
    37    18     9   ar
    38    18    13   ar
    39    21    22    1
@<TRIPOS>MOLECULE
*****
 35 39 0 0 0
SMALL
GASTEIGER

@<TRIPOS>ATOM
      1 O          -1.1653    5.0321   18.2276 O.2     1  UNL1       -0.2749
      2 C          -1.2784    4.0337   19.3413 C.2     1  UNL1        0.2252
      3 N          -0.2514    2.9496   19.4837 N.am    1  UNL1       -0.2794
      4 C           0.8885    2.8641   18.5125 C.3     1  UNL1        0.0953
      5 C           1.9155    1.7801   18.6550 C.3     1  UNL1        0.0442
      6 C           1.8025    0.7816   19.7687 C.3     1  UNL1        0.0933
      7 C           0.6626    0.8671   20.7398 C.3     1  UNL1        0.0442
      8 C          -0.3644    1.9512   20.5974 C.3     1  UNL1        0.0953
      9 N           2.8295   -0.3024   19.9112 N.ar    1  UNL1       -0.2817
     10 C           3.5629   -0.9752   18.7889 C.ar    1  UNL1        0.3316
     11 O           3.3980   -0.6820   17.3270 O.2     1  UNL1       -0.2463
     12 N           4.4900   -1.9925   19.3851 N.ar    1  UNL1       -0.2774
     13 C           4.3296   -1.9485   20.8758 C.ar    1  UNL1        0.0798
     14 C           4.9855   -2.7246   21.9792 C.ar    1  UNL1        0.0188
     15 C           4.6151   -2.4562   23.4077 C.ar    1  UNL1        0.0016
     16 C           3.5888   -1.4117   23.7328 C.ar    1  UNL1        0.0016
     17 C           2.9329   -0.6356   22.6295 C.ar    1  UNL1        0.0188
     18 C           3.3033   -0.9040   21.2010 C.ar    1  UNL1        0.0796
     19 C           5.4151   -2.8953   18.6241 C.3     1  UNL1        0.1422
     20 C           6.6713   -2.3434   18.0180 C.3     1  UNL1        0.1617
     21 O           6.6070   -1.1406   17.1239 O.3     1  UNL1       -0.3799
     22 H           6.1213   -1.3648   16.3148 H       1  UNL1        0.2105
     23 C          -2.4183    4.1192   20.3125 C.3     1  UNL1        0.0795
     24 C          -3.6030    3.2118   20.1602 C.3     1  UNL1        0.0264
     25 C          -4.7429    3.2973   21.1314 C.3     1  UNL1        0.0729
     26 N          -4.6981    4.2902   22.2549 N.3     1  UNL1       -0.2689
     27 C          -3.5134    5.1976   22.4072 C.3     1  UNL1        0.0729
     28 C          -2.3734    5.1121   21.4360 C.3     1  UNL1        0.0264
     29 C          -5.8381    4.3757   23.2261 C.3     1  UNL1        0.0992
     30 C          -5.5669    4.6162   24.6816 C.ar    1  UNL1       -0.0031
     31 C          -6.3673    5.6370   25.4348 C.ar    1  UNL1        0.0178
     32 C          -6.0962    5.8776   26.8904 C.ar    1  UNL1        0.0986
     33 N          -5.0248    5.0974   27.5926 N.ar    1  UNL1       -0.2423
     34 C          -4.2244    4.0766   26.8394 C.ar    1  UNL1        0.0986
     35 C          -4.4955    3.8360   25.3839 C.ar    1  UNL1        0.0178
@<TRIPOS>BOND
     1     1     2    2
     2     2    23    1
     3    23    24    1
     4    24    25    1
     5    25    26    1
     6    26    29    1
     7    29    30    1
     8    30    31   ar
     9    31    32   ar
    10    32    33   ar
    11    33    34   ar
    12    34    35   ar
    13    26    27    1
    14    27    28    1
    15     2     3   am
    16     3     4    1
    17     4     5    1
    18     5     6    1
    19     6     9    1
    20     9    10   ar
    21    10    11    2
    22    10    12   ar
    23    12    19    1
    24    19    20    1
    25    20    21    1
    26    12    13   ar
    27    13    14   ar
    28    14    15   ar
    29    15    16   ar
    30    16    17   ar
    31    17    18   ar
    32     6     7    1
    33     7     8    1
    34    28    23    1
    35     8     3    1
    36    35    30   ar
    37    18     9   ar
    38    18    13   ar
    39    21    22    1
@<TRIPOS>MOLECULE
*****
 35 39 0 0 0
SMALL
GASTEIGER

@<TRIPOS>ATOM
      1 O           9.1245   -2.8822   19.1604 O.2     1  UNL1       -0.2749
      2 C           7.8786   -2.7887   19.9904 C.2     1  UNL1        0.2252
      3 N           7.8516   -3.3742   21.3711 N.am    1  UNL1       -0.2794
      4 C           9.0705   -4.0533   21.9217 C.3     1  UNL1        0.0953
      5 C           9.0435   -4.6389   23.3025 C.3     1  UNL1        0.0442
      6 C           7.7976   -4.5454   24.1326 C.3     1  UNL1        0.0933
      7 C           6.5788   -3.8663   23.5820 C.3     1  UNL1        0.0442
      8 C           6.6058   -3.2807   22.2012 C.3     1  UNL1        0.0953
      9 N           7.7706   -5.1309   25.5133 N.ar    1  UNL1       -0.2817
     10 C           8.1747   -6.5262   25.8873 C.ar    1  UNL1        0.3316
     11 O           8.6766   -7.5810   24.9462 O.2     1  UNL1       -0.2463
     12 N           7.9886   -6.6816   27.3676 N.ar    1  UNL1       -0.2774
     13 C           7.4696   -5.3823   27.9085 C.ar    1  UNL1        0.0798
     14 C           7.1023   -4.9481   29.2964 C.ar    1  UNL1        0.0188
     15 C           6.6003   -3.5555   29.5384 C.ar    1  UNL1        0.0016
     16 C           6.4655   -2.5971   28.3924 C.ar    1  UNL1        0.0016
     17 C           6.8328   -3.0313   27.0044 C.ar    1  UNL1        0.0188
     18 C           7.3349   -4.4239   26.7625 C.ar    1  UNL1        0.0796
     19 C           8.2718   -7.9190   28.1667 C.3     1  UNL1        0.1422
     20 C           8.2440   -9.2636   27.5024 C.3     1  UNL1        0.1617
     21 O           7.0198  -10.1245   27.6027 O.3     1  UNL1       -0.3799
     22 H           6.8903  -10.3964   28.5247 H       1  UNL1        0.2105
     23 C           6.6597   -2.1096   19.4398 C.3     1  UNL1        0.0795
     24 C           5.6227   -2.9083   18.7072 C.3     1  UNL1        0.0264
     25 C           4.4038   -2.2293   18.1566 C.3     1  UNL1        0.0729
     26 N           4.2219   -0.7515   18.3386 N.3     1  UNL1       -0.2689
     27 C           5.2590    0.0473   19.0712 C.3     1  UNL1        0.0729
     28 C           6.4779   -0.6318   19.6218 C.3     1  UNL1        0.0264
     29 C           3.0031   -0.0724   17.7879 C.3     1  UNL1        0.0992
     30 C           1.9172    0.3872   18.7151 C.ar    1  UNL1       -0.0031
     31 C           1.4692   -0.4963   19.8415 C.ar    1  UNL1        0.0178
     32 C           0.3834   -0.0368   20.7688 C.ar    1  UNL1        0.0986
     33 N          -0.2545    1.3061   20.5696 N.ar    1  UNL1       -0.2423
     34 C           0.1935    2.1896   19.4432 C.ar    1  UNL1        0.0986
     35 C           1.2794    1.7301   18.5159 C.ar    1  UNL1        0.0178
@<TRIPOS>BOND
     1     1     2    2
     2     2    23    1
     3    23    24    1
     4    24    25    1
     5    25    26    1
     6    26    29    1
     7    29    30    1
     8    30    31   ar
     9    31    32   ar
    10    32    33   ar
    11    33    34   ar
    12    34    35   ar
    13    26    27    1
    14    27    28    1
    15     2     3   am
    16     3     4    1
    17     4     5    1
    18     5     6    1
    19     6     9    1
    20     9    10   ar
    21    10    11    2
    22    10    12   ar
    23    12    19    1
    24    19    20    1
    25    20    21    1
    26    12    13   ar
    27    13    14   ar
    28    14    15   ar
    29    15    16   ar
    30    16    17   ar
    31    17    18   ar
    32     6     7    1
    33     7     8    1
    34    28    23    1
    35     8     3    1
    36    35    30   ar
    37    18     9   ar
    38    18    13   ar
    39    21    22    1
@<TRIPOS>MOLECULE
*****
 35 39 0 0 0
SMALL
GASTEIGER

@<TRIPOS>ATOM
      1 O           8.3818   -6.5538   23.1383 O.2     1  UNL1       -0.2749
      2 C           7.8198   -5.2877   23.7135 C.2     1  UNL1        0.2252
      3 N           7.2526   -4.2380   22.8043 N.am    1  UNL1       -0.2794
      4 C           7.2475   -4.4546   21.3200 C.3     1  UNL1        0.0953
      5 C           6.6803   -3.4049   20.4109 C.3     1  UNL1        0.0442
      6 C           6.1182   -2.1386   20.9860 C.3     1  UNL1        0.0933
      7 C           6.1234   -1.9222   22.4703 C.3     1  UNL1        0.0442
      8 C           6.6905   -2.9718   23.3794 C.3     1  UNL1        0.0953
      9 N           5.5511   -1.0890   20.0769 N.ar    1  UNL1       -0.2817
     10 C           6.3392   -0.1717   19.1896 C.ar    1  UNL1        0.3316
     11 O           7.8330   -0.1430   19.0556 O.2     1  UNL1       -0.2463
     12 N           5.3714    0.7118   18.4598 N.ar    1  UNL1       -0.2774
     13 C           3.9851    0.3406   18.8960 C.ar    1  UNL1        0.0798
     14 C           2.6360    0.8723   18.5123 C.ar    1  UNL1        0.0188
     15 C           1.3979    0.2909   19.1281 C.ar    1  UNL1        0.0016
     16 C           1.5090   -0.8221   20.1276 C.ar    1  UNL1        0.0016
     17 C           2.8581   -1.3537   20.5113 C.ar    1  UNL1        0.0188
     18 C           4.0961   -0.7724   19.8955 C.ar    1  UNL1        0.0796
     19 C           5.7274    1.7792   17.4678 C.3     1  UNL1        0.1422
     20 C           6.5140    1.4293   16.2394 C.3     1  UNL1        0.1617
     21 O           7.9864    1.1619   16.3426 O.3     1  UNL1       -0.3799
     22 H           8.4454    1.9759   16.6029 H       1  UNL1        0.2105
     23 C           7.8249   -5.0711   25.1977 C.3     1  UNL1        0.0795
     24 C           6.7614   -5.6969   26.0506 C.3     1  UNL1        0.0264
     25 C           6.7665   -5.4804   27.5349 C.3     1  UNL1        0.0729
     26 N           7.8350   -4.6380   28.1663 N.3     1  UNL1       -0.2689
     27 C           8.8986   -4.0122   27.3133 C.3     1  UNL1        0.0729
     28 C           8.8935   -4.2287   25.8290 C.3     1  UNL1        0.0264
     29 C           7.8401   -4.4215   29.6505 C.3     1  UNL1        0.0992
     30 C           6.8793   -3.4505   30.2702 C.ar    1  UNL1       -0.0031
     31 C           6.3174   -2.3259   29.4519 C.ar    1  UNL1        0.0178
     32 C           5.3566   -1.3549   30.0715 C.ar    1  UNL1        0.0986
     33 N           4.9576   -1.5085   31.5093 N.ar    1  UNL1       -0.2423
     34 C           5.5195   -2.6331   32.3275 C.ar    1  UNL1        0.0986
     35 C           6.4804   -3.6041   31.7079 C.ar    1  UNL1        0.0178
@<TRIPOS>BOND
     1     1     2    2
     2     2    23    1
     3    23    24    1
     4    24    25    1
     5    25    26    1
     6    26    29    1
     7    29    30    1
     8    30    31   ar
     9    31    32   ar
    10    32    33   ar
    11    33    34   ar
    12    34    35   ar
    13    26    27    1
    14    27    28    1
    15     2     3   am
    16     3     4    1
    17     4     5    1
    18     5     6    1
    19     6     9    1
    20     9    10   ar
    21    10    11    2
    22    10    12   ar
    23    12    19    1
    24    19    20    1
    25    20    21    1
    26    12    13   ar
    27    13    14   ar
    28    14    15   ar
    29    15    16   ar
    30    16    17   ar
    31    17    18   ar
    32     6     7    1
    33     7     8    1
    34    28    23    1
    35     8     3    1
    36    35    30   ar
    37    18     9   ar
    38    18    13   ar
    39    21    22    1
@<TRIPOS>MOLECULE
*****
 35 39 0 0 0
SMALL
GASTEIGER

@<TRIPOS>ATOM
      1 O         -10.2143   -4.9210   19.2401 O.2     1  UNL1       -0.2749
      2 C         -11.6434   -4.7238   18.8296 C.2     1  UNL1        0.2252
      3 N         -12.1846   -3.3379   18.6391 N.am    1  UNL1       -0.2794
      4 C         -11.2966   -2.1492   18.8592 C.3     1  UNL1        0.0953
      5 C         -11.8377   -0.7632   18.6687 C.3     1  UNL1        0.0442
      6 C         -13.2669   -0.5659   18.2581 C.3     1  UNL1        0.0933
      7 C         -14.1549   -1.7546   18.0381 C.3     1  UNL1        0.0442
      8 C         -13.6137   -3.1406   18.2285 C.3     1  UNL1        0.0953
      9 N         -13.8081    0.8200   18.0676 N.ar    1  UNL1       -0.2817
     10 C         -13.2333    1.8753   17.1699 C.ar    1  UNL1        0.3316
     11 O         -12.0164    1.7299   16.3049 O.2     1  UNL1       -0.2463
     12 N         -14.0890    3.1015   17.2889 N.ar    1  UNL1       -0.2774
     13 C         -15.1927    2.8040   18.2603 C.ar    1  UNL1        0.0798
     14 C         -16.3333    3.6350   18.7686 C.ar    1  UNL1        0.0188
     15 C         -17.3003    3.0559   19.7583 C.ar    1  UNL1        0.0016
     16 C         -17.1266    1.6458   20.2396 C.ar    1  UNL1        0.0016
     17 C         -15.9860    0.8149   19.7312 C.ar    1  UNL1        0.0188
     18 C         -15.0190    1.3940   18.7415 C.ar    1  UNL1        0.0796
     19 C         -13.8781    4.3976   16.5639 C.3     1  UNL1        0.1422
     20 C         -12.7369    5.2933   16.9454 C.3     1  UNL1        0.1617
     21 O         -11.4668    4.7026   17.4820 O.3     1  UNL1       -0.3799
     22 H         -11.6411    4.2870   18.3410 H       1  UNL1        0.2105
     23 C         -12.5314   -5.9125   18.6095 C.3     1  UNL1        0.0795
     24 C         -12.2615   -6.8496   17.4697 C.3     1  UNL1        0.0264
     25 C         -13.1495   -8.0382   17.2497 C.3     1  UNL1        0.0729
     26 N         -14.3075   -8.2899   18.1693 N.3     1  UNL1       -0.2689
     27 C         -14.5774   -7.3528   19.3092 C.3     1  UNL1        0.0729
     28 C         -13.6894   -6.1641   19.5292 C.3     1  UNL1        0.0264
     29 C         -15.1955   -9.4786   17.9492 C.3     1  UNL1        0.0992
     30 C         -16.6744   -9.2898   17.7849 C.ar    1  UNL1       -0.0031
     31 C         -17.6286  -10.2680   18.4034 C.ar    1  UNL1        0.0178
     32 C         -19.1076  -10.0793   18.2391 C.ar    1  UNL1        0.0986
     33 N         -19.6323   -8.9123   17.4562 N.ar    1  UNL1       -0.2423
     34 C         -18.6781   -7.9341   16.8377 C.ar    1  UNL1        0.0986
     35 C         -17.1992   -8.1228   17.0020 C.ar    1  UNL1        0.0178
@<TRIPOS>BOND
     1     1     2    2
     2     2    23    1
     3    23    24    1
     4    24    25    1
     5    25    26    1
     6    26    29    1
     7    29    30    1
     8    30    31   ar
     9    31    32   ar
    10    32    33   ar
    11    33    34   ar
    12    34    35   ar
    13    26    27    1
    14    27    28    1
    15     2     3   am
    16     3     4    1
    17     4     5    1
    18     5     6    1
    19     6     9    1
    20     9    10   ar
    21    10    11    2
    22    10    12   ar
    23    12    19    1
    24    19    20    1
    25    20    21    1
    26    12    13   ar
    27    13    14   ar
    28    14    15   ar
    29    15    16   ar
    30    16    17   ar
    31    17    18   ar
    32     6     7    1
    33     7     8    1
    34    28    23    1
    35     8     3    1
    36    35    30   ar
    37    18     9   ar
    38    18    13   ar
    39    21    22    1
@<TRIPOS>MOLECULE
*****
 35 39 0 0 0
SMALL
GASTEIGER

@<TRIPOS>ATOM
      1 O          -4.5346    5.3349   17.2667 O.2     1  UNL1       -0.2749
      2 C          -3.9263    4.8117   18.5340 C.2     1  UNL1        0.2252
      3 N          -2.5488    4.2183   18.5156 N.am    1  UNL1       -0.2794
      4 C          -1.7796    4.1482   17.2297 C.3     1  UNL1        0.0953
      5 C          -0.4021    3.5549   17.2112 C.3     1  UNL1        0.0442
      6 C           0.2063    3.0316   18.4787 C.3     1  UNL1        0.0933
      7 C          -0.5630    3.1018   19.7644 C.3     1  UNL1        0.0442
      8 C          -1.9405    3.6951   19.7829 C.3     1  UNL1        0.0953
      9 N           1.5838    2.4382   18.4602 N.ar    1  UNL1       -0.2817
     10 C           1.9271    0.9987   18.7047 C.ar    1  UNL1        0.3316
     11 O           0.9531   -0.1003   19.0107 O.2     1  UNL1       -0.2463
     12 N           3.4153    0.8511   18.5896 N.ar    1  UNL1       -0.2774
     13 C           3.9919    2.1994   18.2739 C.ar    1  UNL1        0.0798
     14 C           5.4013    2.6606   18.0489 C.ar    1  UNL1        0.0188
     15 C           5.6788    4.1028   17.7440 C.ar    1  UNL1        0.0016
     16 C           4.5468    5.0838   17.6640 C.ar    1  UNL1        0.0016
     17 C           3.1374    4.6225   17.8890 C.ar    1  UNL1        0.0188
     18 C           2.8599    3.1803   18.1939 C.ar    1  UNL1        0.0796
     19 C           4.1910   -0.4215   18.7602 C.3     1  UNL1        0.1422
     20 C           4.0809   -1.5102   17.7341 C.3     1  UNL1        0.1617
     21 O           3.6916   -1.1758   16.3246 O.3     1  UNL1       -0.3799
     22 H           2.7792   -0.8467   16.3106 H       1  UNL1        0.2105
     23 C          -4.6956    4.8818   19.8199 C.3     1  UNL1        0.0795
     24 C          -5.5715    3.7365   20.2332 C.3     1  UNL1        0.0264
     25 C          -6.3408    3.8066   21.5190 C.3     1  UNL1        0.0729
     26 N          -6.2340    5.0221   22.3915 N.3     1  UNL1       -0.2689
     27 C          -5.3580    6.1675   21.9782 C.3     1  UNL1        0.0729
     28 C          -4.5888    6.0974   20.6923 C.3     1  UNL1        0.0264
     29 C          -7.0032    5.0922   23.6773 C.3     1  UNL1        0.0992
     30 C          -6.2753    5.0757   24.9887 C.ar    1  UNL1       -0.0031
     31 C          -5.1542    4.1044   25.2119 C.ar    1  UNL1        0.0178
     32 C          -4.4262    4.0878   26.5232 C.ar    1  UNL1        0.0986
     33 N          -4.8192    5.0424   27.6114 N.ar    1  UNL1       -0.2423
     34 C          -5.9403    6.0137   27.3882 C.ar    1  UNL1        0.0986
     35 C          -6.6684    6.0303   26.0769 C.ar    1  UNL1        0.0178
@<TRIPOS>BOND
     1     1     2    2
     2     2    23    1
     3    23    24    1
     4    24    25    1
     5    25    26    1
     6    26    29    1
     7    29    30    1
     8    30    31   ar
     9    31    32   ar
    10    32    33   ar
    11    33    34   ar
    12    34    35   ar
    13    26    27    1
    14    27    28    1
    15     2     3   am
    16     3     4    1
    17     4     5    1
    18     5     6    1
    19     6     9    1
    20     9    10   ar
    21    10    11    2
    22    10    12   ar
    23    12    19    1
    24    19    20    1
    25    20    21    1
    26    12    13   ar
    27    13    14   ar
    28    14    15   ar
    29    15    16   ar
    30    16    17   ar
    31    17    18   ar
    32     6     7    1
    33     7     8    1
    34    28    23    1
    35     8     3    1
    36    35    30   ar
    37    18     9   ar
    38    18    13   ar
    39    21    22    1
@<TRIPOS>MOLECULE
*****
 35 39 0 0 0
SMALL
GASTEIGER

@<TRIPOS>ATOM
      1 O           2.0582    4.6831   17.6451 O.2     1  UNL1       -0.2749
      2 C           1.7844    3.5962   18.6419 C.2     1  UNL1        0.2252
      3 N           0.5511    3.6531   19.4937 N.am    1  UNL1       -0.2794
      4 C          -0.4084    4.7970   19.3486 C.3     1  UNL1        0.0953
      5 C          -1.6418    4.8540   20.2004 C.3     1  UNL1        0.0442
      6 C          -1.9157    3.7670   21.1974 C.3     1  UNL1        0.0933
      7 C          -0.9562    2.6233   21.3423 C.3     1  UNL1        0.0442
      8 C           0.2772    2.5663   20.4905 C.3     1  UNL1        0.0953
      9 N          -3.1490    3.8240   22.0492 N.ar    1  UNL1       -0.2817
     10 C          -4.5615    3.9066   21.5511 C.ar    1  UNL1        0.3316
     11 O          -4.9886    3.9466   20.1137 O.2     1  UNL1       -0.2463
     12 N          -5.4718    3.9420   22.7427 N.ar    1  UNL1       -0.2774
     13 C          -4.6220    3.8813   23.9773 C.ar    1  UNL1        0.0798
     14 C          -4.9699    3.8831   25.4363 C.ar    1  UNL1        0.0188
     15 C          -3.8822    3.8119   26.4668 C.ar    1  UNL1        0.0016
     16 C          -2.4466    3.7390   26.0381 C.ar    1  UNL1        0.0016
     17 C          -2.0987    3.7372   24.5790 C.ar    1  UNL1        0.0188
     18 C          -3.1864    3.8084   23.5486 C.ar    1  UNL1        0.0796
     19 C          -6.9692    4.0237   22.7063 C.3     1  UNL1        0.1422
     20 C          -7.6739    5.1725   23.3651 C.3     1  UNL1        0.1617
     21 O          -8.9549    4.9389   24.1098 O.3     1  UNL1       -0.3799
     22 H          -9.6447    4.6608   23.4871 H       1  UNL1        0.2105
     23 C           2.7439    2.4523   18.7869 C.3     1  UNL1        0.0795
     24 C           2.4010    1.1087   18.2151 C.3     1  UNL1        0.0264
     25 C           3.3605   -0.0351   18.3601 C.3     1  UNL1        0.0729
     26 N           4.6629    0.1647   19.0770 N.3     1  UNL1       -0.2689
     27 C           5.0058    1.5084   19.6488 C.3     1  UNL1        0.0729
     28 C           4.0463    2.6523   19.5038 C.3     1  UNL1        0.0264
     29 C           5.6223   -0.9791   19.2220 C.3     1  UNL1        0.0992
     30 C           5.1175   -2.3367   19.6118 C.ar    1  UNL1       -0.0031
     31 C           4.9441   -3.4004   18.5684 C.ar    1  UNL1        0.0178
     32 C           4.4393   -4.7580   18.9581 C.ar    1  UNL1        0.0986
     33 N           4.1079   -5.0521   20.3912 N.ar    1  UNL1       -0.2423
     34 C           4.2814   -3.9885   21.4346 C.ar    1  UNL1        0.0986
     35 C           4.7862   -2.6308   21.0449 C.ar    1  UNL1        0.0178
@<TRIPOS>BOND
     1     1     2    2
     2     2    23    1
     3    23    24    1
     4    24    25    1
     5    25    26    1
     6    26    29    1
     7    29    30    1
     8    30    31   ar
     9    31    32   ar
    10    32    33   ar
    11    33    34   ar
    12    34    35   ar
    13    26    27    1
    14    27    28    1
    15     2     3   am
    16     3     4    1
    17     4     5    1
    18     5     6    1
    19     6     9    1
    20     9    10   ar
    21    10    11    2
    22    10    12   ar
    23    12    19    1
    24    19    20    1
    25    20    21    1
    26    12    13   ar
    27    13    14   ar
    28    14    15   ar
    29    15    16   ar
    30    16    17   ar
    31    17    18   ar
    32     6     7    1
    33     7     8    1
    34    28    23    1
    35     8     3    1
    36    35    30   ar
    37    18     9   ar
    38    18    13   ar
    39    21    22    1
@<TRIPOS>MOLECULE
*****
 35 39 0 0 0
SMALL
GASTEIGER

@<TRIPOS>ATOM
      1 O           7.4607   -5.0438   20.9368 O.2     1  UNL1       -0.2749
      2 C           6.6599   -3.9364   21.5551 C.2     1  UNL1        0.2252
      3 N           6.7497   -3.6793   23.0302 N.am    1  UNL1       -0.2794
      4 C           7.6403   -4.5296   23.8868 C.3     1  UNL1        0.0953
      5 C           7.7301   -4.2725   25.3619 C.3     1  UNL1        0.0442
      6 C           6.9292   -3.1651   25.9804 C.3     1  UNL1        0.0933
      7 C           6.0387   -2.3149   25.1237 C.3     1  UNL1        0.0442
      8 C           5.9489   -2.5720   23.6486 C.3     1  UNL1        0.0953
      9 N           7.0190   -2.9080   27.4554 N.ar    1  UNL1       -0.2817
     10 C           6.5523   -3.8315   28.5414 C.ar    1  UNL1        0.3316
     11 O           5.9139   -5.1743   28.3429 O.2     1  UNL1       -0.2463
     12 N           6.8362   -3.1765   29.8606 N.ar    1  UNL1       -0.2774
     13 C           7.4783   -1.8482   29.5900 C.ar    1  UNL1        0.0798
     14 C           7.9747   -0.7683   30.5051 C.ar    1  UNL1        0.0188
     15 C           8.5841    0.4775   29.9337 C.ar    1  UNL1        0.0016
     16 C           8.6971    0.6434   28.4472 C.ar    1  UNL1        0.0016
     17 C           8.2007   -0.4364   27.5321 C.ar    1  UNL1        0.0188
     18 C           7.5913   -1.6822   28.1035 C.ar    1  UNL1        0.0796
     19 C           6.5314   -3.7493   31.2131 C.3     1  UNL1        0.1422
     20 C           7.2978   -4.9373   31.7145 C.3     1  UNL1        0.1617
     21 O           6.5700   -6.1908   32.1006 O.3     1  UNL1       -0.3799
     22 H           6.0149   -6.0163   32.8767 H       1  UNL1        0.2105
     23 C           5.7693   -3.0861   20.6985 C.3     1  UNL1        0.0795
     24 C           6.2626   -1.7674   20.1813 C.3     1  UNL1        0.0264
     25 C           5.3720   -0.9171   19.3246 C.3     1  UNL1        0.0729
     26 N           3.9880   -1.3856   18.9852 N.3     1  UNL1       -0.2689
     27 C           3.4947   -2.7044   19.5024 C.3     1  UNL1        0.0729
     28 C           4.3853   -3.5547   20.3590 C.3     1  UNL1        0.0264
     29 C           3.0974   -0.5353   18.1285 C.3     1  UNL1        0.0992
     30 C           2.1548    0.4422   18.7655 C.ar    1  UNL1       -0.0031
     31 C           1.0825   -0.0460   19.6938 C.ar    1  UNL1        0.0178
     32 C           0.1398    0.9315   20.3308 C.ar    1  UNL1        0.0986
     33 N           0.2694    2.3972   20.0395 N.ar    1  UNL1       -0.2423
     34 C           1.3417    2.8854   19.1111 C.ar    1  UNL1        0.0986
     35 C           2.2844    1.9079   18.4741 C.ar    1  UNL1        0.0178
@<TRIPOS>BOND
     1     1     2    2
     2     2    23    1
     3    23    24    1
     4    24    25    1
     5    25    26    1
     6    26    29    1
     7    29    30    1
     8    30    31   ar
     9    31    32   ar
    10    32    33   ar
    11    33    34   ar
    12    34    35   ar
    13    26    27    1
    14    27    28    1
    15     2     3   am
    16     3     4    1
    17     4     5    1
    18     5     6    1
    19     6     9    1
    20     9    10   ar
    21    10    11    2
    22    10    12   ar
    23    12    19    1
    24    19    20    1
    25    20    21    1
    26    12    13   ar
    27    13    14   ar
    28    14    15   ar
    29    15    16   ar
    30    16    17   ar
    31    17    18   ar
    32     6     7    1
    33     7     8    1
    34    28    23    1
    35     8     3    1
    36    35    30   ar
    37    18     9   ar
    38    18    13   ar
    39    21    22    1
@<TRIPOS>MOLECULE
*****
 35 39 0 0 0
SMALL
GASTEIGER

@<TRIPOS>ATOM
      1 O           5.3942   -2.8327   18.0209 O.2     1  UNL1       -0.2749
      2 C           5.1232   -2.0814   19.2905 C.2     1  UNL1        0.2252
      3 N           4.1772   -0.9173   19.2857 N.am    1  UNL1       -0.2794
      4 C           3.5023   -0.5046   18.0113 C.3     1  UNL1        0.0953
      5 C           2.5563    0.6595   18.0065 C.3     1  UNL1        0.0442
      6 C           2.2853    1.4110   19.2762 C.3     1  UNL1        0.0933
      7 C           2.9602    0.9982   20.5505 C.3     1  UNL1        0.0442
      8 C           3.9062   -0.1659   20.5553 C.3     1  UNL1        0.0953
      9 N           1.3393    2.5751   19.2714 N.ar    1  UNL1       -0.2817
     10 C           0.0053    2.6299   19.9551 C.ar    1  UNL1        0.3316
     11 O          -0.6169    1.5304   20.7636 O.2     1  UNL1       -0.2463
     12 N          -0.5971    3.9774   19.6883 N.ar    1  UNL1       -0.2774
     13 C           0.3645    4.7554   18.8397 C.ar    1  UNL1        0.0798
     14 C           0.3049    6.1410   18.2683 C.ar    1  UNL1        0.0188
     15 C           1.4422    6.6598   17.4393 C.ar    1  UNL1        0.0016
     16 C           2.6390    5.7931   17.1816 C.ar    1  UNL1        0.0016
     17 C           2.6986    4.4075   17.7530 C.ar    1  UNL1        0.0188
     18 C           1.5613    3.8886   18.5820 C.ar    1  UNL1        0.0796
     19 C          -1.9277    4.4620   20.1832 C.3     1  UNL1        0.1422
     20 C          -3.1747    3.6961   19.8537 C.3     1  UNL1        0.1617
     21 O          -3.5939    2.5401   20.7127 O.3     1  UNL1       -0.3799
     22 H          -2.9406    1.8271   20.6365 H       1  UNL1        0.2105
     23 C           5.7982   -2.4941   20.5649 C.3     1  UNL1        0.0795
     24 C           5.1174   -3.4508   21.4983 C.3     1  UNL1        0.0264
     25 C           5.7924   -3.8634   22.7727 C.3     1  UNL1        0.0729
     26 N           7.1481   -3.3194   23.1137 N.3     1  UNL1       -0.2689
     27 C           7.8288   -2.3627   22.1802 C.3     1  UNL1        0.0729
     28 C           7.1539   -1.9500   20.9058 C.3     1  UNL1        0.0264
     29 C           7.8230   -3.7321   24.3881 C.3     1  UNL1        0.0992
     30 C           7.7307   -5.1530   24.8596 C.ar    1  UNL1       -0.0031
     31 C           6.9694   -5.4803   26.1100 C.ar    1  UNL1        0.0178
     32 C           6.8771   -6.9012   26.5816 C.ar    1  UNL1        0.0986
     33 N           7.5460   -7.9949   25.8029 N.ar    1  UNL1       -0.2423
     34 C           8.3074   -7.6676   24.5526 C.ar    1  UNL1        0.0986
     35 C           8.3997   -6.2467   24.0810 C.ar    1  UNL1        0.0178
@<TRIPOS>BOND
     1     1     2    2
     2     2    23    1
     3    23    24    1
     4    24    25    1
     5    25    26    1
     6    26    29    1
     7    29    30    1
     8    30    31   ar
     9    31    32   ar
    10    32    33   ar
    11    33    34   ar
    12    34    35   ar
    13    26    27    1
    14    27    28    1
    15     2     3   am
    16     3     4    1
    17     4     5    1
    18     5     6    1
    19     6     9    1
    20     9    10   ar
    21    10    11    2
    22    10    12   ar
    23    12    19    1
    24    19    20    1
    25    20    21    1
    26    12    13   ar
    27    13    14   ar
    28    14    15   ar
    29    15    16   ar
    30    16    17   ar
    31    17    18   ar
    32     6     7    1
    33     7     8    1
    34    28    23    1
    35     8     3    1
    36    35    30   ar
    37    18     9   ar
    38    18    13   ar
    39    21    22    1
