@<TRIPOS>MOLECULE
*****
 34 39 0 0 0
SMALL
GASTEIGER

@<TRIPOS>ATOM
      1 O           8.8448   -6.3606   22.3868 O.2     1  UNL1       -0.2681
      2 C           8.0845   -5.1295   22.7821 C.2     1  UNL1        0.2698
      3 N           7.8974   -4.7971   24.2328 N.am    1  UNL1       -0.2647
      4 C           7.1370   -3.5660   24.6282 C.3     1  UNL1        0.1157
      5 C           6.9499   -3.2336   26.0788 C.3     1  UNL1        0.1149
      6 N           7.5231   -4.1323   27.1342 N.am    1  UNL1       -0.2756
      7 C           8.2834   -5.3634   26.7389 C.2     1  UNL1        0.2460
      8 O           8.8566   -6.2622   27.7942 O.2     1  UNL1       -0.2730
      9 C           8.4706   -5.6959   25.2881 C.3     1  UNL1        0.1796
     10 C           7.5113   -4.2308   21.7268 C.ar    1  UNL1        0.1665
     11 N           6.1988   -4.4198   21.0255 N.ar    1  UNL1       -0.1596
     12 N           6.0263   -3.2911   20.0527 N.ar    1  UNL1       -0.2247
     13 C           4.9270   -2.9561   19.0888 C.ar    1  UNL1        0.1538
     14 C           5.0335   -1.7345   18.2249 C.ar    1  UNL1        0.0189
     15 C           6.2393   -0.8479   18.3249 C.ar    1  UNL1       -0.0195
     16 C           7.3386   -1.1830   19.2888 C.ar    1  UNL1        0.0158
     17 C           7.2321   -2.4045   20.1527 C.ar    1  UNL1        0.0946
     18 C           8.1499   -2.9853   21.1874 C.ar    1  UNL1        0.0990
     19 CL          9.4738   -2.4199   21.6086 Cl      1  UNL1       -0.0789
     20 C           3.7211   -3.8426   18.9887 C.3     1  UNL1        0.4349
     21 F           2.5153   -4.7291   18.8887 F       1  UNL1       -0.1644
     22 F           4.5503   -4.8941   18.3128 F       1  UNL1       -0.1644
     23 F           2.8920   -2.7911   19.6647 F       1  UNL1       -0.1644
     24 C           6.3458    0.3737   17.4609 C.3     1  UNL1        0.0224
     25 C           6.6175    1.0007   16.1256 C.3     1  UNL1        0.0047
     26 C           6.2587    1.8624   17.2998 C.3     1  UNL1        0.0047
     27 C           7.3360   -3.7999   28.5849 C.3     1  UNL1        0.1022
     28 C           7.6932   -2.5012   29.2449 C.3     1  UNL1        0.0224
     29 C           7.3368   -2.6064   30.6983 C.3     1  UNL1        0.0042
     30 C           6.8860   -3.0004   32.0736 C.3     1  UNL1        0.0026
     31 C           6.7593   -3.9702   30.9363 C.3     1  UNL1        0.0286
     32 C           6.7588   -4.7078   29.6302 C.3     1  UNL1        0.1285
     33 O           6.2675   -6.1075   29.4082 O.3     1  UNL1       -0.3828
     34 H           6.3789   -6.3450   28.4744 H       1  UNL1        0.2104
@<TRIPOS>BOND
     1     1     2    2
     2     2    10    1
     3    10    11   ar
     4    11    12   ar
     5    12    13   ar
     6    13    20    1
     7    20    21    1
     8    20    22    1
     9    20    23    1
    10    13    14   ar
    11    14    15   ar
    12    15    24    1
    13    24    25    1
    14    25    26    1
    15    15    16   ar
    16    16    17   ar
    17    17    18   ar
    18    18    19    1
    19     2     3   am
    20     3     4    1
    21     4     5    1
    22     5     6    1
    23    27     6    1
    24    27    28    1
    25    29    28    1
    26    29    30    1
    27    31    30    1
    28    31    32    1
    29    32    33    1
    30     6     7   am
    31     7     8    2
    32     7     9    1
    33    18    10   ar
    34     9     3    1
    35    17    12   ar
    36    32    27    1
    37    26    24    1
    38    31    29    1
    39    33    34    1
@<TRIPOS>MOLECULE
*****
 34 39 0 0 0
SMALL
GASTEIGER

@<TRIPOS>ATOM
      1 O           4.7400   -2.4515   31.9742 O.2     1  UNL1       -0.2681
      2 C           4.0386   -1.1256   31.9633 C.2     1  UNL1        0.2698
      3 N           4.0215   -0.2761   33.1994 N.am    1  UNL1       -0.2647
      4 C           3.3201    1.0498   33.1886 C.3     1  UNL1        0.1157
      5 C           3.3031    1.8994   34.4247 C.3     1  UNL1        0.1149
      6 N           3.9875    1.4231   35.6716 N.am    1  UNL1       -0.2756
      7 C           4.6889    0.0973   35.6824 C.2     1  UNL1        0.2460
      8 O           5.3732   -0.3790   36.9294 O.2     1  UNL1       -0.2730
      9 C           4.7059   -0.7524   34.4463 C.3     1  UNL1        0.1796
     10 C           3.3542   -0.6494   30.7164 C.ar    1  UNL1        0.1665
     11 N           1.8761   -0.4682   30.5362 N.ar    1  UNL1       -0.1596
     12 N           1.6361    0.0225   29.1392 N.ar    1  UNL1       -0.2247
     13 C           0.3786    0.3739   28.4010 C.ar    1  UNL1        0.1538
     14 C           0.4508    0.8474   26.9795 C.ar    1  UNL1        0.0189
     15 C           1.7806    0.9695   26.2963 C.ar    1  UNL1       -0.0195
     16 C           3.0381    0.6181   27.0346 C.ar    1  UNL1        0.0158
     17 C           2.9659    0.1446   28.4560 C.ar    1  UNL1        0.0946
     18 C           4.0277   -0.2706   29.4308 C.ar    1  UNL1        0.0990
     19 CL          5.5039   -0.3017   29.1663 Cl      1  UNL1       -0.0789
     20 C          -0.9512    0.2518   29.0842 C.3     1  UNL1        0.4349
     21 F          -2.2810    0.1297   29.7674 F       1  UNL1       -0.1644
     22 F          -0.6020    1.4102   29.9709 F       1  UNL1       -0.1644
     23 F          -1.3004   -0.9066   28.1975 F       1  UNL1       -0.1644
     24 C           1.8528    1.4431   24.8748 C.3     1  UNL1        0.0224
     25 C           1.6624    1.1872   23.4091 C.3     1  UNL1        0.0047
     26 C           2.1681    2.5191   23.8784 C.3     1  UNL1        0.0047
     27 C           3.9704    2.2727   36.9077 C.3     1  UNL1        0.1022
     28 C           4.4371    3.6949   37.0065 C.3     1  UNL1        0.0224
     29 C           4.2388    4.1505   38.4219 C.3     1  UNL1        0.0042
     30 C           3.9294    4.3160   39.8803 C.3     1  UNL1        0.0026
     31 C           3.6496    3.0099   39.1977 C.3     1  UNL1        0.0286
     32 C           3.4837    1.8494   38.2619 C.3     1  UNL1        0.1285
     33 O           2.9286    0.5022   38.6178 O.3     1  UNL1       -0.3828
     34 H           2.9298   -0.0660   37.8316 H       1  UNL1        0.2104
@<TRIPOS>BOND
     1     1     2    2
     2     2    10    1
     3    10    11   ar
     4    11    12   ar
     5    12    13   ar
     6    13    20    1
     7    20    21    1
     8    20    22    1
     9    20    23    1
    10    13    14   ar
    11    14    15   ar
    12    15    24    1
    13    24    25    1
    14    25    26    1
    15    15    16   ar
    16    16    17   ar
    17    17    18   ar
    18    18    19    1
    19     2     3   am
    20     3     4    1
    21     4     5    1
    22     5     6    1
    23    27     6    1
    24    27    28    1
    25    29    28    1
    26    29    30    1
    27    31    30    1
    28    31    32    1
    29    32    33    1
    30     6     7   am
    31     7     8    2
    32     7     9    1
    33    18    10   ar
    34     9     3    1
    35    17    12   ar
    36    32    27    1
    37    26    24    1
    38    31    29    1
    39    33    34    1
@<TRIPOS>MOLECULE
*****
 34 39 0 0 0
SMALL
GASTEIGER

@<TRIPOS>ATOM
      1 O           1.2890    5.1958   18.4237 O.2     1  UNL1       -0.2681
      2 C           0.5745    3.9862   18.9496 C.2     1  UNL1        0.2698
      3 N           1.2760    2.6612   18.9940 N.am    1  UNL1       -0.2647
      4 C           0.5616    1.4515   19.5199 C.3     1  UNL1        0.1157
      5 C           1.2631    0.1265   19.5644 C.3     1  UNL1        0.1149
      6 N           2.6790    0.0109   19.0829 N.am    1  UNL1       -0.2756
      7 C           3.3934    1.2204   18.5570 C.2     1  UNL1        0.2460
      8 O           4.8094    1.1049   18.0756 O.2     1  UNL1       -0.2730
      9 C           2.6919    2.5456   18.5126 C.3     1  UNL1        0.1796
     10 C          -0.8414    4.1018   19.4311 C.ar    1  UNL1        0.1665
     11 N          -2.0537    4.2889   18.5678 N.ar    1  UNL1       -0.1596
     12 N          -3.2552    4.3533   19.4635 N.ar    1  UNL1       -0.2247
     13 C          -4.7163    4.5270   19.1720 C.ar    1  UNL1        0.1538
     14 C          -5.7076    4.5534   20.2973 C.ar    1  UNL1        0.0189
     15 C          -5.2379    4.4061   21.7142 C.ar    1  UNL1       -0.0195
     16 C          -3.7768    4.2323   22.0058 C.ar    1  UNL1        0.0158
     17 C          -2.7855    4.2059   20.8804 C.ar    1  UNL1        0.0946
     18 C          -1.2937    4.0505   20.8603 C.ar    1  UNL1        0.0990
     19 CL         -0.4094    3.8746   22.0591 Cl      1  UNL1       -0.0789
     20 C          -5.1860    4.6744   17.7550 C.3     1  UNL1        0.4349
     21 F          -5.6558    4.8217   16.3381 F       1  UNL1       -0.1644
     22 F          -5.5128    6.1154   18.0132 F       1  UNL1       -0.1644
     23 F          -4.8593    3.2334   17.4968 F       1  UNL1       -0.1644
     24 C          -6.2293    4.4325   22.8397 C.3     1  UNL1        0.0224
     25 C          -7.6506    4.4372   23.3189 C.3     1  UNL1        0.0047
     26 C          -6.5251    4.4734   24.3096 C.3     1  UNL1        0.0047
     27 C           3.3805   -1.3143   19.1274 C.3     1  UNL1        0.1022
     28 C           3.5321   -2.1914   20.3347 C.3     1  UNL1        0.0224
     29 C           4.2988   -3.4142   19.9258 C.3     1  UNL1        0.0042
     30 C           5.0674   -4.5010   19.2344 C.3     1  UNL1        0.0026
     31 C           4.6210   -3.2926   18.4658 C.3     1  UNL1        0.0286
     32 C           4.0535   -1.9948   17.9724 C.3     1  UNL1        0.1285
     33 O           4.1431   -1.4697   16.5702 O.3     1  UNL1       -0.3828
     34 H           3.6950   -0.6110   16.5173 H       1  UNL1        0.2104
@<TRIPOS>BOND
     1     1     2    2
     2     2    10    1
     3    10    11   ar
     4    11    12   ar
     5    12    13   ar
     6    13    20    1
     7    20    21    1
     8    20    22    1
     9    20    23    1
    10    13    14   ar
    11    14    15   ar
    12    15    24    1
    13    24    25    1
    14    25    26    1
    15    15    16   ar
    16    16    17   ar
    17    17    18   ar
    18    18    19    1
    19     2     3   am
    20     3     4    1
    21     4     5    1
    22     5     6    1
    23    27     6    1
    24    27    28    1
    25    29    28    1
    26    29    30    1
    27    31    30    1
    28    31    32    1
    29    32    33    1
    30     6     7   am
    31     7     8    2
    32     7     9    1
    33    18    10   ar
    34     9     3    1
    35    17    12   ar
    36    32    27    1
    37    26    24    1
    38    31    29    1
    39    33    34    1
@<TRIPOS>MOLECULE
*****
 34 39 0 0 0
SMALL
GASTEIGER

@<TRIPOS>ATOM
      1 O           5.1727   -0.8902   34.2486 O.2     1  UNL1       -0.2681
      2 C           4.2455    0.2882   34.2858 C.2     1  UNL1        0.2698
      3 N           3.3760    0.5960   33.1030 N.am    1  UNL1       -0.2647
      4 C           2.4487    1.7745   33.1402 C.3     1  UNL1        0.1157
      5 C           1.5792    2.0823   31.9574 C.3     1  UNL1        0.1149
      6 N           1.6369    1.2116   30.7373 N.am    1  UNL1       -0.2756
      7 C           2.5641    0.0332   30.7000 C.2     1  UNL1        0.2460
      8 O           2.6218   -0.8375   29.4800 O.2     1  UNL1       -0.2730
      9 C           3.4337   -0.2747   31.8829 C.3     1  UNL1        0.1796
     10 C           4.1878    1.1589   35.5059 C.ar    1  UNL1        0.1665
     11 N           3.0046    1.3299   36.4119 N.ar    1  UNL1       -0.1596
     12 N           3.3887    2.2882   37.5001 N.ar    1  UNL1       -0.2247
     13 C           2.6284    2.8316   38.6734 C.ar    1  UNL1        0.1538
     14 C           3.2888    3.7962   39.6133 C.ar    1  UNL1        0.0189
     15 C           4.7094    4.2174   39.3799 C.ar    1  UNL1       -0.0195
     16 C           5.4696    3.6740   38.2066 C.ar    1  UNL1        0.0158
     17 C           4.8093    2.7094   37.2668 C.ar    1  UNL1        0.0946
     18 C           5.3031    2.0114   36.0343 C.ar    1  UNL1        0.0990
     19 CL          6.6721    2.1430   35.4353 Cl      1  UNL1       -0.0789
     20 C           1.2078    2.4104   38.9068 C.3     1  UNL1        0.4349
     21 F          -0.2128    1.9892   39.1402 F       1  UNL1       -0.1644
     22 F           0.7281    3.5852   38.1071 F       1  UNL1       -0.1644
     23 F           1.6875    1.2355   39.7066 F       1  UNL1       -0.1644
     24 C           5.3697    5.1820   40.3199 C.3     1  UNL1        0.0224
     25 C           5.7164    5.6031   41.7172 C.3     1  UNL1        0.0047
     26 C           6.1666    6.4317   40.5507 C.3     1  UNL1        0.0047
     27 C           0.7673    1.5195   29.5544 C.3     1  UNL1        0.1022
     28 C           0.7926    2.7832   28.7467 C.3     1  UNL1        0.0224
     29 C          -0.2393    2.6624   27.6647 C.3     1  UNL1        0.0042
     30 C          -1.3239    2.2599   26.7098 C.3     1  UNL1        0.0026
     31 C          -0.9023    1.3240   27.8037 C.3     1  UNL1        0.0286
     32 C          -0.2801    0.6177   28.9716 C.3     1  UNL1        0.1285
     33 O          -0.6419   -0.7503   29.4694 O.3     1  UNL1       -0.3828
     34 H          -0.0907   -0.9715   30.2363 H       1  UNL1        0.2104
@<TRIPOS>BOND
     1     1     2    2
     2     2    10    1
     3    10    11   ar
     4    11    12   ar
     5    12    13   ar
     6    13    20    1
     7    20    21    1
     8    20    22    1
     9    20    23    1
    10    13    14   ar
    11    14    15   ar
    12    15    24    1
    13    24    25    1
    14    25    26    1
    15    15    16   ar
    16    16    17   ar
    17    17    18   ar
    18    18    19    1
    19     2     3   am
    20     3     4    1
    21     4     5    1
    22     5     6    1
    23    27     6    1
    24    27    28    1
    25    29    28    1
    26    29    30    1
    27    31    30    1
    28    31    32    1
    29    32    33    1
    30     6     7   am
    31     7     8    2
    32     7     9    1
    33    18    10   ar
    34     9     3    1
    35    17    12   ar
    36    32    27    1
    37    26    24    1
    38    31    29    1
    39    33    34    1
@<TRIPOS>MOLECULE
*****
 34 39 0 0 0
SMALL
GASTEIGER

@<TRIPOS>ATOM
      1 O           2.3379    4.5570   20.8617 O.2     1  UNL1       -0.2681
      2 C           1.5517    3.3235   21.1935 C.2     1  UNL1        0.2698
      3 N           2.0831    1.9719   20.8183 N.am    1  UNL1       -0.2647
      4 C           1.2968    0.7383   21.1501 C.3     1  UNL1        0.1157
      5 C           1.8282   -0.6133   20.7749 C.3     1  UNL1        0.1149
      6 N           3.1459   -0.7313   20.0679 N.am    1  UNL1       -0.2756
      7 C           3.9321    0.5023   19.7361 C.2     1  UNL1        0.2460
      8 O           5.2498    0.3843   19.0291 O.2     1  UNL1       -0.2730
      9 C           3.4007    1.8539   20.1113 C.3     1  UNL1        0.1796
     10 C           0.2340    3.4415   21.9005 C.ar    1  UNL1        0.1665
     11 N           0.0051    3.2709   23.3731 N.ar    1  UNL1       -0.1596
     12 N          -1.4565    3.4748   23.6418 N.ar    1  UNL1       -0.2247
     13 C          -2.2603    3.4286   24.9073 C.ar    1  UNL1        0.1538
     14 C          -3.7386    3.6791   24.8663 C.ar    1  UNL1        0.0189
     15 C          -4.4131    3.9758   23.5598 C.ar    1  UNL1       -0.0195
     16 C          -3.6093    4.0219   22.2942 C.ar    1  UNL1        0.0158
     17 C          -2.1309    3.7714   22.3352 C.ar    1  UNL1        0.0946
     18 C          -1.0862    3.7508   21.2591 C.ar    1  UNL1        0.0990
     19 CL         -1.3205    3.9965   19.7980 Cl      1  UNL1       -0.0789
     20 C          -1.5858    3.1320   26.2139 C.3     1  UNL1        0.4349
     21 F          -0.9113    2.8354   27.5204 F       1  UNL1       -0.1644
     22 F          -1.9595    4.4951   26.7162 F       1  UNL1       -0.1644
     23 F          -1.2122    1.7689   25.7115 F       1  UNL1       -0.1644
     24 C          -5.8915    4.2263   23.5188 C.3     1  UNL1        0.0224
     25 C          -7.1911    4.2129   22.7698 C.3     1  UNL1        0.0047
     26 C          -7.1526    4.6735   24.1968 C.3     1  UNL1        0.0047
     27 C           3.6773   -2.0829   19.6926 C.3     1  UNL1        0.1022
     28 C           3.8666   -3.2449   20.6221 C.3     1  UNL1        0.0224
     29 C           4.4190   -4.3901   19.8260 C.3     1  UNL1        0.0042
     30 C           4.9552   -5.3334   18.7904 C.3     1  UNL1        0.0026
     31 C           4.5711   -3.9357   18.4046 C.3     1  UNL1        0.0286
     32 C           4.1127   -2.5098   18.3222 C.3     1  UNL1        0.1285
     33 O           4.0931   -1.6600   17.0863 O.3     1  UNL1       -0.3828
     34 H           3.7521   -0.7787   17.3053 H       1  UNL1        0.2104
@<TRIPOS>BOND
     1     1     2    2
     2     2    10    1
     3    10    11   ar
     4    11    12   ar
     5    12    13   ar
     6    13    20    1
     7    20    21    1
     8    20    22    1
     9    20    23    1
    10    13    14   ar
    11    14    15   ar
    12    15    24    1
    13    24    25    1
    14    25    26    1
    15    15    16   ar
    16    16    17   ar
    17    17    18   ar
    18    18    19    1
    19     2     3   am
    20     3     4    1
    21     4     5    1
    22     5     6    1
    23    27     6    1
    24    27    28    1
    25    29    28    1
    26    29    30    1
    27    31    30    1
    28    31    32    1
    29    32    33    1
    30     6     7   am
    31     7     8    2
    32     7     9    1
    33    18    10   ar
    34     9     3    1
    35    17    12   ar
    36    32    27    1
    37    26    24    1
    38    31    29    1
    39    33    34    1
@<TRIPOS>MOLECULE
*****
 34 39 0 0 0
SMALL
GASTEIGER

@<TRIPOS>ATOM
      1 O           2.2373    4.1312   21.8277 O.2     1  UNL1       -0.2681
      2 C           1.3232    3.0335   21.3699 C.2     1  UNL1        0.2698
      3 N           1.8905    1.7055   20.9645 N.am    1  UNL1       -0.2647
      4 C           0.9764    0.6077   20.5067 C.3     1  UNL1        0.1157
      5 C           1.5436   -0.7204   20.1013 C.3     1  UNL1        0.1149
      6 N           3.0249   -0.9508   20.1537 N.am    1  UNL1       -0.2756
      7 C           3.9389    0.1468   20.6115 C.2     1  UNL1        0.2460
      8 O           5.4202   -0.0836   20.6639 O.2     1  UNL1       -0.2730
      9 C           3.3717    1.4750   21.0169 C.3     1  UNL1        0.1796
     10 C          -0.1580    3.2640   21.3175 C.ar    1  UNL1        0.1665
     11 N          -1.0822    3.3310   22.4971 N.ar    1  UNL1       -0.1596
     12 N          -2.4705    3.5763   21.9850 N.ar    1  UNL1       -0.2247
     13 C          -3.7864    3.7335   22.6877 C.ar    1  UNL1        0.1538
     14 C          -5.0361    3.9754   21.8943 C.ar    1  UNL1        0.0189
     15 C          -4.9700    4.0599   20.3981 C.ar    1  UNL1       -0.0195
     16 C          -3.6542    3.9027   19.6954 C.ar    1  UNL1        0.0158
     17 C          -2.4045    3.6609   20.4889 C.ar    1  UNL1        0.0946
     18 C          -0.9753    3.4678   20.0764 C.ar    1  UNL1        0.0990
     19 CL         -0.4547    3.4771   18.6696 Cl      1  UNL1       -0.0789
     20 C          -3.8524    3.6489   24.1839 C.3     1  UNL1        0.4349
     21 F          -3.9185    3.5644   25.6800 F       1  UNL1       -0.1644
     22 F          -4.7670    2.4648   24.0766 F       1  UNL1       -0.1644
     23 F          -2.9379    4.8330   24.2912 F       1  UNL1       -0.1644
     24 C          -6.2199    4.3018   19.6047 C.3     1  UNL1        0.0224
     25 C          -7.2622    3.8148   18.6423 C.3     1  UNL1        0.0047
     26 C          -7.3423    5.2077   19.1929 C.3     1  UNL1        0.0047
     27 C           3.5921   -2.2790   19.7483 C.3     1  UNL1        0.1022
     28 C           3.7238   -3.4869   20.6279 C.3     1  UNL1        0.0224
     29 C           4.3402   -4.5869   19.8154 C.3     1  UNL1        0.0042
     30 C           4.9561   -5.4731   18.7735 C.3     1  UNL1        0.0026
     31 C           4.5895   -4.0587   18.4337 C.3     1  UNL1        0.0286
     32 C           4.1271   -2.6324   18.3923 C.3     1  UNL1        0.1285
     33 O           4.1889   -1.7196   17.2036 O.3     1  UNL1       -0.3828
     34 H           3.8264   -0.8523   17.4428 H       1  UNL1        0.2104
@<TRIPOS>BOND
     1     1     2    2
     2     2    10    1
     3    10    11   ar
     4    11    12   ar
     5    12    13   ar
     6    13    20    1
     7    20    21    1
     8    20    22    1
     9    20    23    1
    10    13    14   ar
    11    14    15   ar
    12    15    24    1
    13    24    25    1
    14    25    26    1
    15    15    16   ar
    16    16    17   ar
    17    17    18   ar
    18    18    19    1
    19     2     3   am
    20     3     4    1
    21     4     5    1
    22     5     6    1
    23    27     6    1
    24    27    28    1
    25    29    28    1
    26    29    30    1
    27    31    30    1
    28    31    32    1
    29    32    33    1
    30     6     7   am
    31     7     8    2
    32     7     9    1
    33    18    10   ar
    34     9     3    1
    35    17    12   ar
    36    32    27    1
    37    26    24    1
    38    31    29    1
    39    33    34    1
@<TRIPOS>MOLECULE
*****
 34 39 0 0 0
SMALL
GASTEIGER

@<TRIPOS>ATOM
      1 O          -2.0245    4.3976   23.8545 O.2     1  UNL1       -0.2681
      2 C          -0.9097    3.4576   24.2058 C.2     1  UNL1        0.2698
      3 N          -0.1385    2.7693   23.1189 N.am    1  UNL1       -0.2647
      4 C           0.9764    1.8292   23.4703 C.3     1  UNL1        0.1157
      5 C           1.7476    1.1409   22.3834 C.3     1  UNL1        0.1149
      6 N           1.4041    1.3926   20.9451 N.am    1  UNL1       -0.2756
      7 C           0.2893    2.3327   20.5937 C.2     1  UNL1        0.2460
      8 O          -0.0543    2.5844   19.1555 O.2     1  UNL1       -0.2730
      9 C          -0.4820    3.0210   21.6807 C.3     1  UNL1        0.1796
     10 C          -0.5661    3.2059   25.6441 C.ar    1  UNL1        0.1665
     11 N          -0.8435    1.9460   26.4094 N.ar    1  UNL1       -0.1596
     12 N          -0.3337    2.1313   27.8079 N.ar    1  UNL1       -0.2247
     13 C          -0.3324    1.2260   29.0039 C.ar    1  UNL1        0.1538
     14 C           0.2614    1.6953   30.2989 C.ar    1  UNL1        0.0189
     15 C           0.8539    3.0697   30.3979 C.ar    1  UNL1       -0.0195
     16 C           0.8526    3.9749   29.2019 C.ar    1  UNL1        0.0158
     17 C           0.2588    3.5057   27.9069 C.ar    1  UNL1        0.0946
     18 C           0.1152    4.1698   26.5696 C.ar    1  UNL1        0.0990
     19 CL          0.5725    5.5548   26.2193 Cl      1  UNL1       -0.0789
     20 C          -0.9249   -0.1484   28.9049 C.3     1  UNL1        0.4349
     21 F          -1.5175   -1.5229   28.8058 F       1  UNL1       -0.1644
     22 F           0.4233   -0.7043   28.5539 F       1  UNL1       -0.1644
     23 F          -2.2732    0.4075   29.2559 F       1  UNL1       -0.1644
     24 C           1.4477    3.5389   31.6931 C.3     1  UNL1        0.0224
     25 C           2.5787    4.1686   32.4510 C.3     1  UNL1        0.0047
     26 C           1.3453    3.7219   33.1784 C.3     1  UNL1        0.0047
     27 C           2.1754    0.7043   19.8582 C.3     1  UNL1        0.1022
     28 C           2.3898   -0.7748   19.7304 C.3     1  UNL1        0.0224
     29 C           3.2146   -1.0191   18.5015 C.3     1  UNL1        0.0042
     30 C           4.0302   -0.9512   17.2444 C.3     1  UNL1        0.0026
     31 C           3.5099    0.3090   17.8699 C.3     1  UNL1        0.0286
     32 C           2.8676    1.3741   18.7084 C.3     1  UNL1        0.1285
     33 O           2.9100    2.8499   18.4436 O.3     1  UNL1       -0.3828
     34 H           2.4164    3.3169   19.1357 H       1  UNL1        0.2104
@<TRIPOS>BOND
     1     1     2    2
     2     2    10    1
     3    10    11   ar
     4    11    12   ar
     5    12    13   ar
     6    13    20    1
     7    20    21    1
     8    20    22    1
     9    20    23    1
    10    13    14   ar
    11    14    15   ar
    12    15    24    1
    13    24    25    1
    14    25    26    1
    15    15    16   ar
    16    16    17   ar
    17    17    18   ar
    18    18    19    1
    19     2     3   am
    20     3     4    1
    21     4     5    1
    22     5     6    1
    23    27     6    1
    24    27    28    1
    25    29    28    1
    26    29    30    1
    27    31    30    1
    28    31    32    1
    29    32    33    1
    30     6     7   am
    31     7     8    2
    32     7     9    1
    33    18    10   ar
    34     9     3    1
    35    17    12   ar
    36    32    27    1
    37    26    24    1
    38    31    29    1
    39    33    34    1
@<TRIPOS>MOLECULE
*****
 34 39 0 0 0
SMALL
GASTEIGER

@<TRIPOS>ATOM
      1 O           4.6112   -1.6634   34.3236 O.2     1  UNL1       -0.2681
      2 C           4.3650   -1.1409   32.9393 C.2     1  UNL1        0.2698
      3 N           5.0390   -1.7844   31.7640 N.am    1  UNL1       -0.2647
      4 C           4.7928   -1.2619   30.3796 C.3     1  UNL1        0.1157
      5 C           5.4668   -1.9054   29.2042 C.3     1  UNL1        0.1149
      6 N           6.3870   -3.0714   29.4131 N.am    1  UNL1       -0.2756
      7 C           6.6332   -3.5939   30.7974 C.2     1  UNL1        0.2460
      8 O           7.5534   -4.7599   31.0063 O.2     1  UNL1       -0.2730
      9 C           5.9592   -2.9504   31.9729 C.3     1  UNL1        0.1796
     10 C           3.4447    0.0251   32.7304 C.ar    1  UNL1        0.1665
     11 N           2.5657    0.2517   31.5363 N.ar    1  UNL1       -0.1596
     12 N           1.8196    1.5358   31.7468 N.ar    1  UNL1       -0.2247
     13 C           0.8137    2.2620   30.9037 C.ar    1  UNL1        0.1538
     14 C           0.2258    3.5553   31.3849 C.ar    1  UNL1        0.0189
     15 C           0.6438    4.1225   32.7092 C.ar    1  UNL1       -0.0195
     16 C           1.6497    3.3963   33.5522 C.ar    1  UNL1        0.0158
     17 C           2.2376    2.1030   33.0710 C.ar    1  UNL1        0.0946
     18 C           3.2420    1.1693   33.6789 C.ar    1  UNL1        0.0990
     19 CL          3.9238    1.3484   35.0029 Cl      1  UNL1       -0.0789
     20 C           0.3958    1.6949   29.5795 C.3     1  UNL1        0.4349
     21 F          -0.0222    1.1277   28.2552 F       1  UNL1       -0.1644
     22 F           1.5206    2.4279   28.9105 F       1  UNL1       -0.1644
     23 F          -0.7290    0.9619   30.2485 F       1  UNL1       -0.1644
     24 C           0.0558    5.4159   33.1904 C.3     1  UNL1        0.0224
     25 C           0.2348    6.8295   33.6591 C.3     1  UNL1        0.0047
     26 C          -1.1416    6.2425   33.5550 C.3     1  UNL1        0.0047
     27 C           7.0610   -3.7149   28.2376 C.3     1  UNL1        0.1022
     28 C           8.3021   -3.2220   27.5544 C.3     1  UNL1        0.0224
     29 C           8.6204   -4.1667   26.4335 C.3     1  UNL1        0.0042
     30 C           8.6820   -5.2623   25.4109 C.3     1  UNL1        0.0026
     31 C           7.5761   -5.2435   26.4242 C.3     1  UNL1        0.0286
     32 C           6.6124   -4.9642   27.5392 C.3     1  UNL1        0.1285
     33 O           5.4109   -5.7894   27.8935 O.3     1  UNL1       -0.3828
     34 H           4.9579   -5.3913   28.6532 H       1  UNL1        0.2104
@<TRIPOS>BOND
     1     1     2    2
     2     2    10    1
     3    10    11   ar
     4    11    12   ar
     5    12    13   ar
     6    13    20    1
     7    20    21    1
     8    20    22    1
     9    20    23    1
    10    13    14   ar
    11    14    15   ar
    12    15    24    1
    13    24    25    1
    14    25    26    1
    15    15    16   ar
    16    16    17   ar
    17    17    18   ar
    18    18    19    1
    19     2     3   am
    20     3     4    1
    21     4     5    1
    22     5     6    1
    23    27     6    1
    24    27    28    1
    25    29    28    1
    26    29    30    1
    27    31    30    1
    28    31    32    1
    29    32    33    1
    30     6     7   am
    31     7     8    2
    32     7     9    1
    33    18    10   ar
    34     9     3    1
    35    17    12   ar
    36    32    27    1
    37    26    24    1
    38    31    29    1
    39    33    34    1
@<TRIPOS>MOLECULE
*****
 34 39 0 0 0
SMALL
GASTEIGER

@<TRIPOS>ATOM
      1 O          -0.9293    3.6686   22.9880 O.2     1  UNL1       -0.2681
      2 C           0.0725    2.7434   23.6127 C.2     1  UNL1        0.2698
      3 N           0.9131    1.8529   22.7466 N.am    1  UNL1       -0.2647
      4 C           1.9150    0.9276   23.3713 C.3     1  UNL1        0.1157
      5 C           2.7556    0.0371   22.5052 C.3     1  UNL1        0.1149
      6 N           2.5944    0.0718   21.0143 N.am    1  UNL1       -0.2756
      7 C           1.5926    0.9970   20.3895 C.2     1  UNL1        0.2460
      8 O           1.4315    1.0316   18.8986 O.2     1  UNL1       -0.2730
      9 C           0.7519    1.8875   21.2557 C.3     1  UNL1        0.1796
     10 C           0.2336    2.7087   25.1036 C.ar    1  UNL1        0.1665
     11 N          -0.2650    1.6305   26.0195 N.ar    1  UNL1       -0.1596
     12 N           0.1149    2.0016   27.4224 N.ar    1  UNL1       -0.2247
     13 C          -0.1122    1.3178   28.7380 C.ar    1  UNL1        0.1538
     14 C           0.3941    1.9415   30.0047 C.ar    1  UNL1        0.0189
     15 C           1.1275    3.2491   29.9558 C.ar    1  UNL1       -0.0195
     16 C           1.3546    3.9329   28.6402 C.ar    1  UNL1        0.0158
     17 C           0.8483    3.3091   27.3735 C.ar    1  UNL1        0.0946
     18 C           0.9217    3.7461   25.9405 C.ar    1  UNL1        0.0990
     19 CL          1.5694    5.0004   25.4333 Cl      1  UNL1       -0.0789
     20 C          -0.8457    0.0102   28.7868 C.3     1  UNL1        0.4349
     21 F          -1.5791   -1.2974   28.8357 F       1  UNL1       -0.1644
     22 F           0.4623   -0.7240   28.7724 F       1  UNL1       -0.1644
     23 F          -2.1536    0.7444   28.8012 F       1  UNL1       -0.1644
     24 C           1.6338    3.8728   31.2226 C.3     1  UNL1        0.0224
     25 C           1.3868    4.6828   32.4606 C.3     1  UNL1        0.0047
     26 C           2.7576    4.1431   32.1786 C.3     1  UNL1        0.0047
     27 C           3.4351   -0.8188   20.1481 C.3     1  UNL1        0.1022
     28 C           3.5025   -2.3153   20.2253 C.3     1  UNL1        0.0224
     29 C           4.4650   -2.7907   19.1776 C.3     1  UNL1        0.0042
     30 C           5.4568   -2.9606   18.0652 C.3     1  UNL1        0.0026
     31 C           4.9926   -1.5879   18.4529 C.3     1  UNL1        0.0286
     32 C           4.3560   -0.3692   19.0527 C.3     1  UNL1        0.1285
     33 O           4.5979    1.0498   18.6312 O.3     1  UNL1       -0.3828
     34 H           4.0632    1.6455   19.1791 H       1  UNL1        0.2104
@<TRIPOS>BOND
     1     1     2    2
     2     2    10    1
     3    10    11   ar
     4    11    12   ar
     5    12    13   ar
     6    13    20    1
     7    20    21    1
     8    20    22    1
     9    20    23    1
    10    13    14   ar
    11    14    15   ar
    12    15    24    1
    13    24    25    1
    14    25    26    1
    15    15    16   ar
    16    16    17   ar
    17    17    18   ar
    18    18    19    1
    19     2     3   am
    20     3     4    1
    21     4     5    1
    22     5     6    1
    23    27     6    1
    24    27    28    1
    25    29    28    1
    26    29    30    1
    27    31    30    1
    28    31    32    1
    29    32    33    1
    30     6     7   am
    31     7     8    2
    32     7     9    1
    33    18    10   ar
    34     9     3    1
    35    17    12   ar
    36    32    27    1
    37    26    24    1
    38    31    29    1
    39    33    34    1
