@<TRIPOS>MOLECULE
*****
 30 33 0 0 0
SMALL
GASTEIGER

@<TRIPOS>ATOM
      1 O          -0.2959    0.9759   25.4696 O.2     1  UNL1       -0.1683
      2 S           0.1607    2.2131   24.7549 S.O2    1  UNL1        0.0129
      3 O           0.6172    3.4504   24.0402 O.2     1  UNL1       -0.1683
      4 C           0.9108    1.3670   23.7693 C.ar    1  UNL1        0.1060
      5 C           0.5358    1.3965   22.3172 C.ar    1  UNL1        0.0184
      6 C           1.2860    0.5503   21.3317 C.ar    1  UNL1        0.0013
      7 C           2.4111   -0.3253   21.7981 C.ar    1  UNL1        0.0002
      8 C           2.7860   -0.3548   23.2502 C.ar    1  UNL1        0.0013
      9 C           2.0359    0.4914   24.2358 C.ar    1  UNL1        0.0184
     10 C           3.1612   -1.1714   20.8126 C.ar    1  UNL1        0.0024
     11 C           3.9119   -2.3822   21.2822 C.ar    1  UNL1        0.0025
     12 C           4.6622   -3.2284   20.2968 C.ar    1  UNL1        0.0320
     13 C           4.6617   -2.8639   18.8417 C.ar    1  UNL1        0.1674
     14 F           5.4119   -3.7101   17.8563 F       1  UNL1       -0.2018
     15 C           3.9109   -1.6531   18.3722 C.ar    1  UNL1        0.1674
     16 F           3.9105   -1.2886   16.9171 F       1  UNL1       -0.2018
     17 C           3.1608   -0.8070   19.3576 C.ar    1  UNL1        0.0320
     18 C          -0.5895    3.0593   25.7405 C.3     1  UNL1        0.1822
     19 C          -2.0250    3.4122   25.4863 C.ar    1  UNL1        0.0014
     20 C          -2.8953    3.8741   26.6173 C.ar    1  UNL1       -0.0029
     21 C          -4.3310    4.2270   26.3631 C.ar    1  UNL1       -0.0048
     22 C          -4.8962    4.1179   24.9779 C.ar    1  UNL1       -0.0247
     23 C          -4.0259    3.6560   23.8471 C.ar    1  UNL1       -0.0250
     24 C          -2.5903    3.3031   24.1011 C.ar    1  UNL1       -0.0071
     25 C          -4.3864    3.4780   22.4019 C.3     1  UNL1        0.0431
     26 C          -5.7064    3.7180   21.7308 C.3     1  UNL1        0.0733
     27 N          -6.9916    4.1953   22.3392 N.3     1  UNL1       -0.2969
     28 C          -7.2746    4.5505   23.7688 C.3     1  UNL1        0.0733
     29 C          -6.3420    4.5160   24.9432 C.3     1  UNL1        0.0431
     30 H          -7.6659    3.4621   22.1198 H       1  UNL1        0.1233
@<TRIPOS>BOND
     1     1     2    2
     2     2     3    2
     3     2    18    1
     4    18    19    1
     5    19    20   ar
     6    20    21   ar
     7    21    22   ar
     8    22    23   ar
     9    23    24   ar
    10    23    25    1
    11    25    26    1
    12    26    27    1
    13    27    28    1
    14    28    29    1
    15     2     4    1
    16     4     5   ar
    17     5     6   ar
    18     6     7   ar
    19     7    10    1
    20    10    11   ar
    21    11    12   ar
    22    12    13   ar
    23    13    14    1
    24    13    15   ar
    25    15    16    1
    26    15    17   ar
    27     7     8   ar
    28     8     9   ar
    29    24    19   ar
    30     9     4   ar
    31    29    22    1
    32    17    10   ar
    33    27    30    1
@<TRIPOS>MOLECULE
*****
 30 33 0 0 0
SMALL
GASTEIGER

@<TRIPOS>ATOM
      1 O           0.6199    3.8323   21.1181 O.2     1  UNL1       -0.1683
      2 S           0.0176    2.4800   20.8759 S.O2    1  UNL1        0.0129
      3 O          -0.5846    1.1277   20.6338 O.2     1  UNL1       -0.1683
      4 C          -1.2683    2.9418   21.4949 C.ar    1  UNL1        0.1060
      5 C          -2.5153    3.0183   20.6646 C.ar    1  UNL1        0.0184
      6 C          -3.8012    3.4802   21.2837 C.ar    1  UNL1        0.0013
      7 C          -3.8402    3.8655   22.7328 C.ar    1  UNL1        0.0002
      8 C          -2.5932    3.7890   23.5630 C.ar    1  UNL1        0.0013
      9 C          -1.3073    3.3272   22.9440 C.ar    1  UNL1        0.0184
     10 C          -5.1260    4.3274   23.3518 C.ar    1  UNL1        0.0024
     11 C          -6.4166    4.1735   22.6029 C.ar    1  UNL1        0.0025
     12 C          -7.7026    4.6353   23.2219 C.ar    1  UNL1        0.0320
     13 C          -7.6979    5.2510   24.5897 C.ar    1  UNL1        0.1674
     14 F          -8.9839    5.7129   25.2087 F       1  UNL1       -0.2018
     15 C          -6.4073    5.4049   25.3385 C.ar    1  UNL1        0.1674
     16 F          -6.4027    6.0206   26.7063 F       1  UNL1       -0.2018
     17 C          -5.1215    4.9431   24.7196 C.ar    1  UNL1        0.0320
     18 C           1.3036    2.0181   20.2570 C.3     1  UNL1        0.1822
     19 C           2.0410    0.8507   20.8428 C.ar    1  UNL1        0.0014
     20 C           2.4344    0.8620   22.2903 C.ar    1  UNL1       -0.0029
     21 C           3.1719   -0.3054   22.8763 C.ar    1  UNL1       -0.0048
     22 C           3.5160   -1.4841   22.0146 C.ar    1  UNL1       -0.0247
     23 C           3.1227   -1.4953   20.5673 C.ar    1  UNL1       -0.0250
     24 C           2.3853   -0.3280   19.9813 C.ar    1  UNL1       -0.0071
     25 C           3.3658   -2.5613   19.5403 C.3     1  UNL1        0.0431
     26 C           4.0622   -3.8794   19.7073 C.3     1  UNL1        0.0733
     27 N           4.6874   -4.4569   20.9423 N.3     1  UNL1       -0.2969
     28 C           4.7709   -3.8591   22.3155 C.3     1  UNL1        0.0733
     29 C           4.2495   -2.5360   22.7928 C.3     1  UNL1        0.0431
     30 H           5.6577   -4.6309   20.6800 H       1  UNL1        0.1233
@<TRIPOS>BOND
     1     1     2    2
     2     2     3    2
     3     2    18    1
     4    18    19    1
     5    19    20   ar
     6    20    21   ar
     7    21    22   ar
     8    22    23   ar
     9    23    24   ar
    10    23    25    1
    11    25    26    1
    12    26    27    1
    13    27    28    1
    14    28    29    1
    15     2     4    1
    16     4     5   ar
    17     5     6   ar
    18     6     7   ar
    19     7    10    1
    20    10    11   ar
    21    11    12   ar
    22    12    13   ar
    23    13    14    1
    24    13    15   ar
    25    15    16    1
    26    15    17   ar
    27     7     8   ar
    28     8     9   ar
    29    24    19   ar
    30     9     4   ar
    31    29    22    1
    32    17    10   ar
    33    27    30    1
@<TRIPOS>MOLECULE
*****
 30 33 0 0 0
SMALL
GASTEIGER

@<TRIPOS>ATOM
      1 O         -16.1048    0.1230   18.1324 O.2     1  UNL1       -0.1683
      2 S         -14.8602    0.8755   18.4995 S.O2    1  UNL1        0.0129
      3 O         -13.6156    1.6279   18.8665 O.2     1  UNL1       -0.1683
      4 C         -14.0939   -0.4133   18.5431 C.ar    1  UNL1        0.1060
      5 C         -14.7936   -1.6900   18.9044 C.ar    1  UNL1        0.0184
      6 C         -14.0272   -2.9787   18.9480 C.ar    1  UNL1        0.0013
      7 C         -12.5613   -2.9908   18.6305 C.ar    1  UNL1        0.0002
      8 C         -11.8616   -1.7141   18.2692 C.ar    1  UNL1        0.0013
      9 C         -12.6279   -0.4254   18.2256 C.ar    1  UNL1        0.0184
     10 C         -11.7949   -4.2795   18.6741 C.ar    1  UNL1        0.0024
     11 C         -10.3176   -4.2651   18.9340 C.ar    1  UNL1        0.0025
     12 C          -9.5512   -5.5538   18.9776 C.ar    1  UNL1        0.0320
     13 C         -10.2620   -6.8569   18.7614 C.ar    1  UNL1        0.1674
     14 F          -9.4955   -8.1456   18.8051 F       1  UNL1       -0.2018
     15 C         -11.7393   -6.8712   18.5016 C.ar    1  UNL1        0.1674
     16 F         -12.4500   -8.1743   18.2854 F       1  UNL1       -0.2018
     17 C         -12.5057   -5.5826   18.4580 C.ar    1  UNL1        0.0320
     18 C         -15.6265    2.1642   18.4558 C.3     1  UNL1        0.1822
     19 C         -16.0252    2.8432   19.7325 C.ar    1  UNL1        0.0014
     20 C         -15.4308    4.1726   20.0922 C.ar    1  UNL1       -0.0029
     21 C         -15.8295    4.8517   21.3689 C.ar    1  UNL1       -0.0048
     22 C         -16.8227    4.2013   22.2859 C.ar    1  UNL1       -0.0247
     23 C         -17.4170    2.8721   21.9261 C.ar    1  UNL1       -0.0250
     24 C         -17.0184    2.1930   20.6494 C.ar    1  UNL1       -0.0071
     25 C         -18.4160    2.0561   22.6919 C.3     1  UNL1        0.0431
     26 C         -19.0672    2.3682   24.0068 C.3     1  UNL1        0.0733
     27 N         -18.8803    3.5730   24.8803 N.3     1  UNL1       -0.2969
     28 C         -17.9960    4.7636   24.6550 C.3     1  UNL1        0.0733
     29 C         -17.0803    5.0432   23.5003 C.3     1  UNL1        0.0431
     30 H         -18.5748    3.1939   25.7766 H       1  UNL1        0.1233
@<TRIPOS>BOND
     1     1     2    2
     2     2     3    2
     3     2    18    1
     4    18    19    1
     5    19    20   ar
     6    20    21   ar
     7    21    22   ar
     8    22    23   ar
     9    23    24   ar
    10    23    25    1
    11    25    26    1
    12    26    27    1
    13    27    28    1
    14    28    29    1
    15     2     4    1
    16     4     5   ar
    17     5     6   ar
    18     6     7   ar
    19     7    10    1
    20    10    11   ar
    21    11    12   ar
    22    12    13   ar
    23    13    14    1
    24    13    15   ar
    25    15    16    1
    26    15    17   ar
    27     7     8   ar
    28     8     9   ar
    29    24    19   ar
    30     9     4   ar
    31    29    22    1
    32    17    10   ar
    33    27    30    1
@<TRIPOS>MOLECULE
*****
 30 33 0 0 0
SMALL
GASTEIGER

@<TRIPOS>ATOM
      1 O           7.5013   -2.2157   20.6585 O.2     1  UNL1       -0.1683
      2 S           6.6190   -3.3856   20.3377 S.O2    1  UNL1        0.0129
      3 O           5.7367   -4.5555   20.0169 O.2     1  UNL1       -0.1683
      4 C           6.9837   -4.0198   21.6472 C.ar    1  UNL1        0.1060
      5 C           6.1783   -3.7188   22.8764 C.ar    1  UNL1        0.0184
      6 C           6.5431   -4.3530   24.1859 C.ar    1  UNL1        0.0013
      7 C           7.7131   -5.2881   24.2663 C.ar    1  UNL1        0.0002
      8 C           8.5186   -5.5890   23.0372 C.ar    1  UNL1        0.0013
      9 C           8.1538   -4.9549   21.7276 C.ar    1  UNL1        0.0184
     10 C           8.0779   -5.9223   25.5758 C.ar    1  UNL1        0.0024
     11 C           8.6052   -5.0771   26.6972 C.ar    1  UNL1        0.0025
     12 C           8.9700   -5.7112   28.0067 C.ar    1  UNL1        0.0320
     13 C           8.8075   -7.1905   28.1948 C.ar    1  UNL1        0.1674
     14 F           9.1724   -7.8246   29.5043 F       1  UNL1       -0.2018
     15 C           8.2802   -8.0356   27.0733 C.ar    1  UNL1        0.1674
     16 F           8.1177   -9.5149   27.2614 F       1  UNL1       -0.2018
     17 C           7.9154   -7.4015   25.7639 C.ar    1  UNL1        0.0320
     18 C           6.2543   -2.7515   19.0282 C.3     1  UNL1        0.1822
     19 C           5.0571   -1.8522   18.9381 C.ar    1  UNL1        0.0014
     20 C           4.6301   -1.3029   17.6092 C.ar    1  UNL1       -0.0029
     21 C           3.4329   -0.4036   17.5190 C.ar    1  UNL1       -0.0048
     22 C           2.6628   -0.0537   18.7577 C.ar    1  UNL1       -0.0247
     23 C           3.0898   -0.6030   20.0865 C.ar    1  UNL1       -0.0250
     24 C           4.2869   -1.5023   20.1768 C.ar    1  UNL1       -0.0071
     25 C           2.4680   -0.3817   21.4335 C.3     1  UNL1        0.0431
     26 C           1.2655    0.4438   21.7843 C.3     1  UNL1        0.0733
     27 N           0.3881    1.2516   20.8747 N.3     1  UNL1       -0.2969
     28 C           0.4962    1.4336   19.3897 C.3     1  UNL1        0.0733
     29 C           1.5085    0.8527   18.4475 C.3     1  UNL1        0.0431
     30 H           0.4317    2.1982   21.2520 H       1  UNL1        0.1233
@<TRIPOS>BOND
     1     1     2    2
     2     2     3    2
     3     2    18    1
     4    18    19    1
     5    19    20   ar
     6    20    21   ar
     7    21    22   ar
     8    22    23   ar
     9    23    24   ar
    10    23    25    1
    11    25    26    1
    12    26    27    1
    13    27    28    1
    14    28    29    1
    15     2     4    1
    16     4     5   ar
    17     5     6   ar
    18     6     7   ar
    19     7    10    1
    20    10    11   ar
    21    11    12   ar
    22    12    13   ar
    23    13    14    1
    24    13    15   ar
    25    15    16    1
    26    15    17   ar
    27     7     8   ar
    28     8     9   ar
    29    24    19   ar
    30     9     4   ar
    31    29    22    1
    32    17    10   ar
    33    27    30    1
@<TRIPOS>MOLECULE
*****
 30 33 0 0 0
SMALL
GASTEIGER

@<TRIPOS>ATOM
      1 O         -16.6941   -0.2351   19.5741 O.2     1  UNL1       -0.1683
      2 S         -15.5595    0.7096   19.3090 S.O2    1  UNL1        0.0129
      3 O         -14.4249    1.6543   19.0438 O.2     1  UNL1       -0.1683
      4 C         -14.6332   -0.4554   19.1222 C.ar    1  UNL1        0.1060
      5 C         -14.9784   -1.7903   19.7129 C.ar    1  UNL1        0.0184
      6 C         -14.0520   -2.9552   19.5261 C.ar    1  UNL1        0.0013
      7 C         -12.7805   -2.7853   18.7486 C.ar    1  UNL1        0.0002
      8 C         -12.4353   -1.4503   18.1579 C.ar    1  UNL1        0.0013
      9 C         -13.3616   -0.2854   18.3447 C.ar    1  UNL1        0.0184
     10 C         -11.8541   -3.9501   18.5618 C.ar    1  UNL1        0.0024
     11 C         -12.1860   -5.2781   19.1753 C.ar    1  UNL1        0.0025
     12 C         -11.2597   -6.4430   18.9886 C.ar    1  UNL1        0.0320
     13 C         -10.0015   -6.2800   18.1883 C.ar    1  UNL1        0.1674
     14 F          -9.0752   -7.4449   18.0015 F       1  UNL1       -0.2018
     15 C          -9.6697   -4.9519   17.5748 C.ar    1  UNL1        0.1674
     16 F          -8.4115   -4.7890   16.7746 F       1  UNL1       -0.2018
     17 C         -10.5960   -3.7871   17.7616 C.ar    1  UNL1        0.0320
     18 C         -16.4858    1.8745   19.4957 C.3     1  UNL1        0.1822
     19 C         -16.4767    2.6406   20.7853 C.ar    1  UNL1        0.0014
     20 C         -17.2419    2.1262   21.9685 C.ar    1  UNL1       -0.0029
     21 C         -17.2329    2.8923   23.2582 C.ar    1  UNL1       -0.0048
     22 C         -16.4587    4.1727   23.3645 C.ar    1  UNL1       -0.0247
     23 C         -15.6936    4.6869   22.1813 C.ar    1  UNL1       -0.0250
     24 C         -15.7026    3.9210   20.8917 C.ar    1  UNL1       -0.0071
     25 C         -14.8629    5.9314   22.0737 C.3     1  UNL1        0.0431
     26 C         -14.5924    6.9689   23.1228 C.3     1  UNL1        0.0733
     27 N         -15.0855    7.0181   24.5384 N.3     1  UNL1       -0.2969
     28 C         -15.9711    6.0421   25.2549 C.3     1  UNL1        0.0733
     29 C         -16.5822    4.7757   24.7324 C.3     1  UNL1        0.0431
     30 H         -15.5789    7.9082   24.6063 H       1  UNL1        0.1233
@<TRIPOS>BOND
     1     1     2    2
     2     2     3    2
     3     2    18    1
     4    18    19    1
     5    19    20   ar
     6    20    21   ar
     7    21    22   ar
     8    22    23   ar
     9    23    24   ar
    10    23    25    1
    11    25    26    1
    12    26    27    1
    13    27    28    1
    14    28    29    1
    15     2     4    1
    16     4     5   ar
    17     5     6   ar
    18     6     7   ar
    19     7    10    1
    20    10    11   ar
    21    11    12   ar
    22    12    13   ar
    23    13    14    1
    24    13    15   ar
    25    15    16    1
    26    15    17   ar
    27     7     8   ar
    28     8     9   ar
    29    24    19   ar
    30     9     4   ar
    31    29    22    1
    32    17    10   ar
    33    27    30    1
@<TRIPOS>MOLECULE
*****
 30 33 0 0 0
SMALL
GASTEIGER

@<TRIPOS>ATOM
      1 O           7.8856   -2.0433   21.9181 O.2     1  UNL1       -0.1683
      2 S           7.2357   -3.3457   21.5554 S.O2    1  UNL1        0.0129
      3 O           6.5858   -4.6480   21.1927 O.2     1  UNL1       -0.1683
      4 C           7.2610   -3.7597   22.9969 C.ar    1  UNL1        0.1060
      5 C           6.5062   -2.9628   24.0194 C.ar    1  UNL1        0.0184
      6 C           6.5315   -3.3769   25.4609 C.ar    1  UNL1        0.0013
      7 C           7.3114   -4.5877   25.8800 C.ar    1  UNL1        0.0002
      8 C           8.0662   -5.3846   24.8575 C.ar    1  UNL1        0.0013
      9 C           8.0409   -4.9706   23.4160 C.ar    1  UNL1        0.0184
     10 C           7.3367   -5.0018   27.3215 C.ar    1  UNL1        0.0024
     11 C           7.9805   -6.2972   27.7184 C.ar    1  UNL1        0.0025
     12 C           8.0059   -6.7114   29.1599 C.ar    1  UNL1        0.0320
     13 C           7.3874   -5.8302   30.2044 C.ar    1  UNL1        0.1674
     14 F           7.4127   -6.2444   31.6459 F       1  UNL1       -0.2018
     15 C           6.7436   -4.5348   29.8074 C.ar    1  UNL1        0.1674
     16 F           6.1251   -3.6537   30.8519 F       1  UNL1       -0.2018
     17 C           6.7183   -4.1207   28.3660 C.ar    1  UNL1        0.0320
     18 C           7.2105   -2.9317   20.1139 C.3     1  UNL1        0.1822
     19 C           6.0590   -2.1297   19.5840 C.ar    1  UNL1        0.0014
     20 C           6.1452   -1.5013   18.2247 C.ar    1  UNL1       -0.0029
     21 C           4.9937   -0.6993   17.6947 C.ar    1  UNL1       -0.0048
     22 C           3.7560   -0.5257   18.5242 C.ar    1  UNL1       -0.0247
     23 C           3.6698   -1.1540   19.8834 C.ar    1  UNL1       -0.0250
     24 C           4.8212   -1.9560   20.4134 C.ar    1  UNL1       -0.0071
     25 C           2.5376   -1.1054   20.8662 C.3     1  UNL1        0.0431
     26 C           1.2119   -0.4163   20.7323 C.3     1  UNL1        0.0733
     27 N           0.6911    0.3942   19.5826 N.3     1  UNL1       -0.2969
     28 C           1.3672    0.7159   18.2829 C.3     1  UNL1        0.0733
     29 C           2.7313    0.3065   17.8118 C.3     1  UNL1        0.0431
     30 H           0.4732    1.3038   19.9893 H       1  UNL1        0.1233
@<TRIPOS>BOND
     1     1     2    2
     2     2     3    2
     3     2    18    1
     4    18    19    1
     5    19    20   ar
     6    20    21   ar
     7    21    22   ar
     8    22    23   ar
     9    23    24   ar
    10    23    25    1
    11    25    26    1
    12    26    27    1
    13    27    28    1
    14    28    29    1
    15     2     4    1
    16     4     5   ar
    17     5     6   ar
    18     6     7   ar
    19     7    10    1
    20    10    11   ar
    21    11    12   ar
    22    12    13   ar
    23    13    14    1
    24    13    15   ar
    25    15    16    1
    26    15    17   ar
    27     7     8   ar
    28     8     9   ar
    29    24    19   ar
    30     9     4   ar
    31    29    22    1
    32    17    10   ar
    33    27    30    1
@<TRIPOS>MOLECULE
*****
 30 33 0 0 0
SMALL
GASTEIGER

@<TRIPOS>ATOM
      1 O           1.0718    3.4261   24.6890 O.2     1  UNL1       -0.1683
      2 S           0.4521    2.1078   25.0467 S.O2    1  UNL1        0.0129
      3 O          -0.1676    0.7894   25.4045 O.2     1  UNL1       -0.1683
      4 C          -0.8867    2.7720   25.1755 C.ar    1  UNL1        0.1060
      5 C          -1.5756    3.3131   23.9579 C.ar    1  UNL1        0.0184
      6 C          -2.9144    3.9773   24.0868 C.ar    1  UNL1        0.0013
      7 C          -3.5642    4.1004   25.4331 C.ar    1  UNL1        0.0002
      8 C          -2.8752    3.5593   26.6507 C.ar    1  UNL1        0.0013
      9 C          -1.5365    2.8951   26.5219 C.ar    1  UNL1        0.0184
     10 C          -4.9029    4.7646   25.5619 C.ar    1  UNL1        0.0024
     11 C          -5.8587    4.7561   24.4059 C.ar    1  UNL1        0.0025
     12 C          -7.1974    5.4203   24.5346 C.ar    1  UNL1        0.0320
     13 C          -7.5804    6.0930   25.8195 C.ar    1  UNL1        0.1674
     14 F          -8.9192    6.7572   25.9483 F       1  UNL1       -0.2018
     15 C          -6.6246    6.1015   26.9756 C.ar    1  UNL1        0.1674
     16 F          -7.0076    6.7742   28.2604 F       1  UNL1       -0.2018
     17 C          -5.2859    5.4373   26.8467 C.ar    1  UNL1        0.0320
     18 C           1.7908    1.4435   24.9179 C.3     1  UNL1        0.1822
     19 C           2.1003    0.6077   23.7115 C.ar    1  UNL1        0.0014
     20 C           1.4735    0.9381   22.3894 C.ar    1  UNL1       -0.0029
     21 C           1.7829    0.1023   21.1828 C.ar    1  UNL1       -0.0048
     22 C           2.7193   -1.0639   21.2985 C.ar    1  UNL1       -0.0247
     23 C           3.3461   -1.3942   22.6205 C.ar    1  UNL1       -0.0250
     24 C           3.0367   -0.5584   23.8270 C.ar    1  UNL1       -0.0071
     25 C           4.2994   -2.5038   22.9524 C.3     1  UNL1        0.0431
     26 C           4.8612   -3.5572   22.0440 C.3     1  UNL1        0.0733
     27 N           4.6084   -3.7610   20.5797 N.3     1  UNL1       -0.2969
     28 C           3.7316   -2.9619   19.6618 C.3     1  UNL1        0.0733
     29 C           2.8908   -1.7615   19.9817 C.3     1  UNL1        0.0431
     30 H           4.2482   -4.7129   20.5127 H       1  UNL1        0.1233
@<TRIPOS>BOND
     1     1     2    2
     2     2     3    2
     3     2    18    1
     4    18    19    1
     5    19    20   ar
     6    20    21   ar
     7    21    22   ar
     8    22    23   ar
     9    23    24   ar
    10    23    25    1
    11    25    26    1
    12    26    27    1
    13    27    28    1
    14    28    29    1
    15     2     4    1
    16     4     5   ar
    17     5     6   ar
    18     6     7   ar
    19     7    10    1
    20    10    11   ar
    21    11    12   ar
    22    12    13   ar
    23    13    14    1
    24    13    15   ar
    25    15    16    1
    26    15    17   ar
    27     7     8   ar
    28     8     9   ar
    29    24    19   ar
    30     9     4   ar
    31    29    22    1
    32    17    10   ar
    33    27    30    1
@<TRIPOS>MOLECULE
*****
 30 33 0 0 0
SMALL
GASTEIGER

@<TRIPOS>ATOM
      1 O          -0.5847    0.8441   20.4434 O.2     1  UNL1       -0.1683
      2 S           0.3741    1.9674   20.1808 S.O2    1  UNL1        0.0129
      3 O           1.3329    3.0907   19.9182 O.2     1  UNL1       -0.1683
      4 C           1.5227    1.0061   20.2622 C.ar    1  UNL1        0.1060
      5 C           2.3991    0.7817   19.0657 C.ar    1  UNL1        0.0184
      6 C           3.5477   -0.1797   19.1472 C.ar    1  UNL1        0.0013
      7 C           3.8199   -0.9166   20.4250 C.ar    1  UNL1        0.0002
      8 C           2.9435   -0.6922   21.6215 C.ar    1  UNL1        0.0013
      9 C           1.7949    0.2691   21.5401 C.ar    1  UNL1        0.0184
     10 C           4.9685   -1.8779   20.5065 C.ar    1  UNL1        0.0024
     11 C           4.9816   -2.9427   21.5629 C.ar    1  UNL1        0.0025
     12 C           6.1302   -3.9041   21.6445 C.ar    1  UNL1        0.0320
     13 C           7.2655   -3.8007   20.6696 C.ar    1  UNL1        0.1674
     14 F           8.4141   -4.7620   20.7511 F       1  UNL1       -0.2018
     15 C           7.2522   -2.7358   19.6131 C.ar    1  UNL1        0.1674
     16 F           8.3876   -2.6324   18.6383 F       1  UNL1       -0.2018
     17 C           6.1038   -1.7745   19.5316 C.ar    1  UNL1        0.0320
     18 C          -0.7745    2.9287   20.0994 C.3     1  UNL1        0.1822
     19 C          -1.6241    3.1862   21.3085 C.ar    1  UNL1        0.0014
     20 C          -0.9902    3.2768   22.6650 C.ar    1  UNL1       -0.0029
     21 C          -1.8397    3.5342   23.8741 C.ar    1  UNL1       -0.0048
     22 C          -3.3232    3.7011   23.7268 C.ar    1  UNL1       -0.0247
     23 C          -3.9569    3.6105   22.3704 C.ar    1  UNL1       -0.0250
     24 C          -3.1075    3.3530   21.1612 C.ar    1  UNL1       -0.0071
     25 C          -5.4053    3.7455   22.0039 C.3     1  UNL1        0.0431
     26 C          -6.5774    4.0045   22.9035 C.3     1  UNL1        0.0733
     27 N          -6.5906    4.1924   24.3915 N.3     1  UNL1       -0.2969
     28 C          -5.4352    4.1678   25.3477 C.3     1  UNL1        0.0733
     29 C          -3.9810    3.9491   25.0518 C.3     1  UNL1        0.0431
     30 H          -7.2219    3.4685   24.7348 H       1  UNL1        0.1233
@<TRIPOS>BOND
     1     1     2    2
     2     2     3    2
     3     2    18    1
     4    18    19    1
     5    19    20   ar
     6    20    21   ar
     7    21    22   ar
     8    22    23   ar
     9    23    24   ar
    10    23    25    1
    11    25    26    1
    12    26    27    1
    13    27    28    1
    14    28    29    1
    15     2     4    1
    16     4     5   ar
    17     5     6   ar
    18     6     7   ar
    19     7    10    1
    20    10    11   ar
    21    11    12   ar
    22    12    13   ar
    23    13    14    1
    24    13    15   ar
    25    15    16    1
    26    15    17   ar
    27     7     8   ar
    28     8     9   ar
    29    24    19   ar
    30     9     4   ar
    31    29    22    1
    32    17    10   ar
    33    27    30    1
@<TRIPOS>MOLECULE
*****
 30 33 0 0 0
SMALL
GASTEIGER

@<TRIPOS>ATOM
      1 O          -0.0330    3.6920   23.9832 O.2     1  UNL1       -0.1683
      2 S          -0.2972    2.4488   24.7797 S.O2    1  UNL1        0.0129
      3 O          -0.5615    1.2055   25.5763 O.2     1  UNL1       -0.1683
      4 C           0.4956    1.6466   23.7908 C.ar    1  UNL1        0.1060
      5 C           1.6227    0.7765   24.2626 C.ar    1  UNL1        0.0184
      6 C           2.4155   -0.0255   23.2735 C.ar    1  UNL1        0.0013
      7 C           2.0812    0.0424   21.8129 C.ar    1  UNL1        0.0002
      8 C           0.9541    0.9125   21.3411 C.ar    1  UNL1        0.0013
      9 C           0.1613    1.7146   22.3300 C.ar    1  UNL1        0.0184
     10 C           2.8740   -0.7597   20.8238 C.ar    1  UNL1        0.0024
     11 C           3.6617   -1.9506   21.2837 C.ar    1  UNL1        0.0025
     12 C           4.4544   -2.7528   20.2947 C.ar    1  UNL1        0.0320
     13 C           4.4596   -2.3640   18.8459 C.ar    1  UNL1        0.1674
     14 F           5.2524   -3.1662   17.8569 F       1  UNL1       -0.2018
     15 C           3.6719   -1.1731   18.3862 C.ar    1  UNL1        0.1674
     16 F           3.6770   -0.7845   16.9374 F       1  UNL1       -0.2018
     17 C           2.8791   -0.3711   19.3751 C.ar    1  UNL1        0.0320
     18 C          -1.0901    3.2509   25.7687 C.3     1  UNL1        0.1822
     19 C          -2.5031    3.6439   25.4546 C.ar    1  UNL1        0.0014
     20 C          -3.1325    3.2113   24.1635 C.ar    1  UNL1       -0.0029
     21 C          -4.5457    3.6043   23.8493 C.ar    1  UNL1       -0.0048
     22 C          -5.3293    4.4300   24.8262 C.ar    1  UNL1       -0.0247
     23 C          -4.6999    4.8626   26.1171 C.ar    1  UNL1       -0.0250
     24 C          -3.2869    4.4696   26.4313 C.ar    1  UNL1       -0.0071
     25 C          -5.2991    5.6824   27.2212 C.3     1  UNL1        0.0431
     26 C          -6.6758    6.2721   27.3068 C.3     1  UNL1        0.0733
     27 N          -7.7930    6.1876   26.3097 N.3     1  UNL1       -0.2969
     28 C          -7.8098    5.4925   24.9805 C.3     1  UNL1        0.0733
     29 C          -6.7134    4.7103   24.3203 C.3     1  UNL1        0.0431
     30 H          -8.0160    7.1590   26.0928 H       1  UNL1        0.1233
@<TRIPOS>BOND
     1     1     2    2
     2     2     3    2
     3     2    18    1
     4    18    19    1
     5    19    20   ar
     6    20    21   ar
     7    21    22   ar
     8    22    23   ar
     9    23    24   ar
    10    23    25    1
    11    25    26    1
    12    26    27    1
    13    27    28    1
    14    28    29    1
    15     2     4    1
    16     4     5   ar
    17     5     6   ar
    18     6     7   ar
    19     7    10    1
    20    10    11   ar
    21    11    12   ar
    22    12    13   ar
    23    13    14    1
    24    13    15   ar
    25    15    16    1
    26    15    17   ar
    27     7     8   ar
    28     8     9   ar
    29    24    19   ar
    30     9     4   ar
    31    29    22    1
    32    17    10   ar
    33    27    30    1
