@<TRIPOS>MOLECULE
*****
 30 32 0 0 0
SMALL
GASTEIGER

@<TRIPOS>ATOM
      1 C          -8.5892  -18.3520   22.2629 C.ar    1  UNL1       -0.0004
      2 C          -8.1466  -19.6677   21.6944 C.ar    1  UNL1       -0.0024
      3 C          -6.6862  -20.0036   21.6301 C.ar    1  UNL1       -0.0002
      4 C          -5.6683  -19.0240   22.1342 C.ar    1  UNL1        0.0030
      5 C          -4.2078  -19.3600   22.0699 C.ar    1  UNL1        0.0369
      6 C          -3.1899  -18.3803   22.5740 C.ar    1  UNL1        0.1386
      7 C          -3.6326  -17.0646   23.1425 C.ar    1  UNL1        0.0369
      8 C          -5.0930  -16.7286   23.2068 C.ar    1  UNL1        0.0031
      9 C          -6.1109  -17.7083   22.7027 C.ar    1  UNL1       -0.0001
     10 C          -7.5713  -17.3724   22.7670 C.ar    1  UNL1       -0.0024
     11 C         -10.0497  -18.0160   22.3272 C.3     1  UNL1        0.1240
     12 N         -10.7146  -17.3357   21.1674 N.ar    1  UNL1       -0.3045
     13 C         -10.9084  -15.8571   21.0056 C.ar    1  UNL1        0.0983
     14 C         -11.6160  -15.6220   19.7040 C.ar    1  UNL1        0.1193
     15 N         -11.8594  -16.9554   19.0613 N.ar    1  UNL1       -0.2223
     16 C         -11.3023  -18.0144   19.9658 C.ar    1  UNL1        0.1788
     17 C         -10.8453  -18.3604   23.5513 C.3     1  UNL1        0.0826
     18 N         -10.1621  -18.9544   24.7473 N.3     1  UNL1       -0.2696
     19 C         -10.0292  -20.4433   24.8724 C.3     1  UNL1        0.0897
     20 C          -9.6119  -18.0596   25.8180 C.3     1  UNL1        0.0897
     21 C         -13.1365  -18.5492   24.7617 C.3     1  UNL1        0.0015
     22 C         -12.3242  -18.1107   23.5794 C.3     1  UNL1        0.0182
     23 O          -1.7295  -18.7162   22.5097 O.3     1  UNL1       -0.4751
     24 C          -1.0893  -19.0293   21.1897 C.3     1  UNL1        0.2103
     25 C          -1.5654  -18.3433   19.9437 C.3     1  UNL1        0.0724
     26 C          -2.3722  -19.5557   19.5844 C.3     1  UNL1        0.0093
     27 C          -0.7587  -17.1308   20.3031 C.3     1  UNL1        0.0093
     28 C          -2.0416  -17.6572   18.6977 C.2     1  UNL1        0.0532
     29 O          -1.2720  -17.8061   17.4188 O.co2   1  UNL1       -0.5491
     30 O          -3.2872  -16.8222   18.7306 O.co2   1  UNL1       -0.5491
@<TRIPOS>UNITY_ATOM_ATTR
29 1
charge -1
@<TRIPOS>BOND
     1    21    22    1
     2    17    22    1
     3    17    11    1
     4    11     1    1
     5     1     2   ar
     6     2     3   ar
     7     3     4   ar
     8     4     5   ar
     9     5     6   ar
    10     6    23    1
    11    23    24    1
    12    24    25    1
    13    25    26    1
    14    25    27    1
    15    25    28    1
    16    28    29   ar
    17    28    30   ar
    18     6     7   ar
    19     7     8   ar
    20     8     9   ar
    21     9    10   ar
    22    11    12    1
    23    12    13   ar
    24    13    14   ar
    25    14    15   ar
    26    15    16   ar
    27    17    18    1
    28    18    19    1
    29    18    20    1
    30    10     1   ar
    31    16    12   ar
    32     9     4   ar
@<TRIPOS>MOLECULE
*****
 30 32 0 0 0
SMALL
GASTEIGER

@<TRIPOS>ATOM
      1 C          -9.3367  -17.4829   22.3471 C.ar    1  UNL1       -0.0004
      2 C          -8.8760  -16.2245   23.0210 C.ar    1  UNL1       -0.0024
      3 C          -7.4297  -16.0523   23.3798 C.ar    1  UNL1       -0.0002
      4 C          -6.4443  -17.1384   23.0647 C.ar    1  UNL1        0.0030
      5 C          -4.9981  -16.9662   23.4235 C.ar    1  UNL1        0.0369
      6 C          -4.0126  -18.0523   23.1084 C.ar    1  UNL1        0.1386
      7 C          -4.4735  -19.3107   22.4344 C.ar    1  UNL1        0.0369
      8 C          -5.9197  -19.4829   22.0756 C.ar    1  UNL1        0.0031
      9 C          -6.9051  -18.3968   22.3908 C.ar    1  UNL1       -0.0001
     10 C          -8.3513  -18.5690   22.0319 C.ar    1  UNL1       -0.0024
     11 C         -10.7830  -17.6551   21.9882 C.3     1  UNL1        0.1240
     12 N         -11.7901  -17.9585   23.0577 N.ar    1  UNL1       -0.3045
     13 C         -13.2472  -17.6042   23.0227 C.ar    1  UNL1        0.0983
     14 C         -13.8746  -18.0962   24.2933 C.ar    1  UNL1        0.1193
     15 N         -12.8051  -18.7545   25.1136 N.ar    1  UNL1       -0.2223
     16 C         -11.5169  -18.6694   24.3500 C.ar    1  UNL1        0.1788
     17 C         -11.2221  -17.5240   20.5600 C.3     1  UNL1        0.0826
     18 N         -11.5326  -16.1709   19.9920 N.3     1  UNL1       -0.2696
     19 C         -10.4263  -15.1871   19.7503 C.3     1  UNL1        0.0897
     20 C         -12.9493  -15.8015   19.6657 C.3     1  UNL1        0.0897
     21 C         -10.1292  -19.5323   19.3262 C.3     1  UNL1        0.0015
     22 C         -11.3508  -18.7461   19.6996 C.3     1  UNL1        0.0182
     23 O          -2.5664  -17.8801   23.4672 O.3     1  UNL1       -0.4751
     24 C          -1.5004  -18.2138   22.4660 C.3     1  UNL1        0.2103
     25 C          -1.7247  -17.9327   21.0098 C.3     1  UNL1        0.0724
     26 C          -1.6593  -19.4021   20.7161 C.3     1  UNL1        0.0093
     27 C          -1.7901  -16.4632   21.3036 C.3     1  UNL1        0.0093
     28 C          -1.9490  -17.6516   19.5536 C.2     1  UNL1        0.0532
     29 O          -0.8905  -18.0024   18.5503 O.co2   1  UNL1       -0.5491
     30 O          -3.2317  -17.0196   19.1006 O.co2   1  UNL1       -0.5491
@<TRIPOS>UNITY_ATOM_ATTR
29 1
charge -1
@<TRIPOS>BOND
     1    21    22    1
     2    17    22    1
     3    17    11    1
     4    11     1    1
     5     1     2   ar
     6     2     3   ar
     7     3     4   ar
     8     4     5   ar
     9     5     6   ar
    10     6    23    1
    11    23    24    1
    12    24    25    1
    13    25    26    1
    14    25    27    1
    15    25    28    1
    16    28    29   ar
    17    28    30   ar
    18     6     7   ar
    19     7     8   ar
    20     8     9   ar
    21     9    10   ar
    22    11    12    1
    23    12    13   ar
    24    13    14   ar
    25    14    15   ar
    26    15    16   ar
    27    17    18    1
    28    18    19    1
    29    18    20    1
    30    10     1   ar
    31    16    12   ar
    32     9     4   ar
@<TRIPOS>MOLECULE
*****
 30 32 0 0 0
SMALL
GASTEIGER

@<TRIPOS>ATOM
      1 C          -9.0983  -18.0441   22.1671 C.ar    1  UNL1       -0.0004
      2 C          -8.0770  -17.2302   22.9050 C.ar    1  UNL1       -0.0024
      3 C          -6.6185  -17.5508   22.7643 C.ar    1  UNL1       -0.0002
      4 C          -6.1812  -18.6853   21.8857 C.ar    1  UNL1        0.0030
      5 C          -4.7226  -19.0059   21.7451 C.ar    1  UNL1        0.0369
      6 C          -4.2854  -20.1403   20.8666 C.ar    1  UNL1        0.1386
      7 C          -5.3068  -20.9542   20.1287 C.ar    1  UNL1        0.0369
      8 C          -6.7653  -20.6336   20.2693 C.ar    1  UNL1        0.0031
      9 C          -7.2025  -19.4991   21.1479 C.ar    1  UNL1       -0.0001
     10 C          -8.6611  -19.1785   21.2885 C.ar    1  UNL1       -0.0024
     11 C         -10.5569  -17.7235   22.3077 C.3     1  UNL1        0.1240
     12 N         -11.2607  -16.9458   21.2353 N.ar    1  UNL1       -0.3045
     13 C         -10.6035  -16.1936   20.1162 C.ar    1  UNL1        0.0983
     14 C         -11.6818  -15.5667   19.2830 C.ar    1  UNL1        0.1193
     15 N         -13.0055  -15.9315   19.8872 N.ar    1  UNL1       -0.2223
     16 C         -12.7452  -16.7838   21.0938 C.ar    1  UNL1        0.1788
     17 C         -11.3117  -18.1805   23.5207 C.3     1  UNL1        0.0826
     18 N         -10.5944  -18.9028   24.6224 N.3     1  UNL1       -0.2696
     19 C          -9.9792  -18.1286   25.7504 C.3     1  UNL1        0.0897
     20 C         -10.4922  -20.3990   24.5962 C.3     1  UNL1        0.0897
     21 C         -13.5597  -18.4661   24.7917 C.3     1  UNL1        0.0015
     22 C         -12.7840  -17.9154   23.6320 C.3     1  UNL1        0.0182
     23 O          -2.8268  -20.4609   20.7259 O.3     1  UNL1       -0.4751
     24 C          -1.8090  -19.6813   21.5046 C.3     1  UNL1        0.2103
     25 C          -1.6563  -18.2071   21.2737 C.3     1  UNL1        0.0724
     26 C          -1.3104  -18.4678   19.8376 C.3     1  UNL1        0.0093
     27 C          -2.0023  -17.9463   22.7097 C.3     1  UNL1        0.0093
     28 C          -1.5036  -16.7329   21.0428 C.2     1  UNL1        0.0532
     29 O          -0.3849  -16.2199   20.1851 O.co2   1  UNL1       -0.5491
     30 O          -2.4695  -15.7715   21.6695 O.co2   1  UNL1       -0.5491
@<TRIPOS>UNITY_ATOM_ATTR
29 1
charge -1
@<TRIPOS>BOND
     1    21    22    1
     2    17    22    1
     3    17    11    1
     4    11     1    1
     5     1     2   ar
     6     2     3   ar
     7     3     4   ar
     8     4     5   ar
     9     5     6   ar
    10     6    23    1
    11    23    24    1
    12    24    25    1
    13    25    26    1
    14    25    27    1
    15    25    28    1
    16    28    29   ar
    17    28    30   ar
    18     6     7   ar
    19     7     8   ar
    20     8     9   ar
    21     9    10   ar
    22    11    12    1
    23    12    13   ar
    24    13    14   ar
    25    14    15   ar
    26    15    16   ar
    27    17    18    1
    28    18    19    1
    29    18    20    1
    30    10     1   ar
    31    16    12   ar
    32     9     4   ar
@<TRIPOS>MOLECULE
*****
 30 32 0 0 0
SMALL
GASTEIGER

@<TRIPOS>ATOM
      1 C           3.2898   -0.9338   21.1366 C.ar    1  UNL1       -0.0004
      2 C           2.0573   -0.2715   20.5961 C.ar    1  UNL1       -0.0024
      3 C           1.1565    0.5001   21.5143 C.ar    1  UNL1       -0.0002
      4 C           1.4882    0.6095   22.9730 C.ar    1  UNL1        0.0030
      5 C           0.5873    1.3812   23.8912 C.ar    1  UNL1        0.0369
      6 C           0.9191    1.4906   25.3500 C.ar    1  UNL1        0.1386
      7 C           2.1517    0.8283   25.8905 C.ar    1  UNL1        0.0369
      8 C           3.0525    0.0567   24.9723 C.ar    1  UNL1        0.0031
      9 C           2.7208   -0.0527   23.5136 C.ar    1  UNL1       -0.0001
     10 C           3.6215   -0.8244   22.5954 C.ar    1  UNL1       -0.0024
     11 C           4.1907   -1.7054   20.2184 C.3     1  UNL1        0.1240
     12 N           4.6297   -1.1023   18.9171 N.ar    1  UNL1       -0.3045
     13 C           5.7819   -0.1612   18.7257 C.ar    1  UNL1        0.0983
     14 C           5.8579    0.1884   17.2690 C.ar    1  UNL1        0.1193
     15 N           4.7527   -0.5368   16.5600 N.ar    1  UNL1       -0.2223
     16 C           3.9936   -1.3344   17.5786 C.ar    1  UNL1        0.1788
     17 C           4.6525   -3.0801   20.6016 C.3     1  UNL1        0.0826
     18 N           5.8409   -3.2485   21.5012 N.3     1  UNL1       -0.2696
     19 C           5.6626   -3.8037   22.8833 C.3     1  UNL1        0.0897
     20 C           7.2075   -2.8619   21.0188 C.3     1  UNL1        0.0897
     21 C           4.4414   -5.0129   18.8782 C.3     1  UNL1        0.0015
     22 C           3.9259   -4.2866   20.0851 C.3     1  UNL1        0.0182
     23 O           0.0183    2.2622   26.2682 O.3     1  UNL1       -0.4751
     24 C          -0.7976    1.5405   27.2995 C.3     1  UNL1        0.2103
     25 C          -0.1946    1.2021   28.6306 C.3     1  UNL1        0.0724
     26 C           0.3883    2.5815   28.7172 C.3     1  UNL1        0.0093
     27 C          -0.7776   -0.1772   28.5440 C.3     1  UNL1        0.0093
     28 C           0.4083    0.8638   29.9617 C.2     1  UNL1        0.0532
     29 O           1.3647   -0.2856   30.0815 O.co2   1  UNL1       -0.5491
     30 O           0.0550    1.6748   31.1731 O.co2   1  UNL1       -0.5491
@<TRIPOS>UNITY_ATOM_ATTR
29 1
charge -1
@<TRIPOS>BOND
     1    21    22    1
     2    17    22    1
     3    17    11    1
     4    11     1    1
     5     1     2   ar
     6     2     3   ar
     7     3     4   ar
     8     4     5   ar
     9     5     6   ar
    10     6    23    1
    11    23    24    1
    12    24    25    1
    13    25    26    1
    14    25    27    1
    15    25    28    1
    16    28    29   ar
    17    28    30   ar
    18     6     7   ar
    19     7     8   ar
    20     8     9   ar
    21     9    10   ar
    22    11    12    1
    23    12    13   ar
    24    13    14   ar
    25    14    15   ar
    26    15    16   ar
    27    17    18    1
    28    18    19    1
    29    18    20    1
    30    10     1   ar
    31    16    12   ar
    32     9     4   ar
@<TRIPOS>MOLECULE
*****
 30 32 0 0 0
SMALL
GASTEIGER

@<TRIPOS>ATOM
      1 C           3.7512   -1.1961   21.5286 C.ar    1  UNL1       -0.0004
      2 C           2.5971   -0.5243   20.8453 C.ar    1  UNL1       -0.0024
      3 C           1.6307    0.3006   21.6423 C.ar    1  UNL1       -0.0002
      4 C           1.8182    0.4539   23.1226 C.ar    1  UNL1        0.0030
      5 C           0.8517    1.2790   23.9196 C.ar    1  UNL1        0.0369
      6 C           1.0392    1.4322   25.4000 C.ar    1  UNL1        0.1386
      7 C           2.1933    0.7605   26.0833 C.ar    1  UNL1        0.0369
      8 C           3.1598   -0.0645   25.2862 C.ar    1  UNL1        0.0031
      9 C           2.9723   -0.2178   23.8059 C.ar    1  UNL1       -0.0001
     10 C           3.9387   -1.0428   23.0089 C.ar    1  UNL1       -0.0024
     11 C           4.7177   -2.0211   20.7316 C.3     1  UNL1        0.1240
     12 N           6.0309   -2.4268   21.3325 N.ar    1  UNL1       -0.3045
     13 C           7.2495   -1.5609   21.4550 C.ar    1  UNL1        0.0983
     14 C           8.3277   -2.3686   22.1147 C.ar    1  UNL1        0.1193
     15 N           7.7754   -3.7337   22.3998 N.ar    1  UNL1       -0.2223
     16 C           6.3559   -3.7697   21.9165 C.ar    1  UNL1        0.1788
     17 C           4.3711   -2.4404   19.3338 C.3     1  UNL1        0.0826
     18 N           4.8116   -1.6042   18.1689 N.3     1  UNL1       -0.2696
     19 C           6.2735   -1.4252   17.8844 C.3     1  UNL1        0.0897
     20 C           3.7902   -0.9471   17.2886 C.3     1  UNL1        0.0897
     21 C           4.2943   -5.0070   18.9380 C.3     1  UNL1        0.0015
     22 C           3.5841   -3.6959   19.1007 C.3     1  UNL1        0.0182
     23 O           0.0727    2.2572   26.1970 O.3     1  UNL1       -0.4751
     24 C          -0.7932    1.6049   27.2336 C.3     1  UNL1        0.2103
     25 C          -0.2206    1.2498   28.5738 C.3     1  UNL1        0.0724
     26 C           0.3328    2.6377   28.7051 C.3     1  UNL1        0.0093
     27 C          -0.7740   -0.1382   28.4424 C.3     1  UNL1        0.0093
     28 C           0.3520    0.8947   29.9139 C.2     1  UNL1        0.0532
     29 O           0.0038    1.7160   31.1198 O.co2   1  UNL1       -0.5491
     30 O           1.2729   -0.2818   30.0481 O.co2   1  UNL1       -0.5491
@<TRIPOS>UNITY_ATOM_ATTR
29 1
charge -1
@<TRIPOS>BOND
     1    21    22    1
     2    17    22    1
     3    17    11    1
     4    11     1    1
     5     1     2   ar
     6     2     3   ar
     7     3     4   ar
     8     4     5   ar
     9     5     6   ar
    10     6    23    1
    11    23    24    1
    12    24    25    1
    13    25    26    1
    14    25    27    1
    15    25    28    1
    16    28    29   ar
    17    28    30   ar
    18     6     7   ar
    19     7     8   ar
    20     8     9   ar
    21     9    10   ar
    22    11    12    1
    23    12    13   ar
    24    13    14   ar
    25    14    15   ar
    26    15    16   ar
    27    17    18    1
    28    18    19    1
    29    18    20    1
    30    10     1   ar
    31    16    12   ar
    32     9     4   ar
@<TRIPOS>MOLECULE
*****
 30 32 0 0 0
SMALL
GASTEIGER

@<TRIPOS>ATOM
      1 C           4.1157   -1.8228   21.7122 C.ar    1  UNL1       -0.0004
      2 C           5.3821   -2.6250   21.7644 C.ar    1  UNL1       -0.0024
      3 C           6.0516   -2.8846   23.0813 C.ar    1  UNL1       -0.0002
      4 C           5.4546   -2.3421   24.3460 C.ar    1  UNL1        0.0030
      5 C           6.1242   -2.6018   25.6630 C.ar    1  UNL1        0.0369
      6 C           5.5272   -2.0594   26.9277 C.ar    1  UNL1        0.1386
      7 C           4.2608   -1.2572   26.8754 C.ar    1  UNL1        0.0369
      8 C           3.5913   -0.9975   25.5584 C.ar    1  UNL1        0.0031
      9 C           4.1882   -1.5400   24.2938 C.ar    1  UNL1       -0.0001
     10 C           3.5188   -1.2803   22.9768 C.ar    1  UNL1       -0.0024
     11 C           3.4462   -1.5631   20.3952 C.3     1  UNL1        0.1240
     12 N           2.4200   -0.4755   20.2771 N.ar    1  UNL1       -0.3045
     13 C           2.7014    0.9926   20.1523 C.ar    1  UNL1        0.0983
     14 C           1.3875    1.7104   20.0612 C.ar    1  UNL1        0.1193
     15 N           0.2939    0.6860   20.1298 N.ar    1  UNL1       -0.2223
     16 C           0.9320   -0.6649   20.2632 C.ar    1  UNL1        0.1788
     17 C           3.8029   -2.3910   19.1963 C.3     1  UNL1        0.0826
     18 N           4.6137   -1.7920   18.0855 N.3     1  UNL1       -0.2696
     19 C           6.1043   -1.9589   18.0708 C.3     1  UNL1        0.0897
     20 C           3.9339   -1.0262   16.9895 C.3     1  UNL1        0.0897
     21 C           4.3577   -4.9185   18.9640 C.3     1  UNL1        0.0015
     22 C           3.3488   -3.8180   19.1082 C.3     1  UNL1        0.0182
     23 O           6.1967   -2.3190   28.2446 O.3     1  UNL1       -0.4751
     24 C           7.4486   -3.1436   28.2999 C.3     1  UNL1        0.2103
     25 C           7.4317   -4.4892   28.9625 C.3     1  UNL1        0.0724
     26 C           8.0348   -5.1020   27.7335 C.3     1  UNL1        0.0093
     27 C           6.8285   -3.8763   30.1916 C.3     1  UNL1        0.0093
     28 C           7.4148   -5.8347   29.6252 C.2     1  UNL1        0.0532
     29 O           6.7337   -6.0098   30.9501 O.co2   1  UNL1       -0.5491
     30 O           8.0790   -7.0053   28.9629 O.co2   1  UNL1       -0.5491
@<TRIPOS>UNITY_ATOM_ATTR
29 1
charge -1
@<TRIPOS>BOND
     1    21    22    1
     2    17    22    1
     3    17    11    1
     4    11     1    1
     5     1     2   ar
     6     2     3   ar
     7     3     4   ar
     8     4     5   ar
     9     5     6   ar
    10     6    23    1
    11    23    24    1
    12    24    25    1
    13    25    26    1
    14    25    27    1
    15    25    28    1
    16    28    29   ar
    17    28    30   ar
    18     6     7   ar
    19     7     8   ar
    20     8     9   ar
    21     9    10   ar
    22    11    12    1
    23    12    13   ar
    24    13    14   ar
    25    14    15   ar
    26    15    16   ar
    27    17    18    1
    28    18    19    1
    29    18    20    1
    30    10     1   ar
    31    16    12   ar
    32     9     4   ar
@<TRIPOS>MOLECULE
*****
 30 32 0 0 0
SMALL
GASTEIGER

@<TRIPOS>ATOM
      1 C           3.9790   -1.8724   21.7771 C.ar    1  UNL1       -0.0004
      2 C           3.4917   -1.1149   22.9766 C.ar    1  UNL1       -0.0024
      3 C           4.0696   -1.4024   24.3306 C.ar    1  UNL1       -0.0002
      4 C           5.1346   -2.4473   24.4852 C.ar    1  UNL1        0.0030
      5 C           5.7124   -2.7347   25.8393 C.ar    1  UNL1        0.0369
      6 C           6.7775   -3.7796   25.9939 C.ar    1  UNL1        0.1386
      7 C           7.2647   -4.5370   24.7943 C.ar    1  UNL1        0.0369
      8 C           6.6869   -4.2496   23.4402 C.ar    1  UNL1        0.0031
      9 C           5.6219   -3.2047   23.2857 C.ar    1  UNL1       -0.0001
     10 C           5.0441   -2.9172   21.9316 C.ar    1  UNL1       -0.0024
     11 C           3.4012   -1.5849   20.4230 C.3     1  UNL1        0.1240
     12 N           2.4243   -0.4602   20.2477 N.ar    1  UNL1       -0.3045
     13 C           0.9295   -0.5756   20.2929 C.ar    1  UNL1        0.0983
     14 C           0.3521    0.7907   20.0696 C.ar    1  UNL1        0.1193
     15 N           1.4901    1.7506   19.8865 N.ar    1  UNL1       -0.2223
     16 C           2.7708    0.9775   19.9966 C.ar    1  UNL1        0.1788
     17 C           3.8002   -2.4222   19.2442 C.3     1  UNL1        0.0826
     18 N           4.6312   -1.8254   18.1472 N.3     1  UNL1       -0.2696
     19 C           3.9722   -1.0547   17.0418 C.3     1  UNL1        0.0897
     20 C           6.1210   -1.9993   18.1555 C.3     1  UNL1        0.0897
     21 C           4.3876   -4.9355   18.9463 C.3     1  UNL1        0.0015
     22 C           3.3683   -3.8564   19.1623 C.3     1  UNL1        0.0182
     23 O           7.3553   -4.0670   27.3479 O.3     1  UNL1       -0.4751
     24 C           6.4564   -4.4857   28.4735 C.3     1  UNL1        0.2103
     25 C           6.9126   -4.3328   29.8942 C.3     1  UNL1        0.0724
     26 C           6.6364   -2.8601   29.8244 C.3     1  UNL1        0.0093
     27 C           7.1888   -5.8055   29.9640 C.3     1  UNL1        0.0093
     28 C           7.3688   -4.1799   31.3149 C.2     1  UNL1        0.0532
     29 O           6.3633   -3.9584   32.4058 O.co2   1  UNL1       -0.5491
     30 O           8.8305   -4.2486   31.6448 O.co2   1  UNL1       -0.5491
@<TRIPOS>UNITY_ATOM_ATTR
29 1
charge -1
@<TRIPOS>BOND
     1    21    22    1
     2    17    22    1
     3    17    11    1
     4    11     1    1
     5     1     2   ar
     6     2     3   ar
     7     3     4   ar
     8     4     5   ar
     9     5     6   ar
    10     6    23    1
    11    23    24    1
    12    24    25    1
    13    25    26    1
    14    25    27    1
    15    25    28    1
    16    28    29   ar
    17    28    30   ar
    18     6     7   ar
    19     7     8   ar
    20     8     9   ar
    21     9    10   ar
    22    11    12    1
    23    12    13   ar
    24    13    14   ar
    25    14    15   ar
    26    15    16   ar
    27    17    18    1
    28    18    19    1
    29    18    20    1
    30    10     1   ar
    31    16    12   ar
    32     9     4   ar
@<TRIPOS>MOLECULE
*****
 30 32 0 0 0
SMALL
GASTEIGER

@<TRIPOS>ATOM
      1 C           2.9235   -1.0408   21.0105 C.ar    1  UNL1       -0.0004
      2 C           1.6940   -0.8922   20.1643 C.ar    1  UNL1       -0.0024
      3 C           0.6468    0.1163   20.5336 C.ar    1  UNL1       -0.0002
      4 C           0.8292    0.9760   21.7491 C.ar    1  UNL1        0.0030
      5 C          -0.2181    1.9845   22.1184 C.ar    1  UNL1        0.0369
      6 C          -0.0357    2.8443   23.3340 C.ar    1  UNL1        0.1386
      7 C           1.1939    2.6956   24.1802 C.ar    1  UNL1        0.0369
      8 C           2.2410    1.6871   23.8109 C.ar    1  UNL1        0.0031
      9 C           2.0587    0.8274   22.5954 C.ar    1  UNL1       -0.0001
     10 C           3.1059   -0.1811   22.2260 C.ar    1  UNL1       -0.0024
     11 C           3.9708   -2.0493   20.6412 C.3     1  UNL1        0.1240
     12 N           4.9453   -2.5313   21.6746 N.ar    1  UNL1       -0.3045
     13 C           6.3566   -2.0533   21.8464 C.ar    1  UNL1        0.0983
     14 C           6.9632   -2.8025   22.9957 C.ar    1  UNL1        0.1193
     15 N           5.9267   -3.7436   23.5342 N.ar    1  UNL1       -0.2223
     16 C           4.6796   -3.5760   22.7177 C.ar    1  UNL1        0.1788
     17 C           4.0434   -2.5757   19.2385 C.3     1  UNL1        0.0826
     18 N           4.6888   -1.7547   18.1618 N.3     1  UNL1       -0.2696
     19 C           6.1833   -1.7243   18.0359 C.3     1  UNL1        0.0897
     20 C           3.8399   -0.9641   17.2109 C.3     1  UNL1        0.0897
     21 C           4.3480   -5.1394   18.9472 C.3     1  UNL1        0.0015
     22 C           3.4707   -3.9233   18.9125 C.3     1  UNL1        0.0182
     23 O          -1.0829    3.8527   23.7033 O.3     1  UNL1       -0.4751
     24 C          -2.2659    4.0684   22.8065 C.3     1  UNL1        0.2103
     25 C          -3.6542    3.8513   23.3312 C.3     1  UNL1        0.0724
     26 C          -4.0809    3.3357   21.9888 C.3     1  UNL1        0.0093
     27 C          -3.2275    4.3668   24.6736 C.3     1  UNL1        0.0093
     28 C          -5.0425    3.6341   23.8558 C.2     1  UNL1        0.0532
     29 O          -5.2561    3.3300   25.3091 O.co2   1  UNL1       -0.5491
     30 O          -6.2174    3.7211   22.9272 O.co2   1  UNL1       -0.5491
@<TRIPOS>UNITY_ATOM_ATTR
29 1
charge -1
@<TRIPOS>BOND
     1    21    22    1
     2    17    22    1
     3    17    11    1
     4    11     1    1
     5     1     2   ar
     6     2     3   ar
     7     3     4   ar
     8     4     5   ar
     9     5     6   ar
    10     6    23    1
    11    23    24    1
    12    24    25    1
    13    25    26    1
    14    25    27    1
    15    25    28    1
    16    28    29   ar
    17    28    30   ar
    18     6     7   ar
    19     7     8   ar
    20     8     9   ar
    21     9    10   ar
    22    11    12    1
    23    12    13   ar
    24    13    14   ar
    25    14    15   ar
    26    15    16   ar
    27    17    18    1
    28    18    19    1
    29    18    20    1
    30    10     1   ar
    31    16    12   ar
    32     9     4   ar
@<TRIPOS>MOLECULE
*****
 30 32 0 0 0
SMALL
GASTEIGER

@<TRIPOS>ATOM
      1 C           2.8341   -0.3140   21.1863 C.ar    1  UNL1       -0.0004
      2 C           1.5010    0.2385   20.7774 C.ar    1  UNL1       -0.0024
      3 C           0.6104    0.8816   21.7988 C.ar    1  UNL1       -0.0002
      4 C           1.0530    0.9720   23.2292 C.ar    1  UNL1        0.0030
      5 C           0.1623    1.6151   24.2506 C.ar    1  UNL1        0.0369
      6 C           0.6049    1.7055   25.6810 C.ar    1  UNL1        0.1386
      7 C           1.9382    1.1529   26.0899 C.ar    1  UNL1        0.0369
      8 C           2.8288    0.5099   25.0685 C.ar    1  UNL1        0.0031
      9 C           2.3862    0.4195   23.6381 C.ar    1  UNL1       -0.0001
     10 C           3.2767   -0.2236   22.6167 C.ar    1  UNL1       -0.0024
     11 C           3.7248   -0.9571   20.1649 C.3     1  UNL1        0.1240
     12 N           3.8972   -2.4471   20.1519 N.ar    1  UNL1       -0.3045
     13 C           3.2167   -3.4053   19.2199 C.ar    1  UNL1        0.0983
     14 C           3.6793   -4.7909   19.5606 C.ar    1  UNL1        0.1193
     15 N           4.6458   -4.6891   20.7032 N.ar    1  UNL1       -0.2223
     16 C           4.7804   -3.2405   21.0686 C.ar    1  UNL1        0.1788
     17 C           4.4430   -0.1102   19.1565 C.3     1  UNL1        0.0826
     18 N           4.9169   -0.7166   17.8690 N.3     1  UNL1       -0.2696
     19 C           3.9828   -0.8191   16.6997 C.3     1  UNL1        0.0897
     20 C           6.3247   -1.2205   17.7507 C.3     1  UNL1        0.0897
     21 C           3.8494    2.3880   18.7599 C.3     1  UNL1        0.0015
     22 C           4.6873    1.3433   19.4356 C.3     1  UNL1        0.0182
     23 O          -0.2857    2.3486   26.7024 O.3     1  UNL1       -0.4751
     24 C          -0.8822    1.5228   27.8035 C.3     1  UNL1        0.2103
     25 C          -0.0471    1.1366   28.9881 C.3     1  UNL1        0.0724
     26 C           0.3547    2.5700   29.1722 C.3     1  UNL1        0.0093
     27 C          -0.4488   -0.2968   28.8040 C.3     1  UNL1        0.0093
     28 C           0.7881    0.7504   30.1727 C.2     1  UNL1        0.0532
     29 O           0.7763    1.6011   31.4081 O.co2   1  UNL1       -0.5491
     30 O           1.6351   -0.4866   30.1219 O.co2   1  UNL1       -0.5491
@<TRIPOS>UNITY_ATOM_ATTR
29 1
charge -1
@<TRIPOS>BOND
     1    21    22    1
     2    17    22    1
     3    17    11    1
     4    11     1    1
     5     1     2   ar
     6     2     3   ar
     7     3     4   ar
     8     4     5   ar
     9     5     6   ar
    10     6    23    1
    11    23    24    1
    12    24    25    1
    13    25    26    1
    14    25    27    1
    15    25    28    1
    16    28    29   ar
    17    28    30   ar
    18     6     7   ar
    19     7     8   ar
    20     8     9   ar
    21     9    10   ar
    22    11    12    1
    23    12    13   ar
    24    13    14   ar
    25    14    15   ar
    26    15    16   ar
    27    17    18    1
    28    18    19    1
    29    18    20    1
    30    10     1   ar
    31    16    12   ar
    32     9     4   ar
