@<TRIPOS>MOLECULE
*****
 26 27 0 0 0
SMALL
GASTEIGER

@<TRIPOS>ATOM
      1 C          -6.8973  -18.8257   21.9010 C.ar    1  UNL1        0.0252
      2 C          -7.7139  -17.5794   22.0733 C.ar    1  UNL1       -0.0009
      3 C          -9.0182  -17.6336   22.8121 C.ar    1  UNL1        0.0210
      4 C          -9.5060  -18.9341   23.3784 C.ar    1  UNL1        0.1397
      5 F         -10.8104  -18.9883   24.1172 F       1  UNL1       -0.2044
      6 C          -8.6894  -20.1804   23.2061 C.ar    1  UNL1        0.0587
      7 C          -7.3850  -20.1263   22.4673 C.ar    1  UNL1        0.1401
      8 F          -6.5683  -21.3726   22.2949 F       1  UNL1       -0.2044
      9 C          -6.5254  -19.0615   20.0235 C.3     1  UNL1        0.0291
     10 C          -5.5929  -18.7716   21.1622 C.3     1  UNL1        0.1080
     11 C          -5.1135  -18.5005   22.5574 C.3     1  UNL1        0.0388
     12 C          -3.6536  -18.2759   22.8184 C.3     1  UNL1        0.0671
     13 S          -2.6730  -18.3225   21.6842 S.3     1  UNL1       -0.0807
     14 C          -3.1525  -18.5936   20.2890 C.2     1  UNL1        0.1482
     15 N          -2.1719  -18.6401   19.1547 N.pl3   1  UNL1       -0.3380
     16 N          -4.6124  -18.8181   20.0280 N.2     1  UNL1       -0.2509
     17 H          -1.2137  -18.4927   19.3261 H       1  UNL1        0.1442
     18 H          -2.4866  -18.8180   18.2390 H       1  UNL1        0.1442
     19 C          -9.8349  -16.3872   22.9844 C.3     1  UNL1        0.0981
     20 N         -10.4909  -15.7500   21.7955 N.3     1  UNL1       -0.2866
     21 H          -9.7925  -15.7241   21.0525 H       1  UNL1        0.1238
     22 C         -11.7283  -16.3589   21.2056 C.3     1  UNL1        0.1734
     23 C         -12.6488  -17.1709   22.0677 C.3     1  UNL1        0.4118
     24 F         -13.5694  -17.9830   22.9298 F       1  UNL1       -0.1685
     25 F         -13.0418  -15.9315   22.8156 F       1  UNL1       -0.1685
     26 F         -12.2559  -18.4104   21.3198 F       1  UNL1       -0.1685
@<TRIPOS>BOND
     1    10     9    1
     2    10     1    1
     3     1     2   ar
     4     2     3   ar
     5     3    19    1
     6    19    20    1
     7    20    22    1
     8    22    23    1
     9    23    24    1
    10    23    25    1
    11    23    26    1
    12     3     4   ar
    13     4     5    1
    14     4     6   ar
    15     6     7   ar
    16     7     8    1
    17    10    11    1
    18    11    12    1
    19    12    13    1
    20    13    14    1
    21    14    15    1
    22    14    16    2
    23    16    10    1
    24     7     1   ar
    25    20    21    1
    26    15    17    1
    27    15    18    1
@<TRIPOS>MOLECULE
*****
 26 27 0 0 0
SMALL
GASTEIGER

@<TRIPOS>ATOM
      1 C          -8.9983  -18.9009   21.5802 C.ar    1  UNL1        0.0252
      2 C          -7.7381  -18.7298   22.3754 C.ar    1  UNL1       -0.0009
      3 C          -6.4078  -19.0130   21.7429 C.ar    1  UNL1        0.0210
      4 C          -6.3378  -19.4674   20.3151 C.ar    1  UNL1        0.1397
      5 F          -5.0075  -19.7507   19.6825 F       1  UNL1       -0.2044
      6 C          -7.5981  -19.6386   19.5198 C.ar    1  UNL1        0.0587
      7 C          -8.9283  -19.3554   20.1524 C.ar    1  UNL1        0.1401
      8 F         -10.1886  -19.5265   19.3571 F       1  UNL1       -0.2044
      9 C         -10.1346  -20.0422   22.6409 C.3     1  UNL1        0.0291
     10 C         -10.3287  -18.6177   22.2127 C.3     1  UNL1        0.1080
     11 C         -10.0607  -17.2917   21.5649 C.3     1  UNL1        0.0388
     12 C         -11.0556  -16.1771   21.6983 C.3     1  UNL1        0.0671
     13 S         -12.3185  -16.3886   22.4795 S.3     1  UNL1       -0.0807
     14 C         -12.5865  -17.7146   23.1274 C.2     1  UNL1        0.1482
     15 N         -13.8495  -17.9261   23.9086 N.pl3   1  UNL1       -0.3380
     16 N         -11.5916  -18.8292   22.9940 N.2     1  UNL1       -0.2509
     17 H         -14.5025  -17.1946   23.9962 H       1  UNL1        0.1442
     18 H         -14.0253  -18.7965   24.3338 H       1  UNL1        0.1442
     19 C          -5.1475  -18.8419   22.5381 C.3     1  UNL1        0.0981
     20 N          -4.2318  -17.6885   22.2533 N.3     1  UNL1       -0.2866
     21 H          -4.3196  -17.0422   23.0376 H       1  UNL1        0.1238
     22 C          -2.7649  -17.9276   22.0513 C.3     1  UNL1        0.1734
     23 C          -2.2542  -18.3676   20.7113 C.3     1  UNL1        0.4118
     24 F          -1.7435  -18.8076   19.3713 F       1  UNL1       -0.1685
     25 F          -2.3610  -16.9586   20.2080 F       1  UNL1       -0.1685
     26 F          -2.1474  -19.7766   21.2147 F       1  UNL1       -0.1685
@<TRIPOS>BOND
     1    10     9    1
     2    10     1    1
     3     1     2   ar
     4     2     3   ar
     5     3    19    1
     6    19    20    1
     7    20    22    1
     8    22    23    1
     9    23    24    1
    10    23    25    1
    11    23    26    1
    12     3     4   ar
    13     4     5    1
    14     4     6   ar
    15     6     7   ar
    16     7     8    1
    17    10    11    1
    18    11    12    1
    19    12    13    1
    20    13    14    1
    21    14    15    1
    22    14    16    2
    23    16    10    1
    24     7     1   ar
    25    20    21    1
    26    15    17    1
    27    15    18    1
@<TRIPOS>MOLECULE
*****
 26 27 0 0 0
SMALL
GASTEIGER

@<TRIPOS>ATOM
      1 C          -6.6764  -18.7416   21.9911 C.ar    1  UNL1        0.0252
      2 C          -7.3560  -17.4639   22.3856 C.ar    1  UNL1       -0.0009
      3 C          -8.6361  -17.5055   23.1663 C.ar    1  UNL1        0.0210
      4 C          -9.2366  -18.8247   23.5524 C.ar    1  UNL1        0.1397
      5 F         -10.5168  -18.8662   24.3331 F       1  UNL1       -0.2044
      6 C          -8.5570  -20.1023   23.1579 C.ar    1  UNL1        0.0587
      7 C          -7.2769  -20.0608   22.3772 C.ar    1  UNL1        0.1401
      8 F          -6.5972  -21.3384   21.9826 F       1  UNL1       -0.2044
      9 C          -6.3693  -18.9689   20.1009 C.3     1  UNL1        0.0291
     10 C          -5.3962  -18.7000   21.2104 C.3     1  UNL1        0.1080
     11 C          -4.8677  -18.4456   22.5909 C.3     1  UNL1        0.0388
     12 C          -3.3970  -18.2429   22.8055 C.3     1  UNL1        0.0671
     13 S          -2.4548  -18.2948   21.6394 S.3     1  UNL1       -0.0807
     14 C          -2.9833  -18.5493   20.2589 C.2     1  UNL1        0.1482
     15 N          -2.0411  -18.6011   19.0929 N.pl3   1  UNL1       -0.3380
     16 N          -4.4539  -18.7519   20.0443 N.2     1  UNL1       -0.2509
     17 H          -1.0758  -18.4682   19.2337 H       1  UNL1        0.1442
     18 H          -2.3879  -18.7682   18.1868 H       1  UNL1        0.1442
     19 C          -9.3158  -16.2278   23.5609 C.3     1  UNL1        0.0981
     20 N          -8.5702  -15.1955   24.3536 N.3     1  UNL1       -0.2866
     21 H          -9.2168  -14.4228   24.5126 H       1  UNL1        0.1238
     22 C          -7.9857  -15.5526   25.6880 C.3     1  UNL1        0.1734
     23 C          -6.5017  -15.4905   25.8976 C.3     1  UNL1        0.4118
     24 F          -5.0177  -15.4283   26.1072 F       1  UNL1       -0.1685
     25 F          -6.6797  -15.9821   27.3035 F       1  UNL1       -0.1685
     26 F          -6.3237  -14.9988   24.4917 F       1  UNL1       -0.1685
@<TRIPOS>BOND
     1    10     9    1
     2    10     1    1
     3     1     2   ar
     4     2     3   ar
     5     3    19    1
     6    19    20    1
     7    20    22    1
     8    22    23    1
     9    23    24    1
    10    23    25    1
    11    23    26    1
    12     3     4   ar
    13     4     5    1
    14     4     6   ar
    15     6     7   ar
    16     7     8    1
    17    10    11    1
    18    11    12    1
    19    12    13    1
    20    13    14    1
    21    14    15    1
    22    14    16    2
    23    16    10    1
    24     7     1   ar
    25    20    21    1
    26    15    17    1
    27    15    18    1
@<TRIPOS>MOLECULE
*****
 26 27 0 0 0
SMALL
GASTEIGER

@<TRIPOS>ATOM
      1 C          -8.6428  -17.1954   23.5652 C.ar    1  UNL1        0.0252
      2 C          -7.7482  -18.1290   22.8050 C.ar    1  UNL1       -0.0009
      3 C          -6.2691  -17.8827   22.7633 C.ar    1  UNL1        0.0210
      4 C          -5.6848  -16.7027   23.4818 C.ar    1  UNL1        0.1397
      5 F          -4.2057  -16.4564   23.4401 F       1  UNL1       -0.2044
      6 C          -6.5795  -15.7691   24.2420 C.ar    1  UNL1        0.0587
      7 C          -8.0585  -16.0155   24.2837 C.ar    1  UNL1        0.1401
      8 F          -8.9532  -15.0819   25.0439 F       1  UNL1       -0.2044
      9 C          -9.6939  -18.2206   24.8154 C.3     1  UNL1        0.0291
     10 C         -10.1219  -17.4418   23.6069 C.3     1  UNL1        0.1080
     11 C         -10.0362  -16.5774   22.3840 C.3     1  UNL1        0.0388
     12 C         -11.2809  -16.2299   21.6225 C.3     1  UNL1        0.0671
     13 S         -12.6114  -16.7467   22.0840 S.3     1  UNL1       -0.0807
     14 C         -12.6971  -17.6111   23.3068 C.2     1  UNL1        0.1482
     15 N         -14.0275  -18.1279   23.7683 N.pl3   1  UNL1       -0.3380
     16 N         -11.4524  -17.9586   24.0684 N.2     1  UNL1       -0.2509
     17 H         -14.8444  -17.8998   23.2685 H       1  UNL1        0.1442
     18 H         -14.0837  -18.6952   24.5709 H       1  UNL1        0.1442
     19 C          -5.3744  -18.8163   22.0031 C.3     1  UNL1        0.0981
     20 N          -4.1782  -19.4223   22.6754 N.3     1  UNL1       -0.2866
     21 H          -4.4771  -20.3210   23.0541 H       1  UNL1        0.1238
     22 C          -2.9260  -19.6781   21.8902 C.3     1  UNL1        0.1734
     23 C          -2.9011  -19.4193   20.4129 C.3     1  UNL1        0.4118
     24 F          -2.8761  -19.1604   18.9356 F       1  UNL1       -0.1685
     25 F          -2.3597  -18.0429   20.6632 F       1  UNL1       -0.1685
     26 F          -3.4424  -20.7956   20.1625 F       1  UNL1       -0.1685
@<TRIPOS>BOND
     1    10     9    1
     2    10     1    1
     3     1     2   ar
     4     2     3   ar
     5     3    19    1
     6    19    20    1
     7    20    22    1
     8    22    23    1
     9    23    24    1
    10    23    25    1
    11    23    26    1
    12     3     4   ar
    13     4     5    1
    14     4     6   ar
    15     6     7   ar
    16     7     8    1
    17    10    11    1
    18    11    12    1
    19    12    13    1
    20    13    14    1
    21    14    15    1
    22    14    16    2
    23    16    10    1
    24     7     1   ar
    25    20    21    1
    26    15    17    1
    27    15    18    1
@<TRIPOS>MOLECULE
*****
 26 27 0 0 0
SMALL
GASTEIGER

@<TRIPOS>ATOM
      1 C          -7.2513  -17.0330   23.0112 C.ar    1  UNL1        0.0252
      2 C          -6.5617  -18.1828   22.3387 C.ar    1  UNL1       -0.0009
      3 C          -5.0884  -18.3895   22.5301 C.ar    1  UNL1        0.0210
      4 C          -4.3048  -17.4464   23.3940 C.ar    1  UNL1        0.1397
      5 F          -2.8314  -17.6531   23.5853 F       1  UNL1       -0.2044
      6 C          -4.9944  -16.2966   24.0665 C.ar    1  UNL1        0.0587
      7 C          -6.4677  -16.0899   23.8751 C.ar    1  UNL1        0.1401
      8 F          -7.1574  -14.9401   24.5477 F       1  UNL1       -0.2044
      9 C          -8.1923  -15.7216   21.9560 C.3     1  UNL1        0.0291
     10 C          -8.7247  -16.8263   22.8199 C.3     1  UNL1        0.1080
     11 C          -8.7454  -18.0028   23.7501 C.3     1  UNL1        0.0388
     12 C         -10.0545  -18.5890   24.1890 C.3     1  UNL1        0.0671
     13 S         -11.3430  -17.9985   23.6976 S.3     1  UNL1       -0.0807
     14 C         -11.3223  -16.8221   22.7674 C.2     1  UNL1        0.1482
     15 N         -12.6107  -16.2317   22.2760 N.pl3   1  UNL1       -0.3380
     16 N         -10.0131  -16.2359   22.3285 N.2     1  UNL1       -0.2509
     17 H         -13.4699  -16.6164   22.5641 H       1  UNL1        0.1442
     18 H         -12.5971  -15.4595   21.6655 H       1  UNL1        0.1442
     19 C          -4.3987  -19.5393   21.8575 C.3     1  UNL1        0.0981
     20 N          -3.0722  -19.3310   21.1889 N.3     1  UNL1       -0.2866
     21 H          -2.8448  -20.2015   20.7084 H       1  UNL1        0.1238
     22 C          -2.9019  -18.2267   20.1882 C.3     1  UNL1        0.1734
     23 C          -1.6514  -17.3983   20.1911 C.3     1  UNL1        0.4118
     24 F          -0.4010  -16.5698   20.1939 F       1  UNL1       -0.1685
     25 F          -0.9492  -18.4554   19.3915 F       1  UNL1       -0.1685
     26 F          -2.3536  -16.3411   20.9907 F       1  UNL1       -0.1685
@<TRIPOS>BOND
     1    10     9    1
     2    10     1    1
     3     1     2   ar
     4     2     3   ar
     5     3    19    1
     6    19    20    1
     7    20    22    1
     8    22    23    1
     9    23    24    1
    10    23    25    1
    11    23    26    1
    12     3     4   ar
    13     4     5    1
    14     4     6   ar
    15     6     7   ar
    16     7     8    1
    17    10    11    1
    18    11    12    1
    19    12    13    1
    20    13    14    1
    21    14    15    1
    22    14    16    2
    23    16    10    1
    24     7     1   ar
    25    20    21    1
    26    15    17    1
    27    15    18    1
@<TRIPOS>MOLECULE
*****
 26 27 0 0 0
SMALL
GASTEIGER

@<TRIPOS>ATOM
      1 C          -5.5933  -16.0738   24.0723 C.ar    1  UNL1        0.0252
      2 C          -6.9602  -16.2690   23.4863 C.ar    1  UNL1       -0.0009
      3 C          -8.1769  -16.0917   24.3455 C.ar    1  UNL1        0.0210
      4 C          -8.0266  -15.7192   25.7907 C.ar    1  UNL1        0.1397
      5 F          -9.2434  -15.5419   26.6499 F       1  UNL1       -0.2044
      6 C          -6.6597  -15.5240   26.3767 C.ar    1  UNL1        0.0587
      7 C          -5.4431  -15.7013   25.5175 C.ar    1  UNL1        0.1401
      8 F          -4.0761  -15.5061   26.1035 F       1  UNL1       -0.2044
      9 C          -4.4964  -14.7561   23.1897 C.3     1  UNL1        0.0291
     10 C          -4.3766  -16.2511   23.2131 C.3     1  UNL1        0.1080
     11 C          -4.6793  -17.6845   23.5348 C.3     1  UNL1        0.0388
     12 C          -3.8070  -18.7761   22.9893 C.3     1  UNL1        0.0671
     13 S          -2.6319  -18.4341   22.1220 S.3     1  UNL1       -0.0807
     14 C          -2.3292  -17.0007   21.8002 C.2     1  UNL1        0.1482
     15 N          -1.1540  -16.6587   20.9329 N.pl3   1  UNL1       -0.3380
     16 N          -3.2015  -15.9091   22.3457 N.2     1  UNL1       -0.2509
     17 H          -0.5815  -17.3751   20.5748 H       1  UNL1        0.1442
     18 H          -0.9553  -15.7179   20.7217 H       1  UNL1        0.1442
     19 C          -9.5439  -16.2870   23.7595 C.3     1  UNL1        0.0981
     20 N          -9.7943  -15.9639   22.3163 N.3     1  UNL1       -0.2866
     21 H          -9.0751  -16.4463   21.7774 H       1  UNL1        0.1238
     22 C         -11.1115  -16.3102   21.6878 C.3     1  UNL1        0.1734
     23 C         -12.2475  -16.7887   22.5425 C.3     1  UNL1        0.4118
     24 F         -13.3836  -17.2671   23.3971 F       1  UNL1       -0.1685
     25 F         -12.6402  -15.3671   22.8164 F       1  UNL1       -0.1685
     26 F         -11.8549  -18.2102   22.2685 F       1  UNL1       -0.1685
@<TRIPOS>BOND
     1    10     9    1
     2    10     1    1
     3     1     2   ar
     4     2     3   ar
     5     3    19    1
     6    19    20    1
     7    20    22    1
     8    22    23    1
     9    23    24    1
    10    23    25    1
    11    23    26    1
    12     3     4   ar
    13     4     5    1
    14     4     6   ar
    15     6     7   ar
    16     7     8    1
    17    10    11    1
    18    11    12    1
    19    12    13    1
    20    13    14    1
    21    14    15    1
    22    14    16    2
    23    16    10    1
    24     7     1   ar
    25    20    21    1
    26    15    17    1
    27    15    18    1
@<TRIPOS>MOLECULE
*****
 26 27 0 0 0
SMALL
GASTEIGER

@<TRIPOS>ATOM
      1 C         -12.8759   -3.4682   19.1073 C.ar    1  UNL1        0.0252
      2 C         -12.9838   -4.9503   18.9034 C.ar    1  UNL1       -0.0009
      3 C         -11.7698   -5.7455   18.5239 C.ar    1  UNL1        0.0210
      4 C         -10.4480   -5.0585   18.3485 C.ar    1  UNL1        0.1397
      5 F          -9.2340   -5.8537   17.9690 F       1  UNL1       -0.2044
      6 C         -10.3401   -3.5764   18.5524 C.ar    1  UNL1        0.0587
      7 C         -11.5540   -2.7812   18.9319 C.ar    1  UNL1        0.1401
      8 F         -11.4461   -1.2990   19.1359 F       1  UNL1       -0.2044
      9 C         -13.6364   -3.1202   20.8449 C.3     1  UNL1        0.0291
     10 C         -14.0898   -2.6730   19.4868 C.3     1  UNL1        0.1080
     11 C         -14.1217   -2.5020   17.9969 C.3     1  UNL1        0.0388
     12 C         -15.2100   -1.6911   17.3582 C.3     1  UNL1        0.0671
     13 S         -16.2665   -1.0512   18.2093 S.3     1  UNL1       -0.0807
     14 C         -16.2346   -1.2222   19.6992 C.2     1  UNL1        0.1482
     15 N         -17.2911   -0.5823   20.5503 N.pl3   1  UNL1       -0.3380
     16 N         -15.1463   -2.0331   20.3379 N.2     1  UNL1       -0.2509
     17 H         -18.0054   -0.0500   20.1311 H       1  UNL1        0.1442
     18 H         -17.2702   -0.6945   21.5282 H       1  UNL1        0.1442
     19 C         -11.8777   -7.2277   18.3199 C.3     1  UNL1        0.0981
     20 N         -13.0110   -7.9896   18.9404 N.3     1  UNL1       -0.2866
     21 H         -13.3837   -7.4053   19.6888 H       1  UNL1        0.1238
     22 C         -14.1786   -8.4138   18.0999 C.3     1  UNL1        0.1734
     23 C         -15.3470   -9.1079   18.7349 C.3     1  UNL1        0.4118
     24 F         -16.5153   -9.8020   19.3699 F       1  UNL1       -0.1685
     25 F         -15.6082   -7.8959   19.5792 F       1  UNL1       -0.1685
     26 F         -15.0858  -10.3199   17.8906 F       1  UNL1       -0.1685
@<TRIPOS>BOND
     1    10     9    1
     2    10     1    1
     3     1     2   ar
     4     2     3   ar
     5     3    19    1
     6    19    20    1
     7    20    22    1
     8    22    23    1
     9    23    24    1
    10    23    25    1
    11    23    26    1
    12     3     4   ar
    13     4     5    1
    14     4     6   ar
    15     6     7   ar
    16     7     8    1
    17    10    11    1
    18    11    12    1
    19    12    13    1
    20    13    14    1
    21    14    15    1
    22    14    16    2
    23    16    10    1
    24     7     1   ar
    25    20    21    1
    26    15    17    1
    27    15    18    1
@<TRIPOS>MOLECULE
*****
 26 27 0 0 0
SMALL
GASTEIGER

@<TRIPOS>ATOM
      1 C          -5.5589  -16.1592   23.9753 C.ar    1  UNL1        0.0252
      2 C          -6.9067  -16.4089   23.3663 C.ar    1  UNL1       -0.0009
      3 C          -8.1471  -16.2281   24.1901 C.ar    1  UNL1        0.0210
      4 C          -8.0396  -15.7976   25.6230 C.ar    1  UNL1        0.1397
      5 F          -9.2801  -15.6168   26.4469 F       1  UNL1       -0.2044
      6 C          -6.6918  -15.5478   26.2320 C.ar    1  UNL1        0.0587
      7 C          -5.4514  -15.7287   25.4082 C.ar    1  UNL1        0.1401
      8 F          -4.1035  -15.4789   26.0172 F       1  UNL1       -0.2044
      9 C          -4.4139  -14.8430   23.1534 C.3     1  UNL1        0.0291
     10 C          -4.3184  -16.3400   23.1514 C.3     1  UNL1        0.1080
     11 C          -4.6537  -17.7741   23.4355 C.3     1  UNL1        0.0388
     12 C          -3.7818  -18.8692   22.8965 C.3     1  UNL1        0.0671
     13 S          -2.5745  -18.5300   22.0733 S.3     1  UNL1       -0.0807
     14 C          -2.2392  -17.0959   21.7892 C.2     1  UNL1        0.1482
     15 N          -1.0320  -16.7568   20.9661 N.pl3   1  UNL1       -0.3380
     16 N          -3.1112  -16.0008   22.3283 N.2     1  UNL1       -0.2509
     17 H          -0.4597  -17.4755   20.6123 H       1  UNL1        0.1442
     18 H          -0.8119  -15.8155   20.7796 H       1  UNL1        0.1442
     19 C          -9.4950  -16.4778   23.5811 C.3     1  UNL1        0.0981
     20 N         -10.4690  -17.3913   24.2643 N.3     1  UNL1       -0.2866
     21 H         -11.3466  -16.8779   24.3462 H       1  UNL1        0.1238
     22 C         -10.8011  -18.7224   23.6578 C.3     1  UNL1        0.1734
     23 C         -10.0443  -19.9476   24.0775 C.3     1  UNL1        0.4118
     24 F          -9.2876  -21.1728   24.4973 F       1  UNL1       -0.1685
     25 F         -10.2402  -20.5365   22.7119 F       1  UNL1       -0.1685
     26 F          -9.8484  -19.3588   25.4431 F       1  UNL1       -0.1685
@<TRIPOS>BOND
     1    10     9    1
     2    10     1    1
     3     1     2   ar
     4     2     3   ar
     5     3    19    1
     6    19    20    1
     7    20    22    1
     8    22    23    1
     9    23    24    1
    10    23    25    1
    11    23    26    1
    12     3     4   ar
    13     4     5    1
    14     4     6   ar
    15     6     7   ar
    16     7     8    1
    17    10    11    1
    18    11    12    1
    19    12    13    1
    20    13    14    1
    21    14    15    1
    22    14    16    2
    23    16    10    1
    24     7     1   ar
    25    20    21    1
    26    15    17    1
    27    15    18    1
@<TRIPOS>MOLECULE
*****
 26 27 0 0 0
SMALL
GASTEIGER

@<TRIPOS>ATOM
      1 C          -9.0885  -17.4157   23.8494 C.ar    1  UNL1        0.0252
      2 C          -7.9638  -16.4243   23.8974 C.ar    1  UNL1       -0.0009
      3 C          -7.4687  -15.9153   25.2186 C.ar    1  UNL1        0.0210
      4 C          -8.0981  -16.3976   26.4918 C.ar    1  UNL1        0.1397
      5 F          -7.6029  -15.8885   27.8131 F       1  UNL1       -0.2044
      6 C          -9.2227  -17.3890   26.4439 C.ar    1  UNL1        0.0587
      7 C          -9.7179  -17.8980   25.1227 C.ar    1  UNL1        0.1401
      8 F         -10.8426  -18.8895   25.0746 F       1  UNL1       -0.2044
      9 C          -8.5913  -18.9979   22.8654 C.3     1  UNL1        0.0291
     10 C          -9.5837  -17.9248   22.5282 C.3     1  UNL1        0.1080
     11 C         -10.4040  -16.6749   22.6497 C.3     1  UNL1        0.0388
     12 C         -11.3750  -16.3068   21.5673 C.3     1  UNL1        0.0671
     13 S         -11.5255  -17.1886   20.3632 S.3     1  UNL1       -0.0807
     14 C         -10.7052  -18.4385   20.2416 C.2     1  UNL1        0.1482
     15 N         -10.8557  -19.3203   19.0375 N.pl3   1  UNL1       -0.3380
     16 N          -9.7343  -18.8066   21.3241 N.2     1  UNL1       -0.2509
     17 H         -11.4930  -19.0787   18.3270 H       1  UNL1        0.1442
     18 H         -10.3173  -20.1406   18.9577 H       1  UNL1        0.1442
     19 C          -6.3440  -14.9238   25.2666 C.3     1  UNL1        0.0981
     20 N          -5.0267  -15.2526   24.6290 N.3     1  UNL1       -0.2866
     21 H          -4.3544  -15.3719   25.3867 H       1  UNL1        0.1238
     22 C          -4.9013  -16.4580   23.7451 C.3     1  UNL1        0.1734
     23 C          -3.5480  -16.9142   23.2864 C.3     1  UNL1        0.4118
     24 F          -2.1947  -17.3705   22.8278 F       1  UNL1       -0.1685
     25 F          -3.7543  -18.2265   23.9832 F       1  UNL1       -0.1685
     26 F          -3.3417  -15.6020   22.5897 F       1  UNL1       -0.1685
@<TRIPOS>BOND
     1    10     9    1
     2    10     1    1
     3     1     2   ar
     4     2     3   ar
     5     3    19    1
     6    19    20    1
     7    20    22    1
     8    22    23    1
     9    23    24    1
    10    23    25    1
    11    23    26    1
    12     3     4   ar
    13     4     5    1
    14     4     6   ar
    15     6     7   ar
    16     7     8    1
    17    10    11    1
    18    11    12    1
    19    12    13    1
    20    13    14    1
    21    14    15    1
    22    14    16    2
    23    16    10    1
    24     7     1   ar
    25    20    21    1
    26    15    17    1
    27    15    18    1
