@<TRIPOS>MOLECULE
*****
 32 36 0 0 0
SMALL
GASTEIGER

@<TRIPOS>ATOM
      1 C          -7.7670  -18.1487   21.6661 C.ar    1  UNL1        0.2398
      2 N          -7.3221  -17.5424   22.9638 N.ar    1  UNL1       -0.1961
      3 C          -8.2364  -16.6185   23.7125 C.ar    1  UNL1        0.1361
      4 C          -9.5956  -16.3009   23.1634 C.ar    1  UNL1        0.0508
      5 C         -10.0406  -16.9073   21.8656 C.ar    1  UNL1        0.0845
      6 N          -9.1263  -17.8312   21.1169 N.ar    1  UNL1       -0.2137
      7 C          -7.2501  -19.9933   19.8018 C.ar    1  UNL1        0.2041
      8 N          -6.0235  -20.7277   19.3479 N.ar    1  UNL1       -0.2134
      9 C          -4.8681  -20.2609   20.1828 C.ar    1  UNL1        0.1003
     10 C          -3.4155  -20.6351   20.1851 C.ar    1  UNL1        0.0207
     11 C          -2.4755  -19.9864   21.1574 C.ar    1  UNL1        0.0016
     12 C          -2.9880  -18.9635   22.1275 C.ar    1  UNL1        0.0016
     13 C          -4.4405  -18.5893   22.1252 C.ar    1  UNL1        0.0192
     14 C          -5.3806  -19.2380   21.1528 C.ar    1  UNL1        0.0869
     15 N          -6.8527  -19.0726   20.9174 N.ar    1  UNL1       -0.2480
     16 C          -8.8545  -21.0096   18.0290 C.3     1  UNL1        0.1108
     17 N          -8.6315  -20.1518   19.2391 N.pl3   1  UNL1       -0.3023
     18 H          -9.3917  -19.6927   19.6640 H       1  UNL1        0.1497
     19 N          -7.7914  -16.0121   25.0103 N.pl3   1  UNL1       -0.2897
     20 C          -8.7344  -15.9585   26.1755 C.3     1  UNL1        0.1242
     21 C          -8.2894  -15.3521   27.4733 C.3     1  UNL1        0.1636
     22 O          -6.9013  -14.7994   27.6060 O.3     1  UNL1       -0.3502
     23 C          -5.9583  -14.8530   26.4408 C.3     1  UNL1        0.1618
     24 C          -6.4033  -15.4594   25.1430 C.3     1  UNL1        0.1038
     25 C          -5.4601  -15.5129   23.9778 C.3     1  UNL1        0.0241
     26 C         -11.3998  -16.5898   21.3164 C.3     1  UNL1        0.1457
     27 C         -12.4602  -16.0676   20.3928 C.3     1  UNL1        0.0297
     28 C         -11.0113  -15.8902   20.0477 C.3     1  UNL1        0.0297
     29 S         -12.2605  -17.1790   22.3943 S.O2    1  UNL1       -0.0065
     30 C         -13.1212  -17.7683   23.4722 C.3     1  UNL1        0.1764
     31 O         -11.9273  -18.5578   21.9068 O.2     1  UNL1       -0.1727
     32 O         -12.5938  -15.8002   22.8820 O.2     1  UNL1       -0.1727
@<TRIPOS>BOND
     1    16    17    1
     2    17     7    1
     3     7     8   ar
     4     8     9   ar
     5     9    10   ar
     6    10    11   ar
     7    11    12   ar
     8    12    13   ar
     9    13    14   ar
    10    14    15   ar
    11    15     1    1
    12     1     2   ar
    13     2     3   ar
    14     3    19    1
    15    19    20    1
    16    20    21    1
    17    21    22    1
    18    22    23    1
    19    23    24    1
    20    24    25    1
    21     3     4   ar
    22     4     5   ar
    23     5    26    1
    24    26    29    1
    25    29    30    1
    26    29    31    2
    27    29    32    2
    28    26    27    1
    29    27    28    1
    30     5     6   ar
    31    15     7   ar
    32     6     1   ar
    33    14     9   ar
    34    24    19    1
    35    28    26    1
    36    17    18    1
@<TRIPOS>MOLECULE
*****
 32 36 0 0 0
SMALL
GASTEIGER

@<TRIPOS>ATOM
      1 C          -7.0098  -17.9569   22.3529 C.ar    1  UNL1        0.2398
      2 N          -8.3074  -17.7242   21.6376 N.ar    1  UNL1       -0.1961
      3 C          -9.3860  -16.9085   22.2867 C.ar    1  UNL1        0.1361
      4 C          -9.1668  -16.3254   23.6512 C.ar    1  UNL1        0.0508
      5 C          -7.8691  -16.5580   24.3666 C.ar    1  UNL1        0.0845
      6 N          -6.7906  -17.3738   23.7175 N.ar    1  UNL1       -0.2137
      7 C          -6.1389  -19.8839   20.7180 C.ar    1  UNL1        0.2041
      8 N          -4.7916  -20.4184   20.3315 N.ar    1  UNL1       -0.2134
      9 C          -3.7514  -19.6375   21.0786 C.ar    1  UNL1        0.1003
     10 C          -2.2539  -19.7211   21.0961 C.ar    1  UNL1        0.0207
     11 C          -1.4607  -18.7877   21.9617 C.ar    1  UNL1        0.0016
     12 C          -2.1650  -17.7705   22.8099 C.ar    1  UNL1        0.0016
     13 C          -3.6625  -17.6869   22.7924 C.ar    1  UNL1        0.0192
     14 C          -4.4557  -18.6203   21.9267 C.ar    1  UNL1        0.0869
     15 N          -5.9312  -18.7727   21.7038 N.ar    1  UNL1       -0.2480
     16 C          -8.0877  -19.7308   19.0067 C.3     1  UNL1        0.1108
     17 N          -7.4615  -20.3746   20.2081 N.pl3   1  UNL1       -0.3023
     18 H          -7.9185  -21.1191   20.6619 H       1  UNL1        0.1497
     19 N         -10.6837  -16.6758   21.5713 N.pl3   1  UNL1       -0.2897
     20 C         -10.7110  -15.8580   20.3142 C.3     1  UNL1        0.1242
     21 C         -12.0087  -15.6253   19.5987 C.3     1  UNL1        0.1636
     22 O         -13.2791  -16.2106   20.1404 O.3     1  UNL1       -0.3502
     23 C         -13.2518  -17.0284   21.3975 C.3     1  UNL1        0.1618
     24 C         -11.9541  -17.2611   22.1129 C.3     1  UNL1        0.1038
     25 C         -11.9269  -18.0789   23.3700 C.3     1  UNL1        0.0241
     26 C          -7.6499  -15.9749   25.7311 C.3     1  UNL1        0.1457
     27 C          -7.9034  -15.6006   27.1614 C.3     1  UNL1        0.0297
     28 C          -8.9349  -16.3736   26.3943 C.3     1  UNL1        0.0297
     29 S          -6.2888  -15.3738   25.5420 S.O2    1  UNL1       -0.0065
     30 C          -4.9276  -14.7726   25.3528 C.3     1  UNL1        0.1764
     31 O          -6.8490  -14.4253   24.5240 O.2     1  UNL1       -0.1727
     32 O          -5.7283  -16.3223   26.5600 O.2     1  UNL1       -0.1727
@<TRIPOS>BOND
     1    16    17    1
     2    17     7    1
     3     7     8   ar
     4     8     9   ar
     5     9    10   ar
     6    10    11   ar
     7    11    12   ar
     8    12    13   ar
     9    13    14   ar
    10    14    15   ar
    11    15     1    1
    12     1     2   ar
    13     2     3   ar
    14     3    19    1
    15    19    20    1
    16    20    21    1
    17    21    22    1
    18    22    23    1
    19    23    24    1
    20    24    25    1
    21     3     4   ar
    22     4     5   ar
    23     5    26    1
    24    26    29    1
    25    29    30    1
    26    29    31    2
    27    29    32    2
    28    26    27    1
    29    27    28    1
    30     5     6   ar
    31    15     7   ar
    32     6     1   ar
    33    14     9   ar
    34    24    19    1
    35    28    26    1
    36    17    18    1
@<TRIPOS>MOLECULE
*****
 32 36 0 0 0
SMALL
GASTEIGER

@<TRIPOS>ATOM
      1 C          -6.2550  -18.4127   21.6195 C.ar    1  UNL1        0.2398
      2 N          -6.1716  -17.6809   22.9261 N.ar    1  UNL1       -0.1961
      3 C          -7.4027  -17.0625   23.5194 C.ar    1  UNL1        0.1361
      4 C          -8.7173  -17.1761   22.8061 C.ar    1  UNL1        0.0508
      5 C          -8.8008  -17.9080   21.4994 C.ar    1  UNL1        0.0845
      6 N          -7.5697  -18.5263   20.9061 N.ar    1  UNL1       -0.2137
      7 C          -4.9247  -20.4066   20.4363 C.ar    1  UNL1        0.2041
      8 N          -3.5153  -20.6080   19.9641 N.ar    1  UNL1       -0.2134
      9 C          -2.7434  -19.3568   20.2621 C.ar    1  UNL1        0.1003
     10 C          -1.3120  -18.9792   20.0205 C.ar    1  UNL1        0.0207
     11 C          -0.8129  -17.6269   20.4354 C.ar    1  UNL1        0.0016
     12 C          -1.7452  -16.6522   21.0917 C.ar    1  UNL1        0.0016
     13 C          -3.1766  -17.0299   21.3333 C.ar    1  UNL1        0.0192
     14 C          -3.6757  -18.3822   20.9185 C.ar    1  UNL1        0.0869
     15 N          -5.0239  -19.0310   21.0261 N.ar    1  UNL1       -0.2480
     16 C          -6.9138  -21.4339   19.1179 C.3     1  UNL1        0.1108
     17 N          -6.0393  -21.4055   20.3363 N.pl3   1  UNL1       -0.3023
     18 H          -6.1969  -22.0423   21.0703 H       1  UNL1        0.1497
     19 N          -7.3192  -16.3307   24.8261 N.pl3   1  UNL1       -0.2897
     20 C          -8.4561  -16.4055   25.8017 C.3     1  UNL1        0.1242
     21 C          -8.3726  -15.6737   27.1083 C.3     1  UNL1        0.1636
     22 O          -7.1521  -14.8669   27.4394 O.3     1  UNL1       -0.3502
     23 C          -6.0152  -14.7920   26.4638 C.3     1  UNL1        0.1618
     24 C          -6.0987  -15.5239   25.1572 C.3     1  UNL1        0.1038
     25 C          -4.9618  -15.4489   24.1816 C.3     1  UNL1        0.0241
     26 C         -10.1154  -18.0216   20.7860 C.3     1  UNL1        0.1457
     27 C         -11.1545  -18.4927   19.8122 C.3     1  UNL1        0.0297
     28 C          -9.7789  -19.0902   19.7886 C.3     1  UNL1        0.0297
     29 S         -10.9084  -16.9925   21.5357 S.O2    1  UNL1       -0.0065
     30 C         -11.7015  -15.9635   22.2854 C.3     1  UNL1        0.1764
     31 O         -11.4756  -18.0687   22.4132 O.2     1  UNL1       -0.1727
     32 O         -10.3413  -15.9162   20.6582 O.2     1  UNL1       -0.1727
@<TRIPOS>BOND
     1    16    17    1
     2    17     7    1
     3     7     8   ar
     4     8     9   ar
     5     9    10   ar
     6    10    11   ar
     7    11    12   ar
     8    12    13   ar
     9    13    14   ar
    10    14    15   ar
    11    15     1    1
    12     1     2   ar
    13     2     3   ar
    14     3    19    1
    15    19    20    1
    16    20    21    1
    17    21    22    1
    18    22    23    1
    19    23    24    1
    20    24    25    1
    21     3     4   ar
    22     4     5   ar
    23     5    26    1
    24    26    29    1
    25    29    30    1
    26    29    31    2
    27    29    32    2
    28    26    27    1
    29    27    28    1
    30     5     6   ar
    31    15     7   ar
    32     6     1   ar
    33    14     9   ar
    34    24    19    1
    35    28    26    1
    36    17    18    1
@<TRIPOS>MOLECULE
*****
 32 36 0 0 0
SMALL
GASTEIGER

@<TRIPOS>ATOM
      1 C          -7.7003  -17.9052   22.8252 C.ar    1  UNL1        0.2398
      2 N          -6.2473  -17.9877   22.4624 N.ar    1  UNL1       -0.1961
      3 C          -5.8353  -18.5744   21.1448 C.ar    1  UNL1        0.1361
      4 C          -6.8765  -19.0786   20.1900 C.ar    1  UNL1        0.0508
      5 C          -8.3296  -18.9961   20.5527 C.ar    1  UNL1        0.0845
      6 N          -8.7416  -18.4094   21.8703 N.ar    1  UNL1       -0.2137
      7 C          -9.4260  -17.5370   24.8331 C.ar    1  UNL1        0.2041
      8 N          -9.4085  -16.7638   26.1184 N.ar    1  UNL1       -0.2134
      9 C          -8.0839  -16.0675   26.2225 C.ar    1  UNL1        0.1003
     10 C          -7.5038  -15.1657   27.2713 C.ar    1  UNL1        0.0207
     11 C          -6.1226  -14.6066   27.0991 C.ar    1  UNL1        0.0016
     12 C          -5.3215  -14.9494   25.8781 C.ar    1  UNL1        0.0016
     13 C          -5.9017  -15.8513   24.8293 C.ar    1  UNL1        0.0192
     14 C          -7.2829  -16.4104   25.0015 C.ar    1  UNL1        0.0869
     15 N          -8.1123  -17.3185   24.1429 N.ar    1  UNL1       -0.2480
     16 C         -10.5654  -19.8584   24.5829 C.3     1  UNL1        0.1108
     17 N         -10.5584  -18.3805   24.3270 N.pl3   1  UNL1       -0.3023
     18 H         -11.2971  -17.9640   23.8268 H       1  UNL1        0.1497
     19 N          -4.3822  -18.6569   20.7821 N.pl3   1  UNL1       -0.2897
     20 C          -3.9747  -18.8001   19.3456 C.3     1  UNL1        0.1242
     21 C          -2.5216  -18.8826   18.9829 C.3     1  UNL1        0.1636
     22 O          -1.4759  -18.8219   20.0566 O.3     1  UNL1       -0.3502
     23 C          -1.8834  -18.6787   21.4930 C.3     1  UNL1        0.1618
     24 C          -3.3365  -18.5962   21.8558 C.3     1  UNL1        0.1038
     25 C          -3.7439  -18.4530   23.2922 C.3     1  UNL1        0.0241
     26 C          -9.3708  -19.5002   19.5980 C.3     1  UNL1        0.1457
     27 C          -9.9866  -20.2231   18.4367 C.3     1  UNL1        0.0297
     28 C          -8.5075  -20.3049   18.6721 C.3     1  UNL1        0.0297
     29 S         -10.5958  -18.8708   20.1921 S.O2    1  UNL1       -0.0065
     30 C         -11.8208  -18.2413   20.7863 C.3     1  UNL1        0.1764
     31 O         -10.9162  -20.1569   20.8943 O.2     1  UNL1       -0.1727
     32 O         -10.2755  -17.5845   19.4899 O.2     1  UNL1       -0.1727
@<TRIPOS>BOND
     1    16    17    1
     2    17     7    1
     3     7     8   ar
     4     8     9   ar
     5     9    10   ar
     6    10    11   ar
     7    11    12   ar
     8    12    13   ar
     9    13    14   ar
    10    14    15   ar
    11    15     1    1
    12     1     2   ar
    13     2     3   ar
    14     3    19    1
    15    19    20    1
    16    20    21    1
    17    21    22    1
    18    22    23    1
    19    23    24    1
    20    24    25    1
    21     3     4   ar
    22     4     5   ar
    23     5    26    1
    24    26    29    1
    25    29    30    1
    26    29    31    2
    27    29    32    2
    28    26    27    1
    29    27    28    1
    30     5     6   ar
    31    15     7   ar
    32     6     1   ar
    33    14     9   ar
    34    24    19    1
    35    28    26    1
    36    17    18    1
@<TRIPOS>MOLECULE
*****
 32 36 0 0 0
SMALL
GASTEIGER

@<TRIPOS>ATOM
      1 C          -7.4722  -17.8093   22.1740 C.ar    1  UNL1        0.2398
      2 N          -6.1634  -18.2606   21.5969 N.ar    1  UNL1       -0.1961
      3 C          -4.8764  -17.8708   22.2615 C.ar    1  UNL1        0.1361
      4 C          -4.8982  -17.0297   23.5033 C.ar    1  UNL1        0.0508
      5 C          -6.2071  -16.5784   24.0804 C.ar    1  UNL1        0.0845
      6 N          -7.4941  -16.9682   23.4158 N.ar    1  UNL1       -0.2137
      7 C          -8.8925  -18.9370   20.2102 C.ar    1  UNL1        0.2041
      8 N         -10.3545  -19.1134   19.9252 N.ar    1  UNL1       -0.2134
      9 C         -11.1249  -18.4845   21.0482 C.ar    1  UNL1        0.1003
     10 C         -12.5968  -18.3534   21.3057 C.ar    1  UNL1        0.0207
     11 C         -13.0827  -17.6572   22.5423 C.ar    1  UNL1        0.0016
     12 C         -12.0967  -17.0922   23.5214 C.ar    1  UNL1        0.0016
     13 C         -10.6248  -17.2233   23.2639 C.ar    1  UNL1        0.0192
     14 C         -10.1389  -17.9195   22.0273 C.ar    1  UNL1        0.0869
     15 N          -8.7592  -18.1991   21.5094 N.ar    1  UNL1       -0.2480
     16 C          -7.0292  -20.6747   19.7014 C.3     1  UNL1        0.1108
     17 N          -7.7621  -19.4147   19.3476 N.pl3   1  UNL1       -0.3023
     18 H          -7.5013  -18.9012   18.5491 H       1  UNL1        0.1497
     19 N          -3.5675  -18.3221   21.6843 N.pl3   1  UNL1       -0.2897
     20 C          -3.3986  -19.7408   21.2274 C.3     1  UNL1        0.1242
     21 C          -2.0897  -20.1921   20.6503 C.3     1  UNL1        0.1636
     22 O          -0.9496  -19.2247   20.5300 O.3     1  UNL1       -0.3502
     23 C          -1.1186  -17.8061   20.9869 C.3     1  UNL1        0.1618
     24 C          -2.4274  -17.3547   21.5640 C.3     1  UNL1        0.1038
     25 C          -2.5963  -15.9360   22.0209 C.3     1  UNL1        0.0241
     26 C          -6.2291  -15.7372   25.3222 C.3     1  UNL1        0.1457
     27 C          -5.7472  -15.0284   26.5532 C.3     1  UNL1        0.0297
     28 C          -4.7862  -15.8261   25.7225 C.3     1  UNL1        0.0297
     29 S          -7.6795  -15.3562   25.3532 S.O2    1  UNL1       -0.0065
     30 C          -9.1300  -14.9752   25.3842 C.3     1  UNL1        0.1764
     31 O          -7.9292  -16.3925   26.4085 O.2     1  UNL1       -0.1727
     32 O          -7.4298  -14.3199   24.2978 O.2     1  UNL1       -0.1727
@<TRIPOS>BOND
     1    16    17    1
     2    17     7    1
     3     7     8   ar
     4     8     9   ar
     5     9    10   ar
     6    10    11   ar
     7    11    12   ar
     8    12    13   ar
     9    13    14   ar
    10    14    15   ar
    11    15     1    1
    12     1     2   ar
    13     2     3   ar
    14     3    19    1
    15    19    20    1
    16    20    21    1
    17    21    22    1
    18    22    23    1
    19    23    24    1
    20    24    25    1
    21     3     4   ar
    22     4     5   ar
    23     5    26    1
    24    26    29    1
    25    29    30    1
    26    29    31    2
    27    29    32    2
    28    26    27    1
    29    27    28    1
    30     5     6   ar
    31    15     7   ar
    32     6     1   ar
    33    14     9   ar
    34    24    19    1
    35    28    26    1
    36    17    18    1
@<TRIPOS>MOLECULE
*****
 32 36 0 0 0
SMALL
GASTEIGER

@<TRIPOS>ATOM
      1 C           3.7318   -1.1334   22.7422 C.ar    1  UNL1        0.2398
      2 N           3.2113    0.0400   21.9664 N.ar    1  UNL1       -0.1961
      3 C           3.1581   -0.0152   20.4684 C.ar    1  UNL1        0.1361
      4 C           3.6254   -1.2440   19.7461 C.ar    1  UNL1        0.0508
      5 C           4.1461   -2.4175   20.5219 C.ar    1  UNL1        0.0845
      6 N           4.1993   -2.3622   22.0199 N.ar    1  UNL1       -0.2137
      7 C           4.6530   -1.9246   25.1235 C.ar    1  UNL1        0.2041
      8 N           4.3840   -1.5363   26.5471 N.ar    1  UNL1       -0.2134
      9 C           3.3498   -0.4498   26.5438 C.ar    1  UNL1        0.1003
     10 C           2.6973    0.3182   27.6548 C.ar    1  UNL1        0.0207
     11 C           1.6747    1.3694   27.3400 C.ar    1  UNL1        0.0016
     12 C           1.3045    1.6526   25.9143 C.ar    1  UNL1        0.0016
     13 C           1.9570    0.8845   24.8033 C.ar    1  UNL1        0.0192
     14 C           2.9796   -0.1666   25.1180 C.ar    1  UNL1        0.0869
     15 N           3.7851   -1.0781   24.2403 N.ar    1  UNL1       -0.2480
     16 C           7.0357   -2.6002   24.3385 C.3     1  UNL1        0.1108
     17 N           5.6202   -2.9749   24.6638 N.pl3   1  UNL1       -0.3023
     18 H           5.3259   -3.9103   24.5756 H       1  UNL1        0.1497
     19 N           2.6374    1.1583   19.6926 N.pl3   1  UNL1       -0.2897
     20 C           3.5953    2.1136   19.0446 C.3     1  UNL1        0.1242
     21 C           3.0747    3.2871   18.2688 C.3     1  UNL1        0.1636
     22 O           1.5961    3.5053   18.1410 O.3     1  UNL1       -0.3502
     23 C           0.6383    2.5500   18.7890 C.3     1  UNL1        0.1618
     24 C           1.1589    1.3765   19.5647 C.3     1  UNL1        0.1038
     25 C           0.2010    0.4212   20.2127 C.3     1  UNL1        0.0241
     26 C           4.6135   -3.6463   19.7997 C.3     1  UNL1        0.1457
     27 C           4.5760   -4.8812   18.9490 C.3     1  UNL1        0.0297
     28 C           3.3222   -4.0906   19.1790 C.3     1  UNL1        0.0297
     29 S           6.0670   -3.6288   20.1696 S.O2    1  UNL1       -0.0065
     30 C           7.5206   -3.6113   20.5395 C.3     1  UNL1        0.1764
     31 O           6.3613   -2.7739   18.9728 O.2     1  UNL1       -0.1727
     32 O           5.7727   -4.4837   21.3665 O.2     1  UNL1       -0.1727
@<TRIPOS>BOND
     1    16    17    1
     2    17     7    1
     3     7     8   ar
     4     8     9   ar
     5     9    10   ar
     6    10    11   ar
     7    11    12   ar
     8    12    13   ar
     9    13    14   ar
    10    14    15   ar
    11    15     1    1
    12     1     2   ar
    13     2     3   ar
    14     3    19    1
    15    19    20    1
    16    20    21    1
    17    21    22    1
    18    22    23    1
    19    23    24    1
    20    24    25    1
    21     3     4   ar
    22     4     5   ar
    23     5    26    1
    24    26    29    1
    25    29    30    1
    26    29    31    2
    27    29    32    2
    28    26    27    1
    29    27    28    1
    30     5     6   ar
    31    15     7   ar
    32     6     1   ar
    33    14     9   ar
    34    24    19    1
    35    28    26    1
    36    17    18    1
@<TRIPOS>MOLECULE
*****
 32 36 0 0 0
SMALL
GASTEIGER

@<TRIPOS>ATOM
      1 C           3.7936   -1.1835   22.7490 C.ar    1  UNL1        0.2398
      2 N           3.2496   -0.0085   21.9919 N.ar    1  UNL1       -0.1961
      3 C           3.1700   -0.0527   20.4946 C.ar    1  UNL1        0.1361
      4 C           3.6343   -1.2719   19.7545 C.ar    1  UNL1        0.0508
      5 C           4.1782   -2.4470   20.5117 C.ar    1  UNL1        0.0845
      6 N           4.2579   -2.4028   22.0089 N.ar    1  UNL1       -0.2137
      7 C           2.9522   -0.3819   25.1562 C.ar    1  UNL1        0.2041
      8 N           3.3977   -0.6193   26.5687 N.ar    1  UNL1       -0.2134
      9 C           4.5940   -1.5234   26.5317 C.ar    1  UNL1        0.1003
     10 C           5.4537   -2.0955   27.6196 C.ar    1  UNL1        0.0207
     11 C           6.6074   -2.9889   27.2721 C.ar    1  UNL1        0.0016
     12 C           6.9013   -3.3103   25.8368 C.ar    1  UNL1        0.0016
     13 C           6.0416   -2.7382   24.7489 C.ar    1  UNL1        0.0192
     14 C           4.8879   -1.8448   25.0964 C.ar    1  UNL1        0.0869
     15 N           3.8732   -1.1393   24.2463 N.ar    1  UNL1       -0.2480
     16 C           1.1775    1.4388   25.6907 C.3     1  UNL1        0.1108
     17 N           1.7897    0.4642   24.7287 N.pl3   1  UNL1       -0.3023
     18 H           1.4286    0.3800   23.8168 H       1  UNL1        0.1497
     19 N           2.6260    1.1224   19.7375 N.pl3   1  UNL1       -0.2897
     20 C           3.5644    2.0943   19.0858 C.3     1  UNL1        0.1242
     21 C           3.0204    3.2694   18.3287 C.3     1  UNL1        0.1636
     22 O           1.5380    3.4726   18.2232 O.3     1  UNL1       -0.3502
     23 C           0.5996    2.5007   18.8749 C.3     1  UNL1        0.1618
     24 C           1.1436    1.3256   19.6320 C.3     1  UNL1        0.1038
     25 C           0.2051    0.3537   20.2837 C.3     1  UNL1        0.0241
     26 C           4.6426   -3.6663   19.7716 C.3     1  UNL1        0.1457
     27 C           4.5990   -4.8978   18.9163 C.3     1  UNL1        0.0297
     28 C           3.3414   -4.1248   19.1827 C.3     1  UNL1        0.0297
     29 S           6.1049   -3.6314   20.1035 S.O2    1  UNL1       -0.0065
     30 C           7.5673   -3.5965   20.4355 C.3     1  UNL1        0.1764
     31 O           5.8528   -4.4931   21.3051 O.2     1  UNL1       -0.1727
     32 O           6.3571   -2.7696   18.9019 O.2     1  UNL1       -0.1727
@<TRIPOS>BOND
     1    16    17    1
     2    17     7    1
     3     7     8   ar
     4     8     9   ar
     5     9    10   ar
     6    10    11   ar
     7    11    12   ar
     8    12    13   ar
     9    13    14   ar
    10    14    15   ar
    11    15     1    1
    12     1     2   ar
    13     2     3   ar
    14     3    19    1
    15    19    20    1
    16    20    21    1
    17    21    22    1
    18    22    23    1
    19    23    24    1
    20    24    25    1
    21     3     4   ar
    22     4     5   ar
    23     5    26    1
    24    26    29    1
    25    29    30    1
    26    29    31    2
    27    29    32    2
    28    26    27    1
    29    27    28    1
    30     5     6   ar
    31    15     7   ar
    32     6     1   ar
    33    14     9   ar
    34    24    19    1
    35    28    26    1
    36    17    18    1
@<TRIPOS>MOLECULE
*****
 32 36 0 0 0
SMALL
GASTEIGER

@<TRIPOS>ATOM
      1 C           6.1851   -3.4555   24.3485 C.ar    1  UNL1        0.2398
      2 N           6.4465   -3.4201   22.8719 N.ar    1  UNL1       -0.1961
      3 C           5.7903   -2.3752   22.0189 C.ar    1  UNL1        0.1361
      4 C           4.8727   -1.3657   22.6425 C.ar    1  UNL1        0.0508
      5 C           4.6113   -1.4010   24.1191 C.ar    1  UNL1        0.0845
      6 N           5.2675   -2.4459   24.9721 N.ar    1  UNL1       -0.2137
      7 C           6.7248   -4.6225   26.6920 C.ar    1  UNL1        0.2041
      8 N           7.5407   -5.8042   27.1254 N.ar    1  UNL1       -0.2134
      9 C           8.1615   -6.4124   25.9028 C.ar    1  UNL1        0.1003
     10 C           9.0645   -7.5959   25.7186 C.ar    1  UNL1        0.0207
     11 C           9.5352   -7.9736   24.3454 C.ar    1  UNL1        0.0016
     12 C           9.1030   -7.1678   23.1564 C.ar    1  UNL1        0.0016
     13 C           8.2000   -5.9843   23.3405 C.ar    1  UNL1        0.0192
     14 C           7.7292   -5.6066   24.7137 C.ar    1  UNL1        0.0869
     15 N           6.8413   -4.5004   25.2015 N.ar    1  UNL1       -0.2480
     16 C           6.4187   -3.4295   28.9795 C.3     1  UNL1        0.1108
     17 N           5.9316   -3.7212   27.5911 N.pl3   1  UNL1       -0.3023
     18 H           5.0914   -3.3210   27.2700 H       1  UNL1        0.1497
     19 N           6.0517   -2.3398   20.5423 N.pl3   1  UNL1       -0.2897
     20 C           7.1418   -1.4673   19.9943 C.3     1  UNL1        0.1242
     21 C           7.4032   -1.4319   18.5176 C.3     1  UNL1        0.1636
     22 O           6.5745   -2.2691   17.5890 O.3     1  UNL1       -0.3502
     23 C           5.4844   -3.1416   18.1370 C.3     1  UNL1        0.1618
     24 C           5.2230   -3.1770   19.6136 C.3     1  UNL1        0.1038
     25 C           4.1329   -4.0496   20.1616 C.3     1  UNL1        0.0241
     26 C           3.6938   -0.3916   24.7428 C.3     1  UNL1        0.1457
     27 C           2.5292    0.5382   24.9147 C.3     1  UNL1        0.0297
     28 C           2.6642   -0.2706   23.6586 C.3     1  UNL1        0.0297
     29 S           4.4046   -0.1619   26.0435 S.O2    1  UNL1       -0.0065
     30 C           5.1155    0.0677   27.3442 C.3     1  UNL1        0.1764
     31 O           5.3506    0.7805   25.3602 O.2     1  UNL1       -0.1727
     32 O           3.4586   -1.1044   26.7269 O.2     1  UNL1       -0.1727
@<TRIPOS>BOND
     1    16    17    1
     2    17     7    1
     3     7     8   ar
     4     8     9   ar
     5     9    10   ar
     6    10    11   ar
     7    11    12   ar
     8    12    13   ar
     9    13    14   ar
    10    14    15   ar
    11    15     1    1
    12     1     2   ar
    13     2     3   ar
    14     3    19    1
    15    19    20    1
    16    20    21    1
    17    21    22    1
    18    22    23    1
    19    23    24    1
    20    24    25    1
    21     3     4   ar
    22     4     5   ar
    23     5    26    1
    24    26    29    1
    25    29    30    1
    26    29    31    2
    27    29    32    2
    28    26    27    1
    29    27    28    1
    30     5     6   ar
    31    15     7   ar
    32     6     1   ar
    33    14     9   ar
    34    24    19    1
    35    28    26    1
    36    17    18    1
@<TRIPOS>MOLECULE
*****
 32 36 0 0 0
SMALL
GASTEIGER

@<TRIPOS>ATOM
      1 C          -7.5842  -17.2051   23.3610 C.ar    1  UNL1        0.2398
      2 N          -9.0551  -17.2716   23.6468 N.ar    1  UNL1       -0.1961
      3 C          -9.9525  -18.0969   22.7730 C.ar    1  UNL1        0.1361
      4 C          -9.3788  -18.8558   21.6133 C.ar    1  UNL1        0.0508
      5 C          -7.9078  -18.7894   21.3274 C.ar    1  UNL1        0.0845
      6 N          -7.0105  -17.9641   22.2013 N.ar    1  UNL1       -0.2137
      7 C          -5.2515  -16.0440   23.9572 C.ar    1  UNL1        0.2041
      8 N          -4.7449  -15.2020   25.0906 N.ar    1  UNL1       -0.2134
      9 C          -5.8671  -15.0175   26.0686 C.ar    1  UNL1        0.1003
     10 C          -5.9511  -14.2807   27.3725 C.ar    1  UNL1        0.0207
     11 C          -7.2353  -14.2718   28.1474 C.ar    1  UNL1        0.0016
     12 C          -8.4355  -14.9997   27.6186 C.ar    1  UNL1        0.0016
     13 C          -8.3515  -15.7365   26.3148 C.ar    1  UNL1        0.0192
     14 C          -7.0673  -15.7454   25.5398 C.ar    1  UNL1        0.0869
     15 N          -6.6868  -16.3798   24.2349 N.ar    1  UNL1       -0.2480
     16 C          -3.1111  -17.1031   22.9339 C.3     1  UNL1        0.1108
     17 N          -4.4615  -16.4745   22.7570 N.pl3   1  UNL1       -0.3023
     18 H          -4.8293  -16.3446   21.8531 H       1  UNL1        0.1497
     19 N         -11.4235  -18.1633   23.0588 N.pl3   1  UNL1       -0.2897
     20 C         -11.9056  -18.5783   24.4172 C.3     1  UNL1        0.1242
     21 C         -13.3766  -18.6447   24.7031 C.3     1  UNL1        0.1636
     22 O         -14.3656  -18.2961   23.6305 O.3     1  UNL1       -0.3502
     23 C         -13.8834  -17.8810   22.2721 C.3     1  UNL1        0.1618
     24 C         -12.4124  -17.8146   21.9863 C.3     1  UNL1        0.1038
     25 C         -11.9304  -17.3995   20.6278 C.3     1  UNL1        0.0241
     26 C          -7.3341  -19.5483   20.1677 C.3     1  UNL1        0.1457
     27 C          -7.2521  -20.2512   18.8451 C.3     1  UNL1        0.0297
     28 C          -8.5505  -19.6505   19.2959 C.3     1  UNL1        0.0297
     29 S          -5.9185  -19.7097   20.6367 S.O2    1  UNL1       -0.0065
     30 C          -4.5029  -19.8712   21.1057 C.3     1  UNL1        0.1764
     31 O          -6.3387  -20.8534   21.5116 O.2     1  UNL1       -0.1727
     32 O          -5.4982  -18.5661   19.7618 O.2     1  UNL1       -0.1727
@<TRIPOS>BOND
     1    16    17    1
     2    17     7    1
     3     7     8   ar
     4     8     9   ar
     5     9    10   ar
     6    10    11   ar
     7    11    12   ar
     8    12    13   ar
     9    13    14   ar
    10    14    15   ar
    11    15     1    1
    12     1     2   ar
    13     2     3   ar
    14     3    19    1
    15    19    20    1
    16    20    21    1
    17    21    22    1
    18    22    23    1
    19    23    24    1
    20    24    25    1
    21     3     4   ar
    22     4     5   ar
    23     5    26    1
    24    26    29    1
    25    29    30    1
    26    29    31    2
    27    29    32    2
    28    26    27    1
    29    27    28    1
    30     5     6   ar
    31    15     7   ar
    32     6     1   ar
    33    14     9   ar
    34    24    19    1
    35    28    26    1
    36    17    18    1
