@<TRIPOS>MOLECULE
*****
 35 38 0 0 0
SMALL
GASTEIGER

@<TRIPOS>ATOM
      1 C         -11.4302  -17.0805   21.0731 C.3     1  UNL1        0.1556
      2 O         -12.1875  -16.4609   19.9361 O.3     1  UNL1       -0.3805
      3 H         -12.0873  -17.0106   19.1432 H       1  UNL1        0.2105
      4 C         -10.6774  -18.3609   20.8634 C.3     1  UNL1        0.1007
      5 N          -9.4988  -18.3947   19.9360 N.3     1  UNL1       -0.2972
      6 H          -9.8624  -18.5987   19.0051 H       1  UNL1        0.1233
      7 C          -8.2223  -18.8220   21.5755 C.3     1  UNL1        0.0161
      8 C          -8.3771  -19.3593   20.1836 C.3     1  UNL1        0.0461
      9 C          -8.5319  -19.8967   18.7918 C.3     1  UNL1        0.0161
     10 C          -7.2554  -20.3239   20.4313 C.3     1  UNL1        0.0408
     11 C          -5.8811  -19.8114   20.7458 C.ar    1  UNL1       -0.0209
     12 C          -5.3868  -19.8108   22.1620 C.ar    1  UNL1       -0.0042
     13 C          -4.0127  -19.2983   22.4765 C.ar    1  UNL1       -0.0003
     14 C          -3.1328  -18.7863   21.3748 C.ar    1  UNL1       -0.0000
     15 C          -1.7586  -18.2738   21.6894 C.ar    1  UNL1       -0.0000
     16 C          -0.8788  -17.7618   20.5877 C.ar    1  UNL1       -0.0000
     17 C          -1.3731  -17.7624   19.1715 C.ar    1  UNL1       -0.0000
     18 C          -2.7472  -18.2749   18.8570 C.ar    1  UNL1       -0.0000
     19 C          -3.6271  -18.7868   19.9586 C.ar    1  UNL1       -0.0003
     20 C          -5.0013  -19.2994   19.6441 C.ar    1  UNL1       -0.0042
     21 C         -11.4257  -16.4198   22.4197 C.3     1  UNL1        0.1729
     22 O         -10.1246  -16.0717   23.0800 O.3     1  UNL1       -0.3492
     23 C          -9.6234  -16.8942   24.2299 C.3     1  UNL1        0.1372
     24 C          -8.5199  -16.3717   25.1010 C.ar    1  UNL1        0.0029
     25 C          -8.6596  -16.4125   26.5940 C.ar    1  UNL1       -0.0022
     26 C          -7.5560  -15.8900   27.4651 C.ar    1  UNL1       -0.0003
     27 C          -6.3126  -15.3265   26.8434 C.ar    1  UNL1       -0.0003
     28 C          -6.1728  -15.2857   25.3505 C.ar    1  UNL1       -0.0021
     29 C          -7.2765  -15.8083   24.4793 C.ar    1  UNL1        0.0052
     30 C          -7.1368  -15.7674   22.9864 C.3     1  UNL1        0.1634
     31 O          -7.7664  -14.6529   22.2044 O.3     1  UNL1       -0.3772
     32 H          -8.7319  -14.7133   22.2754 H       1  UNL1        0.2109
     33 C         -10.2259  -18.2394   24.5086 C.3     1  UNL1        0.0315
     34 C         -11.4317  -19.1242   24.6229 C.3     1  UNL1        0.0028
     35 C         -10.0636  -19.6843   24.8769 C.3     1  UNL1        0.0028
@<TRIPOS>BOND
     1     7     8    1
     2     8     9    1
     3     8    10    1
     4    10    11    1
     5    11    12   ar
     6    12    13   ar
     7    13    14   ar
     8    14    15   ar
     9    15    16   ar
    10    16    17   ar
    11    17    18   ar
    12    18    19   ar
    13    19    20   ar
    14     8     5    1
    15     5     4    1
    16     4     1    1
    17     1     2    1
    18     1    21    1
    19    21    22    1
    20    23    22    1
    21    23    24    1
    22    24    25   ar
    23    25    26   ar
    24    26    27   ar
    25    27    28   ar
    26    28    29   ar
    27    29    30    1
    28    30    31    1
    29    23    33    1
    30    33    34    1
    31    34    35    1
    32    20    11   ar
    33    29    24   ar
    34    35    33    1
    35    19    14   ar
    36     5     6    1
    37     2     3    1
    38    31    32    1
@<TRIPOS>MOLECULE
*****
 35 38 0 0 0
SMALL
GASTEIGER

@<TRIPOS>ATOM
      1 C          -8.7723  -16.1590   23.9371 C.3     1  UNL1        0.1556
      2 O          -8.9422  -15.6721   22.5285 O.3     1  UNL1       -0.3805
      3 H          -8.6676  -14.7435   22.4720 H       1  UNL1        0.2105
      4 C          -8.2453  -15.2325   24.9924 C.3     1  UNL1        0.1007
      5 N          -6.9138  -14.5664   24.8087 N.3     1  UNL1       -0.2972
      6 H          -6.9575  -14.0596   23.9247 H       1  UNL1        0.1233
      7 C          -5.4215  -14.9664   23.3551 C.3     1  UNL1        0.0161
      8 C          -5.6612  -15.3910   24.7736 C.3     1  UNL1        0.0461
      9 C          -5.9010  -15.8157   26.1921 C.3     1  UNL1        0.0161
     10 C          -4.4087  -16.2156   24.7385 C.3     1  UNL1        0.0408
     11 C          -4.2079  -17.2285   23.6504 C.ar    1  UNL1       -0.0209
     12 C          -2.8339  -17.4792   23.1034 C.ar    1  UNL1       -0.0042
     13 C          -2.6330  -18.4920   22.0154 C.ar    1  UNL1       -0.0003
     14 C          -3.8062  -19.2543   21.4744 C.ar    1  UNL1       -0.0000
     15 C          -3.6054  -20.2671   20.3864 C.ar    1  UNL1       -0.0000
     16 C          -4.7785  -21.0293   19.8454 C.ar    1  UNL1       -0.0000
     17 C          -6.1525  -20.7787   20.3925 C.ar    1  UNL1       -0.0000
     18 C          -6.3534  -19.7658   21.4805 C.ar    1  UNL1       -0.0000
     19 C          -5.1802  -19.0036   22.0214 C.ar    1  UNL1       -0.0003
     20 C          -5.3811  -17.9907   23.1095 C.ar    1  UNL1       -0.0042
     21 C          -9.1295  -17.5723   24.2903 C.3     1  UNL1        0.1729
     22 O         -10.5014  -17.8929   24.8052 O.3     1  UNL1       -0.3492
     23 C         -11.6019  -18.2351   23.8449 C.3     1  UNL1        0.1372
     24 C         -11.2829  -18.5075   22.4048 C.ar    1  UNL1        0.0029
     25 C         -10.5878  -19.7793   22.0182 C.ar    1  UNL1       -0.0022
     26 C         -10.2688  -20.0517   20.5781 C.ar    1  UNL1       -0.0003
     27 C         -10.6449  -19.0524   19.5245 C.ar    1  UNL1       -0.0003
     28 C         -11.3400  -17.7807   19.9111 C.ar    1  UNL1       -0.0021
     29 C         -11.6590  -17.5082   21.3513 C.ar    1  UNL1        0.0052
     30 C         -12.3541  -16.2365   21.7380 C.3     1  UNL1        0.1634
     31 O         -11.7005  -15.2862   22.6971 O.3     1  UNL1       -0.3772
     32 H         -11.6303  -15.7046   23.5695 H       1  UNL1        0.2109
     33 C         -13.0213  -18.3047   24.3249 C.3     1  UNL1        0.0315
     34 C         -14.0082  -18.4979   25.4378 C.3     1  UNL1        0.0028
     35 C         -14.4928  -18.2322   24.0433 C.3     1  UNL1        0.0028
@<TRIPOS>BOND
     1     7     8    1
     2     8     9    1
     3     8    10    1
     4    10    11    1
     5    11    12   ar
     6    12    13   ar
     7    13    14   ar
     8    14    15   ar
     9    15    16   ar
    10    16    17   ar
    11    17    18   ar
    12    18    19   ar
    13    19    20   ar
    14     8     5    1
    15     5     4    1
    16     4     1    1
    17     1     2    1
    18     1    21    1
    19    21    22    1
    20    23    22    1
    21    23    24    1
    22    24    25   ar
    23    25    26   ar
    24    26    27   ar
    25    27    28   ar
    26    28    29   ar
    27    29    30    1
    28    30    31    1
    29    23    33    1
    30    33    34    1
    31    34    35    1
    32    20    11   ar
    33    29    24   ar
    34    35    33    1
    35    19    14   ar
    36     5     6    1
    37     2     3    1
    38    31    32    1
@<TRIPOS>MOLECULE
*****
 35 38 0 0 0
SMALL
GASTEIGER

@<TRIPOS>ATOM
      1 C          -7.9422  -15.4726   22.8285 C.3     1  UNL1        0.1556
      2 O          -8.0322  -14.6083   21.6059 O.3     1  UNL1       -0.3805
      3 H          -7.9438  -13.6767   21.8613 H       1  UNL1        0.2105
      4 C          -7.7442  -14.8462   24.1770 C.3     1  UNL1        0.1007
      5 N          -6.3665  -14.4652   24.6319 N.3     1  UNL1       -0.2972
      6 H          -6.0283  -13.7543   23.9834 H       1  UNL1        0.1233
      7 C          -4.7618  -15.0862   23.3912 C.3     1  UNL1        0.0161
      8 C          -5.2933  -15.5088   24.7287 C.3     1  UNL1        0.0461
      9 C          -5.8249  -15.9313   26.0662 C.3     1  UNL1        0.0161
     10 C          -4.2202  -16.5523   24.8255 C.3     1  UNL1        0.0408
     11 C          -3.9658  -17.4759   23.6712 C.ar    1  UNL1       -0.0209
     12 C          -2.6020  -17.5422   23.0502 C.ar    1  UNL1       -0.0042
     13 C          -2.3476  -18.4657   21.8959 C.ar    1  UNL1       -0.0003
     14 C          -3.4571  -19.3229   21.3625 C.ar    1  UNL1       -0.0000
     15 C          -3.2027  -20.2464   20.2083 C.ar    1  UNL1       -0.0000
     16 C          -4.3121  -21.1035   19.6750 C.ar    1  UNL1       -0.0000
     17 C          -5.6760  -21.0372   20.2960 C.ar    1  UNL1       -0.0000
     18 C          -5.9303  -20.1137   21.4502 C.ar    1  UNL1       -0.0000
     19 C          -4.8209  -19.2566   21.9835 C.ar    1  UNL1       -0.0003
     20 C          -5.0753  -18.3330   23.1379 C.ar    1  UNL1       -0.0042
     21 C          -8.0503  -16.9634   22.7027 C.3     1  UNL1        0.1729
     22 O          -8.2340  -17.5908   21.3527 O.3     1  UNL1       -0.3492
     23 C          -9.4717  -18.3849   21.0568 C.3     1  UNL1        0.1372
     24 C         -10.6636  -18.2811   21.9616 C.ar    1  UNL1        0.0029
     25 C         -10.7758  -19.1763   23.1599 C.ar    1  UNL1       -0.0022
     26 C         -11.9676  -19.0724   24.0647 C.ar    1  UNL1       -0.0003
     27 C         -13.0474  -18.0734   23.7711 C.ar    1  UNL1       -0.0003
     28 C         -12.9352  -17.1782   22.5728 C.ar    1  UNL1       -0.0021
     29 C         -11.7432  -17.2821   21.6680 C.ar    1  UNL1        0.0052
     30 C         -11.6311  -16.3869   20.4696 C.3     1  UNL1        0.1634
     31 O         -10.4342  -15.4973   20.3074 O.3     1  UNL1       -0.3772
     32 H         -10.4306  -14.8288   21.0103 H       1  UNL1        0.2109
     33 C          -9.5175  -19.2829   19.8561 C.3     1  UNL1        0.0315
     34 C          -8.8082  -20.1005   18.8177 C.3     1  UNL1        0.0028
     35 C         -10.3061  -20.0205   18.8150 C.3     1  UNL1        0.0028
@<TRIPOS>BOND
     1     7     8    1
     2     8     9    1
     3     8    10    1
     4    10    11    1
     5    11    12   ar
     6    12    13   ar
     7    13    14   ar
     8    14    15   ar
     9    15    16   ar
    10    16    17   ar
    11    17    18   ar
    12    18    19   ar
    13    19    20   ar
    14     8     5    1
    15     5     4    1
    16     4     1    1
    17     1     2    1
    18     1    21    1
    19    21    22    1
    20    23    22    1
    21    23    24    1
    22    24    25   ar
    23    25    26   ar
    24    26    27   ar
    25    27    28   ar
    26    28    29   ar
    27    29    30    1
    28    30    31    1
    29    23    33    1
    30    33    34    1
    31    34    35    1
    32    20    11   ar
    33    29    24   ar
    34    35    33    1
    35    19    14   ar
    36     5     6    1
    37     2     3    1
    38    31    32    1
@<TRIPOS>MOLECULE
*****
 35 38 0 0 0
SMALL
GASTEIGER

@<TRIPOS>ATOM
      1 C         -10.1204  -19.4096   19.9360 C.3     1  UNL1        0.1556
      2 O         -10.7118  -20.5132   20.7621 O.3     1  UNL1       -0.3805
      3 H         -11.6405  -20.3105   20.9552 H       1  UNL1        0.2105
      4 C         -10.9629  -18.2320   19.5443 C.3     1  UNL1        0.1007
      5 N         -12.0738  -17.7729   20.4417 N.3     1  UNL1       -0.2972
      6 H         -12.7321  -17.2591   19.8561 H       1  UNL1        0.1233
      7 C         -11.2804  -15.8227   20.7005 C.3     1  UNL1        0.0161
      8 C         -11.7713  -16.8990   21.6227 C.3     1  UNL1        0.0461
      9 C         -12.2622  -17.9754   22.5449 C.3     1  UNL1        0.0161
     10 C         -11.4688  -16.0251   22.8037 C.3     1  UNL1        0.0408
     11 C         -10.0562  -15.8798   23.2870 C.ar    1  UNL1       -0.0209
     12 C          -8.9286  -15.8173   22.2998 C.ar    1  UNL1       -0.0042
     13 C          -7.5160  -15.6720   22.7829 C.ar    1  UNL1       -0.0003
     14 C          -7.2310  -15.5891   24.2533 C.ar    1  UNL1       -0.0000
     15 C          -5.8184  -15.4438   24.7365 C.ar    1  UNL1       -0.0000
     16 C          -5.5335  -15.3610   26.2068 C.ar    1  UNL1       -0.0000
     17 C          -6.6612  -15.4234   27.1940 C.ar    1  UNL1       -0.0000
     18 C          -8.0737  -15.5688   26.7108 C.ar    1  UNL1       -0.0000
     19 C          -8.3586  -15.6516   25.2405 C.ar    1  UNL1       -0.0003
     20 C          -9.7713  -15.7969   24.7573 C.ar    1  UNL1       -0.0042
     21 C          -8.6866  -19.4836   19.5016 C.3     1  UNL1        0.1729
     22 O          -7.6519  -18.6379   20.1829 O.3     1  UNL1       -0.3492
     23 C          -7.0795  -19.0694   21.5006 C.3     1  UNL1        0.1372
     24 C          -5.5957  -19.0424   21.7187 C.ar    1  UNL1        0.0029
     25 C          -5.0078  -18.1439   22.7661 C.ar    1  UNL1       -0.0022
     26 C          -3.5241  -18.1169   22.9842 C.ar    1  UNL1       -0.0003
     27 C          -2.6281  -18.9884   22.1548 C.ar    1  UNL1       -0.0003
     28 C          -3.2160  -19.8868   21.1073 C.ar    1  UNL1       -0.0021
     29 C          -4.6998  -19.9138   20.8893 C.ar    1  UNL1        0.0052
     30 C          -5.2877  -20.8123   19.8418 C.3     1  UNL1        0.1634
     31 O          -6.0755  -22.0225   20.2480 O.3     1  UNL1       -0.3772
     32 H          -5.4902  -22.6545   20.6941 H       1  UNL1        0.2109
     33 C          -7.9910  -19.5280   22.6001 C.3     1  UNL1        0.0315
     34 C          -8.5208  -20.6246   23.4757 C.3     1  UNL1        0.0028
     35 C          -9.0397  -19.2256   23.6290 C.3     1  UNL1        0.0028
@<TRIPOS>BOND
     1     7     8    1
     2     8     9    1
     3     8    10    1
     4    10    11    1
     5    11    12   ar
     6    12    13   ar
     7    13    14   ar
     8    14    15   ar
     9    15    16   ar
    10    16    17   ar
    11    17    18   ar
    12    18    19   ar
    13    19    20   ar
    14     8     5    1
    15     5     4    1
    16     4     1    1
    17     1     2    1
    18     1    21    1
    19    21    22    1
    20    23    22    1
    21    23    24    1
    22    24    25   ar
    23    25    26   ar
    24    26    27   ar
    25    27    28   ar
    26    28    29   ar
    27    29    30    1
    28    30    31    1
    29    23    33    1
    30    33    34    1
    31    34    35    1
    32    20    11   ar
    33    29    24   ar
    34    35    33    1
    35    19    14   ar
    36     5     6    1
    37     2     3    1
    38    31    32    1
@<TRIPOS>MOLECULE
*****
 35 38 0 0 0
SMALL
GASTEIGER

@<TRIPOS>ATOM
      1 C         -10.8819  -18.6143   20.7084 C.3     1  UNL1        0.1556
      2 O         -12.1191  -17.8422   20.3572 O.3     1  UNL1       -0.3805
      3 H         -11.8969  -17.1503   19.7146 H       1  UNL1        0.2105
      4 C          -9.5690  -18.2540   20.0787 C.3     1  UNL1        0.1007
      5 N          -8.5806  -19.3296   19.7375 N.3     1  UNL1       -0.2972
      6 H          -9.1141  -20.1891   19.6070 H       1  UNL1        0.1233
      7 C          -7.6850  -18.3447   21.3891 C.3     1  UNL1        0.0161
      8 C          -7.4653  -19.6521   20.6873 C.3     1  UNL1        0.0461
      9 C          -7.2457  -20.9595   19.9855 C.3     1  UNL1        0.0161
     10 C          -6.3501  -19.9746   21.6371 C.3     1  UNL1        0.0408
     11 C          -5.0629  -19.2072   21.5708 C.ar    1  UNL1       -0.0209
     12 C          -4.5852  -18.4390   22.7674 C.ar    1  UNL1       -0.0042
     13 C          -3.2982  -17.6716   22.7011 C.ar    1  UNL1       -0.0003
     14 C          -2.4887  -17.6723   21.4382 C.ar    1  UNL1       -0.0000
     15 C          -1.2016  -16.9048   21.3720 C.ar    1  UNL1       -0.0000
     16 C          -0.3922  -16.9055   20.1091 C.ar    1  UNL1       -0.0000
     17 C          -0.8699  -17.6737   18.9125 C.ar    1  UNL1       -0.0000
     18 C          -2.1570  -18.4411   18.9788 C.ar    1  UNL1       -0.0000
     19 C          -2.9664  -18.4404   20.2416 C.ar    1  UNL1       -0.0003
     20 C          -4.2535  -19.2078   20.3080 C.ar    1  UNL1       -0.0042
     21 C         -10.9576  -19.7467   21.6892 C.3     1  UNL1        0.1729
     22 O         -10.3977  -19.5809   23.0709 O.3     1  UNL1       -0.3492
     23 C         -10.9422  -18.5177   23.9782 C.3     1  UNL1        0.1372
     24 C         -10.0043  -17.6094   24.7167 C.ar    1  UNL1        0.0029
     25 C          -9.5305  -17.9777   26.0914 C.ar    1  UNL1       -0.0022
     26 C          -8.5926  -17.0695   26.8298 C.ar    1  UNL1       -0.0003
     27 C          -8.1285  -15.7928   26.1936 C.ar    1  UNL1       -0.0003
     28 C          -8.6023  -15.4244   24.8189 C.ar    1  UNL1       -0.0021
     29 C          -9.5402  -16.3328   24.0804 C.ar    1  UNL1        0.0052
     30 C         -10.0141  -15.9645   22.7057 C.3     1  UNL1        0.1634
     31 O         -11.4339  -15.5297   22.4932 O.3     1  UNL1       -0.3772
     32 H         -12.0304  -16.2723   22.6769 H       1  UNL1        0.2109
     33 C         -12.4246  -18.3628   24.1470 C.3     1  UNL1        0.0315
     34 C         -13.6645  -18.5477   24.9706 C.3     1  UNL1        0.0028
     35 C         -13.7522  -17.9098   23.6158 C.3     1  UNL1        0.0028
@<TRIPOS>BOND
     1     7     8    1
     2     8     9    1
     3     8    10    1
     4    10    11    1
     5    11    12   ar
     6    12    13   ar
     7    13    14   ar
     8    14    15   ar
     9    15    16   ar
    10    16    17   ar
    11    17    18   ar
    12    18    19   ar
    13    19    20   ar
    14     8     5    1
    15     5     4    1
    16     4     1    1
    17     1     2    1
    18     1    21    1
    19    21    22    1
    20    23    22    1
    21    23    24    1
    22    24    25   ar
    23    25    26   ar
    24    26    27   ar
    25    27    28   ar
    26    28    29   ar
    27    29    30    1
    28    30    31    1
    29    23    33    1
    30    33    34    1
    31    34    35    1
    32    20    11   ar
    33    29    24   ar
    34    35    33    1
    35    19    14   ar
    36     5     6    1
    37     2     3    1
    38    31    32    1
@<TRIPOS>MOLECULE
*****
 35 38 0 0 0
SMALL
GASTEIGER

@<TRIPOS>ATOM
      1 C          -4.7226  -19.1646   20.1338 C.3     1  UNL1        0.1556
      2 O          -4.4314  -18.1221   19.0954 O.3     1  UNL1       -0.3805
      3 H          -3.4795  -17.9356   19.0825 H       1  UNL1        0.2105
      4 C          -3.6054  -19.7402   20.9527 C.3     1  UNL1        0.1007
      5 N          -2.5092  -18.8492   21.4572 N.3     1  UNL1       -0.2972
      6 H          -1.8849  -19.4354   22.0113 H       1  UNL1        0.1233
      7 C          -2.1543  -16.7631   21.3086 C.3     1  UNL1        0.0161
      8 C          -2.8424  -17.6539   22.3000 C.3     1  UNL1        0.0461
      9 C          -3.5305  -18.5448   23.2914 C.3     1  UNL1        0.0161
     10 C          -3.1756  -16.4586   23.1428 C.3     1  UNL1        0.0408
     11 C          -4.5582  -16.2969   23.7017 C.ar    1  UNL1       -0.0209
     12 C          -5.7533  -16.5547   22.8326 C.ar    1  UNL1       -0.0042
     13 C          -7.1359  -16.3930   23.3914 C.ar    1  UNL1       -0.0003
     14 C          -7.3234  -15.9735   24.8193 C.ar    1  UNL1       -0.0000
     15 C          -8.7060  -15.8118   25.3781 C.ar    1  UNL1       -0.0000
     16 C          -8.8935  -15.3923   26.8060 C.ar    1  UNL1       -0.0000
     17 C          -7.6984  -15.1345   27.6751 C.ar    1  UNL1       -0.0000
     18 C          -6.3158  -15.2962   27.1163 C.ar    1  UNL1       -0.0000
     19 C          -6.1283  -15.7157   25.6884 C.ar    1  UNL1       -0.0003
     20 C          -4.7457  -15.8774   25.1295 C.ar    1  UNL1       -0.0042
     21 C          -6.1311  -19.6316   20.3534 C.3     1  UNL1        0.1729
     22 O          -7.1926  -18.6505   20.7544 O.3     1  UNL1       -0.3492
     23 C          -8.6274  -19.0831   20.8201 C.3     1  UNL1        0.1372
     24 C          -9.3890  -18.9622   22.1067 C.ar    1  UNL1        0.0029
     25 C          -9.1759  -19.9652   23.2015 C.ar    1  UNL1       -0.0022
     26 C          -9.9375  -19.8443   24.4880 C.ar    1  UNL1       -0.0003
     27 C         -10.9122  -18.7203   24.6798 C.ar    1  UNL1       -0.0003
     28 C         -11.1253  -17.7173   23.5850 C.ar    1  UNL1       -0.0021
     29 C         -10.3636  -17.8383   22.2984 C.ar    1  UNL1        0.0052
     30 C         -10.5766  -16.8353   21.2036 C.3     1  UNL1        0.1634
     31 O          -9.7830  -15.5624   21.1877 O.3     1  UNL1       -0.3772
     32 H         -10.0262  -15.0201   21.9543 H       1  UNL1        0.2109
     33 C          -9.3005  -19.6366   19.5992 C.3     1  UNL1        0.0315
     34 C          -9.2512  -20.4737   18.3556 C.3     1  UNL1        0.0028
     35 C         -10.5157  -19.7582   18.7284 C.3     1  UNL1        0.0028
@<TRIPOS>BOND
     1     7     8    1
     2     8     9    1
     3     8    10    1
     4    10    11    1
     5    11    12   ar
     6    12    13   ar
     7    13    14   ar
     8    14    15   ar
     9    15    16   ar
    10    16    17   ar
    11    17    18   ar
    12    18    19   ar
    13    19    20   ar
    14     8     5    1
    15     5     4    1
    16     4     1    1
    17     1     2    1
    18     1    21    1
    19    21    22    1
    20    23    22    1
    21    23    24    1
    22    24    25   ar
    23    25    26   ar
    24    26    27   ar
    25    27    28   ar
    26    28    29   ar
    27    29    30    1
    28    30    31    1
    29    23    33    1
    30    33    34    1
    31    34    35    1
    32    20    11   ar
    33    29    24   ar
    34    35    33    1
    35    19    14   ar
    36     5     6    1
    37     2     3    1
    38    31    32    1
@<TRIPOS>MOLECULE
*****
 35 38 0 0 0
SMALL
GASTEIGER

@<TRIPOS>ATOM
      1 C          -9.1694  -19.4273   19.6218 C.3     1  UNL1        0.1556
      2 O          -8.6792  -20.3389   18.5360 O.3     1  UNL1       -0.3805
      3 H          -9.3923  -20.4929   17.8967 H       1  UNL1        0.2105
      4 C         -10.5775  -18.9112   19.5889 C.3     1  UNL1        0.1007
      5 N         -11.4305  -18.9801   20.8209 N.3     1  UNL1       -0.2972
      6 H         -12.4011  -18.9790   20.5075 H       1  UNL1        0.1233
      7 C         -11.0365  -18.9712   22.9053 C.3     1  UNL1        0.0161
      8 C         -11.3143  -17.9181   21.8739 C.3     1  UNL1        0.0461
      9 C         -11.5920  -16.8650   20.8424 C.3     1  UNL1        0.0161
     10 C         -11.1981  -16.8561   22.9268 C.3     1  UNL1        0.0408
     11 C          -9.8452  -16.4205   23.4066 C.ar    1  UNL1       -0.0209
     12 C          -8.7954  -16.0088   22.4175 C.ar    1  UNL1       -0.0042
     13 C          -7.4426  -15.5732   22.8972 C.ar    1  UNL1       -0.0003
     14 C          -7.1396  -15.5493   24.3661 C.ar    1  UNL1       -0.0000
     15 C          -5.7868  -15.1137   24.8458 C.ar    1  UNL1       -0.0000
     16 C          -5.4838  -15.0899   26.3147 C.ar    1  UNL1       -0.0000
     17 C          -6.5336  -15.5016   27.3038 C.ar    1  UNL1       -0.0000
     18 C          -7.8864  -15.9372   26.8241 C.ar    1  UNL1       -0.0000
     19 C          -8.1894  -15.9611   25.3552 C.ar    1  UNL1       -0.0003
     20 C          -9.5422  -16.3967   24.8754 C.ar    1  UNL1       -0.0042
     21 C          -8.2517  -19.0319   20.7404 C.3     1  UNL1        0.1729
     22 O          -6.9166  -18.4202   20.4345 O.3     1  UNL1       -0.3492
     23 C          -5.6576  -19.1765   20.7392 C.3     1  UNL1        0.1372
     24 C          -4.5634  -18.5236   21.5307 C.ar    1  UNL1        0.0029
     25 C          -4.7072  -18.3586   23.0146 C.ar    1  UNL1       -0.0022
     26 C          -3.6131  -17.7058   23.8062 C.ar    1  UNL1       -0.0003
     27 C          -2.3750  -17.2179   23.1138 C.ar    1  UNL1       -0.0003
     28 C          -2.2312  -17.3830   21.6298 C.ar    1  UNL1       -0.0021
     29 C          -3.3255  -18.0359   20.8383 C.ar    1  UNL1        0.0052
     30 C          -3.1817  -18.2009   19.3543 C.3     1  UNL1        0.1634
     31 O          -3.4706  -17.0474   18.4399 O.3     1  UNL1       -0.3772
     32 H          -4.4136  -16.8251   18.4879 H       1  UNL1        0.2109
     33 C          -5.4927  -20.5857   20.2523 C.3     1  UNL1        0.0315
     34 C          -6.0660  -21.9491   20.0023 C.3     1  UNL1        0.0028
     35 C          -4.6340  -21.6630   19.6591 C.3     1  UNL1        0.0028
@<TRIPOS>BOND
     1     7     8    1
     2     8     9    1
     3     8    10    1
     4    10    11    1
     5    11    12   ar
     6    12    13   ar
     7    13    14   ar
     8    14    15   ar
     9    15    16   ar
    10    16    17   ar
    11    17    18   ar
    12    18    19   ar
    13    19    20   ar
    14     8     5    1
    15     5     4    1
    16     4     1    1
    17     1     2    1
    18     1    21    1
    19    21    22    1
    20    23    22    1
    21    23    24    1
    22    24    25   ar
    23    25    26   ar
    24    26    27   ar
    25    27    28   ar
    26    28    29   ar
    27    29    30    1
    28    30    31    1
    29    23    33    1
    30    33    34    1
    31    34    35    1
    32    20    11   ar
    33    29    24   ar
    34    35    33    1
    35    19    14   ar
    36     5     6    1
    37     2     3    1
    38    31    32    1
@<TRIPOS>MOLECULE
*****
 35 38 0 0 0
SMALL
GASTEIGER

@<TRIPOS>ATOM
      1 C          -6.7903  -19.0474   20.2472 C.3     1  UNL1        0.1556
      2 O          -5.7839  -18.4376   19.3170 O.3     1  UNL1       -0.3805
      3 H          -6.0621  -18.5829   18.3992 H       1  UNL1        0.2105
      4 C          -7.9970  -19.7455   19.6933 C.3     1  UNL1        0.1007
      5 N          -9.2622  -18.9772   19.4501 N.3     1  UNL1       -0.2972
      6 H          -8.9897  -18.0824   19.0434 H       1  UNL1        0.1233
      7 C         -10.4912  -17.3333   19.9860 C.3     1  UNL1        0.0161
      8 C         -10.1848  -18.6707   20.5924 C.3     1  UNL1        0.0461
      9 C          -9.8784  -20.0080   21.1987 C.3     1  UNL1        0.0161
     10 C         -11.1074  -18.3642   21.7346 C.3     1  UNL1        0.0408
     11 C         -10.5490  -18.1220   23.1056 C.ar    1  UNL1       -0.0209
     12 C         -10.7153  -19.1584   24.1771 C.ar    1  UNL1       -0.0042
     13 C         -10.1569  -18.9163   25.5480 C.ar    1  UNL1       -0.0003
     14 C          -9.4321  -17.6376   25.8475 C.ar    1  UNL1       -0.0000
     15 C          -8.8736  -17.3954   27.2184 C.ar    1  UNL1       -0.0000
     16 C          -8.1488  -16.1168   27.5179 C.ar    1  UNL1       -0.0000
     17 C          -7.9825  -15.0803   26.4464 C.ar    1  UNL1       -0.0000
     18 C          -8.5409  -15.3225   25.0755 C.ar    1  UNL1       -0.0000
     19 C          -9.2657  -16.6011   24.7761 C.ar    1  UNL1       -0.0003
     20 C          -9.8242  -16.8433   23.4051 C.ar    1  UNL1       -0.0042
     21 C          -6.5901  -18.9592   21.7311 C.3     1  UNL1        0.1729
     22 O          -5.2215  -19.1462   22.3157 O.3     1  UNL1       -0.3492
     23 C          -4.3389  -17.9570   22.5543 C.3     1  UNL1        0.1372
     24 C          -3.0782  -17.7871   21.7596 C.ar    1  UNL1        0.0029
     25 C          -2.3724  -16.4636   21.7465 C.ar    1  UNL1       -0.0022
     26 C          -1.1116  -16.2938   20.9518 C.ar    1  UNL1       -0.0003
     27 C          -0.5565  -17.4475   20.1702 C.ar    1  UNL1       -0.0003
     28 C          -1.2623  -18.7710   20.1833 C.ar    1  UNL1       -0.0021
     29 C          -2.5231  -18.9408   20.9781 C.ar    1  UNL1        0.0052
     30 C          -3.2289  -20.2644   20.9912 C.3     1  UNL1        0.1634
     31 O          -4.0204  -20.7041   19.7952 O.3     1  UNL1       -0.3772
     32 H          -4.7821  -20.1152   19.6772 H       1  UNL1        0.2109
     33 C          -4.7172  -16.9376   23.5876 C.3     1  UNL1        0.0315
     34 C          -4.7900  -16.5081   25.0230 C.3     1  UNL1        0.0028
     35 C          -5.2996  -15.6015   23.9421 C.3     1  UNL1        0.0028
@<TRIPOS>BOND
     1     7     8    1
     2     8     9    1
     3     8    10    1
     4    10    11    1
     5    11    12   ar
     6    12    13   ar
     7    13    14   ar
     8    14    15   ar
     9    15    16   ar
    10    16    17   ar
    11    17    18   ar
    12    18    19   ar
    13    19    20   ar
    14     8     5    1
    15     5     4    1
    16     4     1    1
    17     1     2    1
    18     1    21    1
    19    21    22    1
    20    23    22    1
    21    23    24    1
    22    24    25   ar
    23    25    26   ar
    24    26    27   ar
    25    27    28   ar
    26    28    29   ar
    27    29    30    1
    28    30    31    1
    29    23    33    1
    30    33    34    1
    31    34    35    1
    32    20    11   ar
    33    29    24   ar
    34    35    33    1
    35    19    14   ar
    36     5     6    1
    37     2     3    1
    38    31    32    1
@<TRIPOS>MOLECULE
*****
 35 38 0 0 0
SMALL
GASTEIGER

@<TRIPOS>ATOM
      1 C          -8.4892  -15.4470   24.0583 C.3     1  UNL1        0.1556
      2 O          -8.2068  -14.7973   22.7361 O.3     1  UNL1       -0.3805
      3 H          -7.5311  -14.1109   22.8509 H       1  UNL1        0.2105
      4 C          -7.7571  -14.9957   25.2873 C.3     1  UNL1        0.1007
      5 N          -6.3028  -14.6377   25.2049 N.3     1  UNL1       -0.2972
      6 H          -6.1998  -14.0049   24.4116 H       1  UNL1        0.1233
      7 C          -4.9880  -15.2248   23.6471 C.3     1  UNL1        0.0161
      8 C          -5.2735  -15.7156   25.0355 C.3     1  UNL1        0.0461
      9 C          -5.5589  -16.2064   26.4239 C.3     1  UNL1        0.0161
     10 C          -4.2442  -16.7935   24.8660 C.3     1  UNL1        0.0408
     11 C          -3.9654  -17.3569   23.5040 C.ar    1  UNL1       -0.0209
     12 C          -4.8860  -18.3840   22.9145 C.ar    1  UNL1       -0.0042
     13 C          -4.6073  -18.9474   21.5526 C.ar    1  UNL1       -0.0003
     14 C          -3.4080  -18.4838   20.7801 C.ar    1  UNL1       -0.0000
     15 C          -3.1293  -19.0472   19.4182 C.ar    1  UNL1       -0.0000
     16 C          -1.9300  -18.5835   18.6459 C.ar    1  UNL1       -0.0000
     17 C          -1.0094  -17.5565   19.2354 C.ar    1  UNL1       -0.0000
     18 C          -1.2881  -16.9930   20.5973 C.ar    1  UNL1       -0.0000
     19 C          -2.4874  -17.4567   21.3697 C.ar    1  UNL1       -0.0003
     20 C          -2.7661  -16.8932   22.7316 C.ar    1  UNL1       -0.0042
     21 C          -9.5037  -16.5480   24.1515 C.3     1  UNL1        0.1729
     22 O         -10.9044  -16.3202   23.6656 O.3     1  UNL1       -0.3492
     23 C         -11.7091  -17.4683   23.1321 C.3     1  UNL1        0.1372
     24 C         -11.2742  -18.1716   21.8807 C.ar    1  UNL1        0.0029
     25 C         -10.6063  -19.5119   21.9672 C.ar    1  UNL1       -0.0022
     26 C         -10.1713  -20.2153   20.7158 C.ar    1  UNL1       -0.0003
     27 C         -10.4042  -19.5783   19.3778 C.ar    1  UNL1       -0.0003
     28 C         -11.0720  -18.2379   19.2913 C.ar    1  UNL1       -0.0021
     29 C         -11.5070  -17.5346   20.5428 C.ar    1  UNL1        0.0052
     30 C         -12.1749  -16.1943   20.4564 C.3     1  UNL1        0.1634
     31 O         -12.3425  -15.5244   19.1247 O.3     1  UNL1       -0.3772
     32 H         -11.4709  -15.2949   18.7662 H       1  UNL1        0.2109
     33 C         -12.9488  -17.9129   23.8501 C.3     1  UNL1        0.0315
     34 C         -14.4367  -18.1005   23.8787 C.3     1  UNL1        0.0028
     35 C         -13.6081  -18.4953   25.0650 C.3     1  UNL1        0.0028
@<TRIPOS>BOND
     1     7     8    1
     2     8     9    1
     3     8    10    1
     4    10    11    1
     5    11    12   ar
     6    12    13   ar
     7    13    14   ar
     8    14    15   ar
     9    15    16   ar
    10    16    17   ar
    11    17    18   ar
    12    18    19   ar
    13    19    20   ar
    14     8     5    1
    15     5     4    1
    16     4     1    1
    17     1     2    1
    18     1    21    1
    19    21    22    1
    20    23    22    1
    21    23    24    1
    22    24    25   ar
    23    25    26   ar
    24    26    27   ar
    25    27    28   ar
    26    28    29   ar
    27    29    30    1
    28    30    31    1
    29    23    33    1
    30    33    34    1
    31    34    35    1
    32    20    11   ar
    33    29    24   ar
    34    35    33    1
    35    19    14   ar
    36     5     6    1
    37     2     3    1
    38    31    32    1
