@<TRIPOS>MOLECULE
*****
 36 39 0 0 0
SMALL
GASTEIGER

@<TRIPOS>ATOM
      1 N           2.5459    0.8457   22.9011 N.ar    1  UNL1       -0.2459
      2 C           2.9103    0.4598   24.3041 C.ar    1  UNL1        0.1116
      3 C           1.7257    0.7335   25.1827 C.ar    1  UNL1        0.0908
      4 C           0.6292    1.2886   24.3227 C.ar    1  UNL1        0.1363
      5 N           1.1361    1.3579   22.9127 N.ar    1  UNL1       -0.1661
      6 N           1.6509    0.4942   26.6616 N.am    1  UNL1       -0.2766
      7 C           1.9816    1.6012   27.6181 C.2     1  UNL1        0.2706
      8 O           2.3871    2.9476   27.0958 O.2     1  UNL1       -0.2680
      9 H           1.3847   -0.3895   27.0044 H       1  UNL1        0.1553
     10 C           1.9067    1.3619   29.0970 C.ar    1  UNL1        0.1764
     11 C           3.0039    0.8087   29.9573 C.ar    1  UNL1        0.0688
     12 C           2.4967    0.7387   31.3673 C.ar    1  UNL1        0.1961
     13 O           1.0861    1.2486   31.3784 O.2     1  UNL1       -0.3517
     14 N           0.7214    1.6338   29.9752 N.ar    1  UNL1       -0.0722
     15 C           3.2653    0.2454   32.5572 C.ar    1  UNL1        0.1375
     16 C           3.6672    1.2027   33.6399 C.ar    1  UNL1        0.1211
     17 N           4.4358    0.7094   34.8298 N.ar    1  UNL1       -0.2390
     18 C           4.8025   -0.7412   34.9371 C.ar    1  UNL1        0.1195
     19 C           4.4006   -1.6984   33.8544 C.ar    1  UNL1        0.1196
     20 N           3.6320   -1.2051   32.6644 N.ar    1  UNL1       -0.2375
     21 C           4.0518    1.9720   21.1084 C.3     1  UNL1        0.0312
     22 C           3.4352    0.7382   21.6979 C.3     1  UNL1        0.1274
     23 C           3.7078   -0.6031   21.0842 C.ar    1  UNL1        0.0038
     24 C           4.8645   -1.4274   21.5665 C.ar    1  UNL1       -0.0025
     25 C           5.1371   -2.7687   20.9528 C.ar    1  UNL1        0.0036
     26 C           4.2530   -3.2857   19.8568 C.ar    1  UNL1        0.0714
     27 C           3.0963   -2.4614   19.3746 C.ar    1  UNL1        0.0074
     28 C           2.8237   -1.1201   19.9883 C.ar    1  UNL1        0.0692
     29 C           4.5256   -4.6270   19.2431 C.3     1  UNL1        0.4186
     30 F           4.7983   -5.9683   18.6295 F       1  UNL1       -0.1659
     31 F           3.1085   -4.6921   18.7558 F       1  UNL1       -0.1659
     32 F           5.9427   -4.5618   19.7304 F       1  UNL1       -0.1659
     33 C           1.6670   -0.2958   19.5060 C.3     1  UNL1        0.4183
     34 F           0.5103    0.5285   19.0239 F       1  UNL1       -0.1659
     35 F           0.7822   -0.9358   20.5344 F       1  UNL1       -0.1659
     36 F           2.5517    0.3443   18.4777 F       1  UNL1       -0.1659
@<TRIPOS>BOND
     1    22    21    1
     2    22    23    1
     3    23    24   ar
     4    24    25   ar
     5    25    26   ar
     6    26    29    1
     7    29    30    1
     8    29    31    1
     9    29    32    1
    10    26    27   ar
    11    27    28   ar
    12    28    33    1
    13    33    34    1
    14    33    35    1
    15    33    36    1
    16    22     1    1
    17     1     2   ar
    18     2     3   ar
    19     3     6    1
    20     6     7   am
    21     7     8    2
    22     7    10    1
    23    10    11   ar
    24    11    12   ar
    25    12    15    1
    26    15    16   ar
    27    16    17   ar
    28    17    18   ar
    29    18    19   ar
    30    19    20   ar
    31    12    13   ar
    32    13    14   ar
    33     3     4   ar
    34     4     5   ar
    35    28    23   ar
    36     5     1   ar
    37    14    10   ar
    38    20    15   ar
    39     6     9    1
@<TRIPOS>MOLECULE
*****
 36 39 0 0 0
SMALL
GASTEIGER

@<TRIPOS>ATOM
      1 N           6.8919   -3.7318   22.2189 N.ar    1  UNL1       -0.2459
      2 C           6.3196   -3.3651   23.5560 C.ar    1  UNL1        0.1116
      3 C           6.7503   -4.4064   24.5460 C.ar    1  UNL1        0.0908
      4 C           7.5889   -5.4167   23.8207 C.ar    1  UNL1        0.1363
      5 N           7.6764   -4.9997   22.3825 N.ar    1  UNL1       -0.1661
      6 N           6.4034   -4.4327   26.0051 N.am    1  UNL1       -0.2766
      7 C           7.4472   -4.1019   27.0302 C.2     1  UNL1        0.2706
      8 O           8.8380   -3.7447   26.5963 O.2     1  UNL1       -0.2680
      9 H           5.4906   -4.6672   26.2899 H       1  UNL1        0.1553
     10 C           7.1003   -4.1283   28.4893 C.ar    1  UNL1        0.1764
     11 C           6.8370   -2.9317   29.3548 C.ar    1  UNL1        0.0688
     12 C           6.5297   -3.4198   30.7395 C.ar    1  UNL1        0.1961
     13 O           6.6031   -4.9180   30.7298 O.2     1  UNL1       -0.3517
     14 N           6.9558   -5.3559   29.3391 N.ar    1  UNL1       -0.0722
     15 C           6.2059   -2.5605   31.9255 C.ar    1  UNL1        0.1375
     16 C           7.2026   -1.5522   32.4157 C.ar    1  UNL1        0.1211
     17 N           6.8788   -0.6930   33.6017 N.ar    1  UNL1       -0.2390
     18 C           5.5584   -0.8419   34.2977 C.ar    1  UNL1        0.1195
     19 C           4.5618   -1.8502   33.8076 C.ar    1  UNL1        0.1196
     20 N           4.8855   -2.7095   32.6215 N.ar    1  UNL1       -0.2375
     21 C           7.8131   -2.9326   19.9248 C.3     1  UNL1        0.0312
     22 C           6.7114   -2.9651   20.9423 C.3     1  UNL1        0.1274
     23 C           5.4293   -2.2309   20.6832 C.ar    1  UNL1        0.0038
     24 C           5.2343   -0.8469   21.2275 C.ar    1  UNL1       -0.0025
     25 C           3.9522   -0.1128   20.9684 C.ar    1  UNL1        0.0036
     26 C           2.8650   -0.7628   20.1650 C.ar    1  UNL1        0.0714
     27 C           3.0599   -2.1468   19.6207 C.ar    1  UNL1        0.0074
     28 C           4.3420   -2.8809   19.8797 C.ar    1  UNL1        0.0692
     29 C           1.5828   -0.0286   19.9059 C.3     1  UNL1        0.4186
     30 F           0.3006    0.7055   19.6468 F       1  UNL1       -0.1659
     31 F           2.3547    1.2349   19.6657 F       1  UNL1       -0.1659
     32 F           0.8109   -1.2921   20.1461 F       1  UNL1       -0.1659
     33 C           4.5370   -4.2650   19.3354 C.3     1  UNL1        0.4183
     34 F           4.7320   -5.6491   18.7910 F       1  UNL1       -0.1659
     35 F           5.1463   -3.6899   18.0913 F       1  UNL1       -0.1659
     36 F           3.9277   -4.8402   20.5795 F       1  UNL1       -0.1659
@<TRIPOS>BOND
     1    22    21    1
     2    22    23    1
     3    23    24   ar
     4    24    25   ar
     5    25    26   ar
     6    26    29    1
     7    29    30    1
     8    29    31    1
     9    29    32    1
    10    26    27   ar
    11    27    28   ar
    12    28    33    1
    13    33    34    1
    14    33    35    1
    15    33    36    1
    16    22     1    1
    17     1     2   ar
    18     2     3   ar
    19     3     6    1
    20     6     7   am
    21     7     8    2
    22     7    10    1
    23    10    11   ar
    24    11    12   ar
    25    12    15    1
    26    15    16   ar
    27    16    17   ar
    28    17    18   ar
    29    18    19   ar
    30    19    20   ar
    31    12    13   ar
    32    13    14   ar
    33     3     4   ar
    34     4     5   ar
    35    28    23   ar
    36     5     1   ar
    37    14    10   ar
    38    20    15   ar
    39     6     9    1
@<TRIPOS>MOLECULE
*****
 36 39 0 0 0
SMALL
GASTEIGER

@<TRIPOS>ATOM
      1 N           2.2723    1.1008   22.5489 N.ar    1  UNL1       -0.2459
      2 C           2.4143    0.7818   24.0076 C.ar    1  UNL1        0.1116
      3 C           1.1283    1.1454   24.6889 C.ar    1  UNL1        0.0908
      4 C           0.1916    1.6892   23.6512 C.ar    1  UNL1        0.1363
      5 N           0.8987    1.6616   22.3286 N.ar    1  UNL1       -0.1661
      6 N           0.8313    0.9921   26.1512 N.am    1  UNL1       -0.2766
      7 C           1.1696    2.0990   27.1053 C.2     1  UNL1        0.2706
      8 O           1.8051    3.3591   26.5971 O.2     1  UNL1       -0.2680
      9 H           0.4142    0.1650   26.4847 H       1  UNL1        0.1553
     10 C           0.8726    1.9457   28.5676 C.ar    1  UNL1        0.1764
     11 C           1.3689    2.8380   29.6664 C.ar    1  UNL1        0.0688
     12 C           0.8301    2.3169   30.9657 C.ar    1  UNL1        0.1961
     13 O           0.0007    1.1026   30.6699 O.2     1  UNL1       -0.3517
     14 N           0.0270    0.8731   29.1877 N.ar    1  UNL1       -0.0722
     15 C           1.0773    2.9067   32.3225 C.ar    1  UNL1        0.1375
     16 C           1.8289    2.1213   33.3561 C.ar    1  UNL1        0.1211
     17 N           2.0761    2.7110   34.7129 N.ar    1  UNL1       -0.2390
     18 C           1.5716    4.0862   35.0363 C.ar    1  UNL1        0.1195
     19 C           0.8200    4.8715   34.0028 C.ar    1  UNL1        0.1196
     20 N           0.5728    4.2818   32.6458 N.ar    1  UNL1       -0.2375
     21 C           4.1082    2.0642   20.9832 C.3     1  UNL1        0.0312
     22 C           3.3201    0.8952   21.4953 C.3     1  UNL1        0.1274
     23 C           3.5798   -0.4795   20.9540 C.ar    1  UNL1        0.0038
     24 C           4.6304   -1.3466   21.5818 C.ar    1  UNL1       -0.0025
     25 C           4.8900   -2.7212   21.0405 C.ar    1  UNL1        0.0036
     26 C           4.0989   -3.2286   19.8714 C.ar    1  UNL1        0.0714
     27 C           3.0483   -2.3615   19.2436 C.ar    1  UNL1        0.0074
     28 C           2.7887   -0.9869   19.7849 C.ar    1  UNL1        0.0692
     29 C           4.3586   -4.6033   19.3301 C.3     1  UNL1        0.4186
     30 F           4.6182   -5.9779   18.7888 F       1  UNL1       -0.1659
     31 F           5.7978   -4.4921   19.7378 F       1  UNL1       -0.1659
     32 F           2.9194   -4.7145   18.9223 F       1  UNL1       -0.1659
     33 C           1.7380   -0.1196   19.1572 C.3     1  UNL1        0.4183
     34 F           0.6874    0.7475   18.5295 F       1  UNL1       -0.1659
     35 F           0.7112   -0.6873   20.0917 F       1  UNL1       -0.1659
     36 F           2.7649    0.4480   18.2227 F       1  UNL1       -0.1659
@<TRIPOS>BOND
     1    22    21    1
     2    22    23    1
     3    23    24   ar
     4    24    25   ar
     5    25    26   ar
     6    26    29    1
     7    29    30    1
     8    29    31    1
     9    29    32    1
    10    26    27   ar
    11    27    28   ar
    12    28    33    1
    13    33    34    1
    14    33    35    1
    15    33    36    1
    16    22     1    1
    17     1     2   ar
    18     2     3   ar
    19     3     6    1
    20     6     7   am
    21     7     8    2
    22     7    10    1
    23    10    11   ar
    24    11    12   ar
    25    12    15    1
    26    15    16   ar
    27    16    17   ar
    28    17    18   ar
    29    18    19   ar
    30    19    20   ar
    31    12    13   ar
    32    13    14   ar
    33     3     4   ar
    34     4     5   ar
    35    28    23   ar
    36     5     1   ar
    37    14    10   ar
    38    20    15   ar
    39     6     9    1
@<TRIPOS>MOLECULE
*****
 36 39 0 0 0
SMALL
GASTEIGER

@<TRIPOS>ATOM
      1 N           2.5860    0.9645   22.8745 N.ar    1  UNL1       -0.2459
      2 C           1.1537    1.4059   22.9354 C.ar    1  UNL1        0.1116
      3 C           0.7249    1.3914   24.3727 C.ar    1  UNL1        0.0908
      4 C           1.8921    0.9410   25.2001 C.ar    1  UNL1        0.1363
      5 N           3.0424    0.6772   24.2742 N.ar    1  UNL1       -0.1661
      6 N          -0.6329    1.7621   24.8915 N.am    1  UNL1       -0.2766
      7 C          -1.0607    3.1996   24.9128 C.2     1  UNL1        0.2706
      8 O          -0.1309    4.2664   24.4153 O.2     1  UNL1       -0.2680
      9 H          -1.2431    1.0620   25.2180 H       1  UNL1        0.1553
     10 C          -2.4185    3.5704   25.4316 C.ar    1  UNL1        0.1764
     11 C          -3.5678    4.0765   24.6113 C.ar    1  UNL1        0.0688
     12 C          -4.7249    4.3190   25.5345 C.ar    1  UNL1        0.1961
     13 O          -4.2907    3.9628   26.9254 O.2     1  UNL1       -0.3517
     14 N          -2.8652    3.5001   26.8618 N.ar    1  UNL1       -0.0722
     15 C          -6.0785    4.8283   25.1367 C.ar    1  UNL1        0.1375
     16 C          -6.7188    4.3452   23.8690 C.ar    1  UNL1        0.1211
     17 N          -8.0724    4.8545   23.4712 N.ar    1  UNL1       -0.2390
     18 C          -8.7858    5.8469   24.3409 C.ar    1  UNL1        0.1195
     19 C          -8.1455    6.3299   25.6084 C.ar    1  UNL1        0.1196
     20 N          -6.7918    5.8206   26.0063 N.ar    1  UNL1       -0.2375
     21 C           3.9777    2.0581   20.9726 C.3     1  UNL1        0.0312
     22 C           3.4162    0.8335   21.6320 C.3     1  UNL1        0.1274
     23 C           3.6848   -0.5223   21.0491 C.ar    1  UNL1        0.0038
     24 C           4.8368   -1.3404   21.5527 C.ar    1  UNL1       -0.0025
     25 C           5.1054   -2.6961   20.9697 C.ar    1  UNL1        0.0036
     26 C           4.2220   -3.2337   19.8832 C.ar    1  UNL1        0.0714
     27 C           3.0701   -2.4156   19.3795 C.ar    1  UNL1        0.0074
     28 C           2.8015   -1.0599   19.9625 C.ar    1  UNL1        0.0692
     29 C           4.4907   -4.5895   19.3002 C.3     1  UNL1        0.4186
     30 F           4.7594   -5.9452   18.7173 F       1  UNL1       -0.1659
     31 F           3.0849   -4.6444   18.7800 F       1  UNL1       -0.1659
     32 F           5.8965   -4.5345   19.8204 F       1  UNL1       -0.1659
     33 C           1.6495   -0.2417   19.4589 C.3     1  UNL1        0.4183
     34 F           0.4975    0.5764   18.9553 F       1  UNL1       -0.1659
     35 F           0.7593   -0.8551   20.4988 F       1  UNL1       -0.1659
     36 F           2.5396    0.3716   18.4190 F       1  UNL1       -0.1659
@<TRIPOS>BOND
     1    22    21    1
     2    22    23    1
     3    23    24   ar
     4    24    25   ar
     5    25    26   ar
     6    26    29    1
     7    29    30    1
     8    29    31    1
     9    29    32    1
    10    26    27   ar
    11    27    28   ar
    12    28    33    1
    13    33    34    1
    14    33    35    1
    15    33    36    1
    16    22     1    1
    17     1     2   ar
    18     2     3   ar
    19     3     6    1
    20     6     7   am
    21     7     8    2
    22     7    10    1
    23    10    11   ar
    24    11    12   ar
    25    12    15    1
    26    15    16   ar
    27    16    17   ar
    28    17    18   ar
    29    18    19   ar
    30    19    20   ar
    31    12    13   ar
    32    13    14   ar
    33     3     4   ar
    34     4     5   ar
    35    28    23   ar
    36     5     1   ar
    37    14    10   ar
    38    20    15   ar
    39     6     9    1
@<TRIPOS>MOLECULE
*****
 36 39 0 0 0
SMALL
GASTEIGER

@<TRIPOS>ATOM
      1 N           2.6759    1.1603   22.5227 N.ar    1  UNL1       -0.2459
      2 C           2.9105    0.5290   23.8630 C.ar    1  UNL1        0.1116
      3 C           1.8066    0.9648   24.7803 C.ar    1  UNL1        0.0908
      4 C           0.8896    1.8655   24.0069 C.ar    1  UNL1        0.1363
      5 N           1.4269    1.9863   22.6117 N.ar    1  UNL1       -0.1661
      6 N           1.6475    0.5694   26.2185 N.am    1  UNL1       -0.2766
      7 C           2.5792    1.1224   27.2558 C.2     1  UNL1        0.2706
      8 O           3.6700    2.0708   26.8549 O.2     1  UNL1       -0.2680
      9 H           0.9316   -0.0531   26.4815 H       1  UNL1        0.1553
     10 C           2.4201    0.7269   28.6939 C.ar    1  UNL1        0.1764
     11 C           2.7764    1.5675   29.8841 C.ar    1  UNL1        0.0688
     12 C           2.4533    0.7815   31.1201 C.ar    1  UNL1        0.1961
     13 O           1.8973   -0.5449   30.6939 O.2     1  UNL1       -0.3517
     14 N           1.8768   -0.5786   29.1944 N.ar    1  UNL1       -0.0722
     15 C           2.6514    1.2412   32.5342 C.ar    1  UNL1        0.1375
     16 C           1.7118    2.2441   33.1354 C.ar    1  UNL1        0.1211
     17 N           1.9099    2.7038   34.5493 N.ar    1  UNL1       -0.2390
     18 C           3.0475    2.1606   35.3622 C.ar    1  UNL1        0.1195
     19 C           3.9871    1.1577   34.7610 C.ar    1  UNL1        0.1196
     20 N           3.7891    0.6980   33.3470 N.ar    1  UNL1       -0.2375
     21 C           4.1625    2.1961   20.6607 C.3     1  UNL1        0.0312
     22 C           3.5387    0.9948   21.3069 C.3     1  UNL1        0.1274
     23 C           3.7777   -0.3722   20.7374 C.ar    1  UNL1        0.0038
     24 C           4.9551   -1.1804   21.1960 C.ar    1  UNL1       -0.0025
     25 C           5.1941   -2.5473   20.6265 C.ar    1  UNL1        0.0036
     26 C           4.2557   -3.1060   19.5983 C.ar    1  UNL1        0.0714
     27 C           3.0782   -2.2978   19.1397 C.ar    1  UNL1        0.0074
     28 C           2.8393   -0.9309   19.7092 C.ar    1  UNL1        0.0692
     29 C           4.4947   -4.4730   19.0288 C.3     1  UNL1        0.4186
     30 F           4.7337   -5.8400   18.4594 F       1  UNL1       -0.1659
     31 F           5.3812   -3.8789   17.9748 F       1  UNL1       -0.1659
     32 F           3.6081   -5.0671   20.0829 F       1  UNL1       -0.1659
     33 C           1.6618   -0.1226   19.2506 C.3     1  UNL1        0.4183
     34 F           0.4844    0.6856   18.7919 F       1  UNL1       -0.1659
     35 F           2.4982    0.4762   18.1589 F       1  UNL1       -0.1659
     36 F           0.8254   -0.7215   20.3422 F       1  UNL1       -0.1659
@<TRIPOS>BOND
     1    22    21    1
     2    22    23    1
     3    23    24   ar
     4    24    25   ar
     5    25    26   ar
     6    26    29    1
     7    29    30    1
     8    29    31    1
     9    29    32    1
    10    26    27   ar
    11    27    28   ar
    12    28    33    1
    13    33    34    1
    14    33    35    1
    15    33    36    1
    16    22     1    1
    17     1     2   ar
    18     2     3   ar
    19     3     6    1
    20     6     7   am
    21     7     8    2
    22     7    10    1
    23    10    11   ar
    24    11    12   ar
    25    12    15    1
    26    15    16   ar
    27    16    17   ar
    28    17    18   ar
    29    18    19   ar
    30    19    20   ar
    31    12    13   ar
    32    13    14   ar
    33     3     4   ar
    34     4     5   ar
    35    28    23   ar
    36     5     1   ar
    37    14    10   ar
    38    20    15   ar
    39     6     9    1
@<TRIPOS>MOLECULE
*****
 36 39 0 0 0
SMALL
GASTEIGER

@<TRIPOS>ATOM
      1 N           4.8367    0.9422   33.4642 N.ar    1  UNL1       -0.2459
      2 C           5.8985    0.0407   32.9076 C.ar    1  UNL1        0.1116
      3 C           5.2671   -0.8276   31.8600 C.ar    1  UNL1        0.0908
      4 C           3.8150   -0.4627   31.7692 C.ar    1  UNL1        0.1363
      5 N           3.5490    0.6311   32.7606 N.ar    1  UNL1       -0.1661
      6 N           5.9651   -1.8766   31.0462 N.am    1  UNL1       -0.2766
      7 C           6.1196   -3.2667   31.5881 C.2     1  UNL1        0.2706
      8 O           5.5759   -3.6078   32.9439 O.2     1  UNL1       -0.2680
      9 H           6.3220   -1.6527   30.1564 H       1  UNL1        0.1553
     10 C           6.8176   -4.3156   30.7743 C.ar    1  UNL1        0.1764
     11 C           6.6696   -4.5288   29.2969 C.ar    1  UNL1        0.0688
     12 C           7.5468   -5.6805   28.9046 C.ar    1  UNL1        0.1961
     13 O           8.2370   -6.1792   30.1394 O.2     1  UNL1       -0.3517
     14 N           7.7864   -5.3357   31.2951 N.ar    1  UNL1       -0.0722
     15 C           7.7058   -6.2361   27.5203 C.ar    1  UNL1        0.1375
     16 C           8.0189   -7.6903   27.3272 C.ar    1  UNL1        0.1211
     17 N           8.1780   -8.2459   25.9430 N.ar    1  UNL1       -0.2390
     18 C           8.0240   -7.3472   24.7519 C.ar    1  UNL1        0.1195
     19 C           7.7109   -5.8930   24.9450 C.ar    1  UNL1        0.1196
     20 N           7.5518   -5.3374   26.3293 N.ar    1  UNL1       -0.2375
     21 C           6.1165    2.9983   34.4047 C.3     1  UNL1        0.0312
     22 C           5.0289    1.9737   34.5361 C.3     1  UNL1        0.1274
     23 C           4.1334    1.9806   35.7396 C.ar    1  UNL1        0.0038
     24 C           2.9668    2.9214   35.8009 C.ar    1  UNL1       -0.0025
     25 C           2.0713    2.9282   37.0043 C.ar    1  UNL1        0.0036
     26 C           2.3426    1.9943   38.1463 C.ar    1  UNL1        0.0714
     27 C           3.5092    1.0535   38.0849 C.ar    1  UNL1        0.0074
     28 C           4.4046    1.0466   36.8816 C.ar    1  UNL1        0.0692
     29 C           1.4471    2.0011   39.3497 C.3     1  UNL1        0.4186
     30 F           0.5516    2.0081   40.5530 F       1  UNL1       -0.1659
     31 F           0.7723    0.7563   38.8547 F       1  UNL1       -0.1659
     32 F           2.1219    3.2460   39.8446 F       1  UNL1       -0.1659
     33 C           5.5714    0.1058   36.8202 C.3     1  UNL1        0.4183
     34 F           6.7380   -0.8349   36.7588 F       1  UNL1       -0.1659
     35 F           6.4210    1.1128   37.5371 F       1  UNL1       -0.1659
     36 F           4.7217   -0.9011   36.1032 F       1  UNL1       -0.1659
@<TRIPOS>BOND
     1    22    21    1
     2    22    23    1
     3    23    24   ar
     4    24    25   ar
     5    25    26   ar
     6    26    29    1
     7    29    30    1
     8    29    31    1
     9    29    32    1
    10    26    27   ar
    11    27    28   ar
    12    28    33    1
    13    33    34    1
    14    33    35    1
    15    33    36    1
    16    22     1    1
    17     1     2   ar
    18     2     3   ar
    19     3     6    1
    20     6     7   am
    21     7     8    2
    22     7    10    1
    23    10    11   ar
    24    11    12   ar
    25    12    15    1
    26    15    16   ar
    27    16    17   ar
    28    17    18   ar
    29    18    19   ar
    30    19    20   ar
    31    12    13   ar
    32    13    14   ar
    33     3     4   ar
    34     4     5   ar
    35    28    23   ar
    36     5     1   ar
    37    14    10   ar
    38    20    15   ar
    39     6     9    1
@<TRIPOS>MOLECULE
*****
 36 39 0 0 0
SMALL
GASTEIGER

@<TRIPOS>ATOM
      1 N          -0.3548    2.1077   27.8896 N.ar    1  UNL1       -0.2459
      2 C           0.9889    1.7709   28.4649 C.ar    1  UNL1        0.1116
      3 C           0.9270    0.3705   28.9986 C.ar    1  UNL1        0.0908
      4 C          -0.4551   -0.1584   28.7532 C.ar    1  UNL1        0.1363
      5 N          -1.2473    0.9153   28.0678 N.ar    1  UNL1       -0.1661
      6 N           2.0499   -0.3710   29.6613 N.am    1  UNL1       -0.2766
      7 C           2.4466   -0.0307   31.0673 C.2     1  UNL1        0.2706
      8 O           1.7203    1.0510   31.8106 O.2     1  UNL1       -0.2680
      9 H           2.5266   -1.0810   29.1735 H       1  UNL1        0.1553
     10 C           3.5695   -0.7722   31.7301 C.ar    1  UNL1        0.1764
     11 C           4.6613   -1.5270   31.0313 C.ar    1  UNL1        0.0688
     12 C           5.5643   -2.1103   32.0773 C.ar    1  UNL1        0.1961
     13 O           5.0307   -1.7160   33.4226 O.2     1  UNL1       -0.3517
     14 N           3.7978   -0.8889   33.2080 N.ar    1  UNL1       -0.0722
     15 C           6.7865   -2.9419   31.8228 C.ar    1  UNL1        0.1375
     16 C           8.1027   -2.5439   32.4222 C.ar    1  UNL1        0.1211
     17 N           9.3248   -3.3754   32.1677 N.ar    1  UNL1       -0.2390
     18 C           9.2309   -4.6051   31.3137 C.ar    1  UNL1        0.1195
     19 C           7.9147   -5.0031   30.7143 C.ar    1  UNL1        0.1196
     20 N           6.6925   -4.1715   30.9688 N.ar    1  UNL1       -0.2375
     21 C           0.0500    4.6503   27.5414 C.3     1  UNL1        0.0312
     22 C          -0.7387    3.4084   27.2488 C.3     1  UNL1        0.1274
     23 C          -1.9114    3.4673   26.3152 C.ar    1  UNL1        0.0038
     24 C          -3.2716    3.8185   26.8409 C.ar    1  UNL1       -0.0025
     25 C          -4.4442    3.8773   25.9074 C.ar    1  UNL1        0.0036
     26 C          -4.2566    3.5849   24.4482 C.ar    1  UNL1        0.0714
     27 C          -2.8964    3.2337   23.9225 C.ar    1  UNL1        0.0074
     28 C          -1.7238    3.1748   24.8560 C.ar    1  UNL1        0.0692
     29 C          -5.4293    3.6437   23.5147 C.3     1  UNL1        0.4186
     30 F          -6.6020    3.7026   22.5813 F       1  UNL1       -0.1659
     31 F          -4.6981    2.7681   22.5408 F       1  UNL1       -0.1659
     32 F          -6.1606    4.5194   24.4886 F       1  UNL1       -0.1659
     33 C          -0.3635    2.8236   24.3303 C.3     1  UNL1        0.4183
     34 F           0.9967    2.4723   23.8047 F       1  UNL1       -0.1659
     35 F          -0.5594    1.4037   24.7723 F       1  UNL1       -0.1659
     36 F          -0.1676    4.2435   23.8884 F       1  UNL1       -0.1659
@<TRIPOS>BOND
     1    22    21    1
     2    22    23    1
     3    23    24   ar
     4    24    25   ar
     5    25    26   ar
     6    26    29    1
     7    29    30    1
     8    29    31    1
     9    29    32    1
    10    26    27   ar
    11    27    28   ar
    12    28    33    1
    13    33    34    1
    14    33    35    1
    15    33    36    1
    16    22     1    1
    17     1     2   ar
    18     2     3   ar
    19     3     6    1
    20     6     7   am
    21     7     8    2
    22     7    10    1
    23    10    11   ar
    24    11    12   ar
    25    12    15    1
    26    15    16   ar
    27    16    17   ar
    28    17    18   ar
    29    18    19   ar
    30    19    20   ar
    31    12    13   ar
    32    13    14   ar
    33     3     4   ar
    34     4     5   ar
    35    28    23   ar
    36     5     1   ar
    37    14    10   ar
    38    20    15   ar
    39     6     9    1
@<TRIPOS>MOLECULE
*****
 36 39 0 0 0
SMALL
GASTEIGER

@<TRIPOS>ATOM
      1 N           2.3228    1.3838   22.0428 N.ar    1  UNL1       -0.2459
      2 C           1.2621    2.3939   21.7192 C.ar    1  UNL1        0.1116
      3 C           0.2418    2.3630   22.8183 C.ar    1  UNL1        0.0908
      4 C           0.6718    1.3338   23.8212 C.ar    1  UNL1        0.1363
      5 N           1.9579    0.7286   23.3419 N.ar    1  UNL1       -0.1661
      6 N          -0.9920    3.2122   22.9001 N.am    1  UNL1       -0.2766
      7 C          -1.9462    3.2618   21.7438 C.2     1  UNL1        0.2706
      8 O          -1.6667    2.4623   20.5058 O.2     1  UNL1       -0.2680
      9 H          -1.1755    3.7369   23.7126 H       1  UNL1        0.1553
     10 C          -3.1800    4.1110   21.8256 C.ar    1  UNL1        0.1764
     11 C          -4.2384    4.0287   22.8853 C.ar    1  UNL1        0.0688
     12 C          -5.2845    5.0584   22.5766 C.ar    1  UNL1        0.1961
     13 O          -4.8727    5.7772   21.3261 O.2     1  UNL1       -0.3517
     14 N          -3.5720    5.1917   20.8619 N.ar    1  UNL1       -0.0722
     15 C          -6.5247    5.3230   23.3778 C.ar    1  UNL1        0.1375
     16 C          -7.7140    4.4193   23.2394 C.ar    1  UNL1        0.1211
     17 N          -8.9542    4.6838   24.0405 N.ar    1  UNL1       -0.2390
     18 C          -9.0052    5.8520   24.9802 C.ar    1  UNL1        0.1195
     19 C          -7.8160    6.7556   25.1186 C.ar    1  UNL1        0.1196
     20 N          -6.5757    6.4911   24.3174 N.ar    1  UNL1       -0.2375
     21 C           4.5227    2.1683   20.9049 C.3     1  UNL1        0.0312
     22 C           3.5354    1.0820   21.2131 C.3     1  UNL1        0.1274
     23 C           3.7606   -0.3063   20.6915 C.ar    1  UNL1        0.0038
     24 C           4.7831   -1.1935   21.3375 C.ar    1  UNL1       -0.0025
     25 C           5.0083   -2.5817   20.8159 C.ar    1  UNL1        0.0036
     26 C           4.2110   -3.0828   19.6483 C.ar    1  UNL1        0.0714
     27 C           3.1885   -2.1956   19.0023 C.ar    1  UNL1        0.0074
     28 C           2.9633   -0.8074   19.5239 C.ar    1  UNL1        0.0692
     29 C           4.4363   -4.4711   19.1267 C.3     1  UNL1        0.4186
     30 F           4.6615   -5.8593   18.6052 F       1  UNL1       -0.1659
     31 F           5.3430   -3.9248   18.0640 F       1  UNL1       -0.1659
     32 F           3.5296   -5.0174   20.1894 F       1  UNL1       -0.1659
     33 C           1.9408    0.0799   18.8779 C.3     1  UNL1        0.4183
     34 F           0.9182    0.9671   18.2320 F       1  UNL1       -0.1659
     35 F           0.8883   -0.4629   19.7985 F       1  UNL1       -0.1659
     36 F           2.9933    0.6227   17.9573 F       1  UNL1       -0.1659
@<TRIPOS>BOND
     1    22    21    1
     2    22    23    1
     3    23    24   ar
     4    24    25   ar
     5    25    26   ar
     6    26    29    1
     7    29    30    1
     8    29    31    1
     9    29    32    1
    10    26    27   ar
    11    27    28   ar
    12    28    33    1
    13    33    34    1
    14    33    35    1
    15    33    36    1
    16    22     1    1
    17     1     2   ar
    18     2     3   ar
    19     3     6    1
    20     6     7   am
    21     7     8    2
    22     7    10    1
    23    10    11   ar
    24    11    12   ar
    25    12    15    1
    26    15    16   ar
    27    16    17   ar
    28    17    18   ar
    29    18    19   ar
    30    19    20   ar
    31    12    13   ar
    32    13    14   ar
    33     3     4   ar
    34     4     5   ar
    35    28    23   ar
    36     5     1   ar
    37    14    10   ar
    38    20    15   ar
    39     6     9    1
@<TRIPOS>MOLECULE
*****
 36 39 0 0 0
SMALL
GASTEIGER

@<TRIPOS>ATOM
      1 N           2.9059    0.7296   18.5241 N.ar    1  UNL1       -0.2459
      2 C           1.4164    0.9057   18.5023 C.ar    1  UNL1        0.1116
      3 C           1.1080    2.3017   18.9564 C.ar    1  UNL1        0.0908
      4 C           2.4068    2.9884   19.2587 C.ar    1  UNL1        0.1363
      5 N           3.5180    2.0168   18.9915 N.ar    1  UNL1       -0.1661
      6 N          -0.2593    2.9050   19.0854 N.am    1  UNL1       -0.2766
      7 C          -1.0609    2.6860   20.3342 C.2     1  UNL1        0.2706
      8 O          -0.4952    1.8636   21.4539 O.2     1  UNL1       -0.2680
      9 H          -0.6305    3.4447   18.3505 H       1  UNL1        0.1553
     10 C          -2.4281    3.2893   20.4632 C.ar    1  UNL1        0.1764
     11 C          -3.1868    3.4885   21.7417 C.ar    1  UNL1        0.0688
     12 C          -4.5043    4.1217   21.4050 C.ar    1  UNL1        0.1961
     13 O          -4.5599    4.3138   19.9184 O.2     1  UNL1       -0.3517
     14 N          -3.2766    3.7993   19.3362 N.ar    1  UNL1       -0.0722
     15 C          -5.5778    4.4969   22.3832 C.ar    1  UNL1        0.1375
     16 C          -6.9580    4.8224   21.8938 C.ar    1  UNL1        0.1211
     17 N          -8.0314    5.1976   22.8719 N.ar    1  UNL1       -0.2390
     18 C          -7.7249    5.2473   24.3395 C.ar    1  UNL1        0.1195
     19 C          -6.3448    4.9219   24.8288 C.ar    1  UNL1        0.1196
     20 N          -5.2712    4.5466   23.8506 N.ar    1  UNL1       -0.2375
     21 C           3.7726   -0.9072   16.7021 C.3     1  UNL1        0.0312
     22 C           3.6522   -0.5151   18.1449 C.3     1  UNL1        0.1274
     23 C           4.2780   -1.3677   19.2086 C.ar    1  UNL1        0.0038
     24 C           3.4161   -2.2311   20.0813 C.ar    1  UNL1       -0.0025
     25 C           4.0420   -3.0836   21.1450 C.ar    1  UNL1        0.0036
     26 C           5.5297   -3.0728   21.3360 C.ar    1  UNL1        0.0714
     27 C           6.3916   -2.2094   20.4632 C.ar    1  UNL1        0.0074
     28 C           5.7658   -1.3569   19.3996 C.ar    1  UNL1        0.0692
     29 C           6.1556   -3.9254   22.3997 C.3     1  UNL1        0.4186
     30 F           6.7814   -4.7780   23.4633 F       1  UNL1       -0.1659
     31 F           5.0098   -3.6204   23.3184 F       1  UNL1       -0.1659
     32 F           7.3014   -4.2304   21.4810 F       1  UNL1       -0.1659
     33 C           6.6277   -0.4934   18.5268 C.3     1  UNL1        0.4183
     34 F           7.4895    0.3699   17.6540 F       1  UNL1       -0.1659
     35 F           6.8383   -1.6480   17.5927 F       1  UNL1       -0.1659
     36 F           6.4171    0.6611   19.4609 F       1  UNL1       -0.1659
@<TRIPOS>BOND
     1    22    21    1
     2    22    23    1
     3    23    24   ar
     4    24    25   ar
     5    25    26   ar
     6    26    29    1
     7    29    30    1
     8    29    31    1
     9    29    32    1
    10    26    27   ar
    11    27    28   ar
    12    28    33    1
    13    33    34    1
    14    33    35    1
    15    33    36    1
    16    22     1    1
    17     1     2   ar
    18     2     3   ar
    19     3     6    1
    20     6     7   am
    21     7     8    2
    22     7    10    1
    23    10    11   ar
    24    11    12   ar
    25    12    15    1
    26    15    16   ar
    27    16    17   ar
    28    17    18   ar
    29    18    19   ar
    30    19    20   ar
    31    12    13   ar
    32    13    14   ar
    33     3     4   ar
    34     4     5   ar
    35    28    23   ar
    36     5     1   ar
    37    14    10   ar
    38    20    15   ar
    39     6     9    1
