@<TRIPOS>MOLECULE
*****
 32 35 0 0 0
SMALL
GASTEIGER

@<TRIPOS>ATOM
      1 C          -8.9932  -18.7620   20.6780 C.ar    1  UNL1        0.0951
      2 C          -9.6748  -19.3685   19.4874 C.ar    1  UNL1        0.1454
      3 F         -11.0708  -18.9523   19.1298 F       1  UNL1       -0.2040
      4 C          -8.9604  -20.3912   18.6544 C.ar    1  UNL1        0.0312
      5 C          -7.5644  -20.8074   19.0120 C.ar    1  UNL1        0.0204
      6 C          -6.8828  -20.2008   20.2027 C.ar    1  UNL1        0.0924
      7 C          -7.5971  -19.1781   21.0356 C.ar    1  UNL1        0.1598
      8 F          -6.9154  -18.5717   22.2262 F       1  UNL1       -0.2026
      9 C          -9.7076  -17.7393   21.5109 C.2     1  UNL1        0.2036
     10 O         -10.1056  -16.4253   20.9069 O.2     1  UNL1       -0.2863
     11 C          -7.5528  -16.2407   25.6131 C.2     1  UNL1        0.0974
     12 C          -8.2091  -16.7841   26.8475 C.2     1  UNL1        0.2421
     13 N          -9.4003  -17.6878   26.7276 N.2     1  UNL1       -0.0304
     14 C          -9.9352  -18.0481   25.3734 C.2     1  UNL1        0.3721
     15 N         -11.0858  -18.9100   24.9454 N.2     1  UNL1       -0.0307
     16 C         -11.1405  -18.8993   23.4464 C.2     1  UNL1        0.2390
     17 C         -10.0238  -18.0307   22.9480 C.2     1  UNL1        0.0896
     18 C          -9.2789  -17.5046   24.1390 C.2     1  UNL1        0.0782
     19 C          -8.0877  -16.6009   24.2588 C.3     1  UNL1        0.0751
     20 N          -5.1704  -14.4333   25.8527 N.1     1  UNL1       -0.1910
     21 C          -6.3616  -15.3370   25.7329 C.1     1  UNL1        0.1003
     22 N          -5.4867  -20.6170   20.5603 N.pl3   1  UNL1       -0.2128
     23 H          -5.2846  -21.5650   20.7325 H       1  UNL1        0.1738
     24 S          -4.3987  -19.5888   20.6554 S.O2    1  UNL1        0.0736
     25 O          -4.1962  -19.9367   22.1003 O.2     1  UNL1       -0.1499
     26 O          -4.6012  -19.2407   19.2105 O.2     1  UNL1       -0.1499
     27 C          -3.3107  -18.5605   20.7506 C.ar    1  UNL1        0.1252
     28 C          -3.2115  -17.6837   21.9635 C.ar    1  UNL1        0.0202
     29 C          -2.1235  -16.6554   22.0587 C.ar    1  UNL1        0.0014
     30 C          -1.1348  -16.5041   20.9409 C.ar    1  UNL1        0.0001
     31 C          -1.2339  -17.3809   19.7280 C.ar    1  UNL1        0.0014
     32 C          -2.3219  -18.4092   19.6328 C.ar    1  UNL1        0.0202
@<TRIPOS>BOND
     1    20    21    3
     2    21    11    1
     3    11    12    2
     4    12    13    1
     5    13    14    2
     6    14    15    1
     7    15    16    2
     8    16    17    1
     9    17     9    1
    10     9    10    2
    11     9     1    1
    12     1     2   ar
    13     2     3    1
    14     2     4   ar
    15     4     5   ar
    16     5     6   ar
    17     6    22    1
    18    22    24    1
    19    24    25    2
    20    24    26    2
    21    24    27    1
    22    27    28   ar
    23    28    29   ar
    24    29    30   ar
    25    30    31   ar
    26    31    32   ar
    27     6     7   ar
    28     7     8    1
    29    17    18    2
    30    18    19    1
    31    19    11    1
    32    18    14    1
    33     7     1   ar
    34    32    27   ar
    35    22    23    1
@<TRIPOS>MOLECULE
*****
 32 35 0 0 0
SMALL
GASTEIGER

@<TRIPOS>ATOM
      1 C          -7.3069  -17.6391   23.1426 C.ar    1  UNL1        0.0951
      2 C          -7.8292  -16.3432   23.6884 C.ar    1  UNL1        0.1454
      3 F          -9.3074  -16.0951   23.7460 F       1  UNL1       -0.2040
      4 C          -6.8733  -15.2955   24.1767 C.ar    1  UNL1        0.0312
      5 C          -5.3950  -15.5436   24.1192 C.ar    1  UNL1        0.0204
      6 C          -4.8728  -16.8395   23.5733 C.ar    1  UNL1        0.0924
      7 C          -5.8287  -17.8872   23.0850 C.ar    1  UNL1        0.1598
      8 F          -5.3064  -19.1831   22.5391 F       1  UNL1       -0.2026
      9 C          -8.2628  -18.6868   22.6542 C.2     1  UNL1        0.2036
     10 O          -8.0771  -20.1190   23.0596 O.2     1  UNL1       -0.2863
     11 C         -13.0196  -18.2187   23.5874 C.2     1  UNL1        0.0974
     12 C         -13.8119  -17.8093   22.3814 C.2     1  UNL1        0.2421
     13 N         -13.1203  -17.5907   21.0684 N.2     1  UNL1       -0.0304
     14 C         -11.6364  -17.7816   20.9615 C.2     1  UNL1        0.3721
     15 N         -10.6866  -17.6399   19.8091 N.2     1  UNL1       -0.0307
     16 C          -9.3073  -17.9617   20.3030 C.2     1  UNL1        0.2390
     17 C          -9.4045  -18.3023   21.7605 C.2     1  UNL1        0.0896
     18 C         -10.8440  -18.1910   22.1675 C.2     1  UNL1        0.0782
     19 C         -11.5356  -18.4096   23.4805 C.3     1  UNL1        0.0751
     20 N         -14.4028  -18.6559   26.2134 N.1     1  UNL1       -0.1910
     21 C         -13.7112  -18.4373   24.9004 C.1     1  UNL1        0.1003
     22 N          -3.3946  -17.0876   23.5158 N.pl3   1  UNL1       -0.2128
     23 H          -2.8685  -17.1224   24.3472 H       1  UNL1        0.1738
     24 S          -2.7178  -17.2826   22.1914 S.O2    1  UNL1        0.0736
     25 O          -2.4372  -18.7129   22.5454 O.2     1  UNL1       -0.1499
     26 O          -2.9984  -15.8523   21.8374 O.2     1  UNL1       -0.1499
     27 C          -2.0410  -17.4776   20.8670 C.ar    1  UNL1        0.1252
     28 C          -2.8611  -17.6114   19.6182 C.ar    1  UNL1        0.0202
     29 C          -2.1844  -17.8064   18.2938 C.ar    1  UNL1        0.0014
     30 C          -0.6876  -17.8676   18.2182 C.ar    1  UNL1        0.0001
     31 C           0.1326  -17.7339   19.4670 C.ar    1  UNL1        0.0014
     32 C          -0.5441  -17.5389   20.7914 C.ar    1  UNL1        0.0202
@<TRIPOS>BOND
     1    20    21    3
     2    21    11    1
     3    11    12    2
     4    12    13    1
     5    13    14    2
     6    14    15    1
     7    15    16    2
     8    16    17    1
     9    17     9    1
    10     9    10    2
    11     9     1    1
    12     1     2   ar
    13     2     3    1
    14     2     4   ar
    15     4     5   ar
    16     5     6   ar
    17     6    22    1
    18    22    24    1
    19    24    25    2
    20    24    26    2
    21    24    27    1
    22    27    28   ar
    23    28    29   ar
    24    29    30   ar
    25    30    31   ar
    26    31    32   ar
    27     6     7   ar
    28     7     8    1
    29    17    18    2
    30    18    19    1
    31    19    11    1
    32    18    14    1
    33     7     1   ar
    34    32    27   ar
    35    22    23    1
@<TRIPOS>MOLECULE
*****
 32 35 0 0 0
SMALL
GASTEIGER

@<TRIPOS>ATOM
      1 C          -8.4171  -17.0427   25.2496 C.ar    1  UNL1        0.0951
      2 C          -8.4389  -16.8174   26.7324 C.ar    1  UNL1        0.1454
      3 F          -9.5359  -17.4115   27.5651 F       1  UNL1       -0.2040
      4 C          -7.3637  -15.9980   27.3824 C.ar    1  UNL1        0.0312
      5 C          -6.2666  -15.4039   26.5496 C.ar    1  UNL1        0.0204
      6 C          -6.2448  -15.6292   25.0668 C.ar    1  UNL1        0.0924
      7 C          -7.3200  -16.4486   24.4167 C.ar    1  UNL1        0.1598
      8 F          -7.2982  -16.6738   22.9339 F       1  UNL1       -0.2026
      9 C          -9.4923  -17.8621   24.5995 C.2     1  UNL1        0.2036
     10 O          -9.6840  -19.2965   24.9941 O.2     1  UNL1       -0.2863
     11 C         -10.0974  -18.9581   19.8933 C.2     1  UNL1        0.0974
     12 C         -11.0974  -18.0711   19.2128 C.2     1  UNL1        0.2421
     13 N         -11.7870  -16.9867   19.9866 N.2     1  UNL1       -0.0304
     14 C         -11.4766  -16.7895   21.4408 C.2     1  UNL1        0.3721
     15 N         -11.9938  -15.8117   22.4539 N.2     1  UNL1       -0.0307
     16 C         -11.3134  -16.0945   23.7605 C.2     1  UNL1        0.2390
     17 C         -10.3757  -17.2470   23.5549 C.2     1  UNL1        0.0896
     18 C         -10.4766  -17.6766   22.1212 C.2     1  UNL1        0.0782
     19 C          -9.7870  -18.7609   21.3475 C.3     1  UNL1        0.0751
     20 N          -8.7181  -21.1268   18.3458 N.1     1  UNL1       -0.1910
     21 C          -9.4077  -20.0425   19.1195 C.1     1  UNL1        0.1003
     22 N          -5.1478  -15.0351   24.2340 N.pl3   1  UNL1       -0.2128
     23 H          -5.0102  -14.0603   24.2241 H       1  UNL1        0.1738
     24 S          -4.2605  -15.9261   23.4163 S.O2    1  UNL1        0.0736
     25 O          -4.0873  -14.8289   22.4084 O.2     1  UNL1       -0.1499
     26 O          -4.4335  -17.0235   24.4242 O.2     1  UNL1       -0.1499
     27 C          -3.3731  -16.8173   22.5986 C.ar    1  UNL1        0.1252
     28 C          -3.5853  -18.3021   22.6109 C.ar    1  UNL1        0.0202
     29 C          -2.6980  -19.1933   21.7932 C.ar    1  UNL1        0.0014
     30 C          -1.5985  -18.5996   20.9634 C.ar    1  UNL1        0.0001
     31 C          -1.3863  -17.1148   20.9511 C.ar    1  UNL1        0.0014
     32 C          -2.2736  -16.2236   21.7687 C.ar    1  UNL1        0.0202
@<TRIPOS>BOND
     1    20    21    3
     2    21    11    1
     3    11    12    2
     4    12    13    1
     5    13    14    2
     6    14    15    1
     7    15    16    2
     8    16    17    1
     9    17     9    1
    10     9    10    2
    11     9     1    1
    12     1     2   ar
    13     2     3    1
    14     2     4   ar
    15     4     5   ar
    16     5     6   ar
    17     6    22    1
    18    22    24    1
    19    24    25    2
    20    24    26    2
    21    24    27    1
    22    27    28   ar
    23    28    29   ar
    24    29    30   ar
    25    30    31   ar
    26    31    32   ar
    27     6     7   ar
    28     7     8    1
    29    17    18    2
    30    18    19    1
    31    19    11    1
    32    18    14    1
    33     7     1   ar
    34    32    27   ar
    35    22    23    1
@<TRIPOS>MOLECULE
*****
 32 35 0 0 0
SMALL
GASTEIGER

@<TRIPOS>ATOM
      1 C         -10.4486  -19.0502   22.4488 C.ar    1  UNL1        0.0951
      2 C         -11.5420  -18.4976   21.5833 C.ar    1  UNL1        0.1454
      3 F         -12.8061  -17.9855   22.2075 F       1  UNL1       -0.2040
      4 C         -11.3713  -18.4572   20.0936 C.ar    1  UNL1        0.0312
      5 C         -10.1072  -18.9694   19.4693 C.ar    1  UNL1        0.0204
      6 C          -9.0137  -19.5220   20.3349 C.ar    1  UNL1        0.0924
      7 C          -9.1844  -19.5624   21.8246 C.ar    1  UNL1        0.1598
      8 F          -8.0909  -20.1150   22.6900 F       1  UNL1       -0.2026
      9 C         -10.6192  -19.0906   23.9385 C.2     1  UNL1        0.2036
     10 O         -11.5945  -20.0484   24.5559 O.2     1  UNL1       -0.2863
     11 C          -7.9298  -15.1859   22.8265 C.2     1  UNL1        0.0974
     12 C          -7.2879  -14.5595   24.0289 C.2     1  UNL1        0.2421
     13 N          -7.5113  -15.1481   25.3904 N.2     1  UNL1       -0.0304
     14 C          -8.3765  -16.3629   25.5496 C.2     1  UNL1        0.3721
     15 N          -8.7760  -17.1596   26.7561 N.2     1  UNL1       -0.0307
     16 C          -9.6647  -18.2784   26.2994 C.2     1  UNL1        0.2390
     17 C          -9.8146  -18.1732   24.8107 C.2     1  UNL1        0.0896
     18 C          -9.0184  -16.9893   24.3472 C.2     1  UNL1        0.0782
     19 C          -8.7950  -16.4008   22.9857 C.3     1  UNL1        0.0751
     20 N          -7.4830  -14.0088   20.1035 N.1     1  UNL1       -0.1910
     21 C          -7.7064  -14.5974   21.4650 C.1     1  UNL1        0.1003
     22 N          -7.7496  -20.0342   19.7106 N.pl3   1  UNL1       -0.2128
     23 H          -7.7900  -20.5694   18.8852 H       1  UNL1        0.1738
     24 S          -6.4241  -19.7310   20.3438 S.O2    1  UNL1        0.0736
     25 O          -6.1042  -21.1960   20.3759 O.2     1  UNL1       -0.1499
     26 O          -6.7440  -18.2658   20.3117 O.2     1  UNL1       -0.1499
     27 C          -5.0985  -19.4277   20.9770 C.ar    1  UNL1        0.1252
     28 C          -3.8310  -19.8907   20.3220 C.ar    1  UNL1        0.0202
     29 C          -2.5055  -19.5874   20.9552 C.ar    1  UNL1        0.0014
     30 C          -2.4474  -18.8211   22.2434 C.ar    1  UNL1        0.0001
     31 C          -3.7149  -18.3581   22.8984 C.ar    1  UNL1        0.0014
     32 C          -5.0404  -18.6613   22.2652 C.ar    1  UNL1        0.0202
@<TRIPOS>BOND
     1    20    21    3
     2    21    11    1
     3    11    12    2
     4    12    13    1
     5    13    14    2
     6    14    15    1
     7    15    16    2
     8    16    17    1
     9    17     9    1
    10     9    10    2
    11     9     1    1
    12     1     2   ar
    13     2     3    1
    14     2     4   ar
    15     4     5   ar
    16     5     6   ar
    17     6    22    1
    18    22    24    1
    19    24    25    2
    20    24    26    2
    21    24    27    1
    22    27    28   ar
    23    28    29   ar
    24    29    30   ar
    25    30    31   ar
    26    31    32   ar
    27     6     7   ar
    28     7     8    1
    29    17    18    2
    30    18    19    1
    31    19    11    1
    32    18    14    1
    33     7     1   ar
    34    32    27   ar
    35    22    23    1
@<TRIPOS>MOLECULE
*****
 32 35 0 0 0
SMALL
GASTEIGER

@<TRIPOS>ATOM
      1 C          -7.8002  -19.5936   20.5411 C.ar    1  UNL1        0.0951
      2 C          -8.6957  -19.7871   19.3534 C.ar    1  UNL1        0.1454
      3 F          -8.2096  -20.5651   18.1666 F       1  UNL1       -0.2040
      4 C         -10.0771  -19.2026   19.3524 C.ar    1  UNL1        0.0312
      5 C         -10.5632  -18.4246   20.5392 C.ar    1  UNL1        0.0204
      6 C          -9.6677  -18.2311   21.7270 C.ar    1  UNL1        0.0924
      7 C          -8.2862  -18.8156   21.7280 C.ar    1  UNL1        0.1598
      8 F          -7.3909  -18.6221   22.9158 F       1  UNL1       -0.2026
      9 C          -6.4188  -20.1781   20.5421 C.2     1  UNL1        0.2036
     10 O          -6.2251  -21.6446   20.7910 O.2     1  UNL1       -0.2863
     11 C          -3.4521  -17.8840   23.6489 C.2     1  UNL1        0.0974
     12 C          -2.3786  -17.0982   22.9561 C.2     1  UNL1        0.2421
     13 N          -2.3089  -17.0827   21.4578 N.2     1  UNL1       -0.0304
     14 C          -3.3128  -17.8530   20.6523 C.2     1  UNL1        0.3721
     15 N          -3.4941  -18.0247   19.1732 N.2     1  UNL1       -0.0307
     16 C          -4.6797  -18.9166   18.9519 C.2     1  UNL1        0.2390
     17 C          -5.2311  -19.2961   20.2942 C.2     1  UNL1        0.0896
     18 C          -4.3863  -18.6388   21.3451 C.2     1  UNL1        0.0782
     19 C          -4.4560  -18.6543   22.8434 C.3     1  UNL1        0.0751
     20 N          -3.5914  -17.9150   26.6455 N.1     1  UNL1       -0.1910
     21 C          -3.5218  -17.8995   25.1472 C.1     1  UNL1        0.1003
     22 N         -10.1537  -17.4531   22.9138 N.pl3   1  UNL1       -0.2128
     23 H         -11.1192  -17.3204   23.0535 H       1  UNL1        0.1738
     24 S          -9.1689  -16.8774   23.8877 S.O2    1  UNL1        0.0736
     25 O          -8.7537  -15.8601   22.8665 O.2     1  UNL1       -0.1499
     26 O          -9.5840  -17.8946   24.9089 O.2     1  UNL1       -0.1499
     27 C          -8.1839  -16.3016   24.8616 C.ar    1  UNL1        0.1252
     28 C          -8.4948  -16.2985   26.3291 C.ar    1  UNL1        0.0202
     29 C          -7.5099  -15.7228   27.3030 C.ar    1  UNL1        0.0014
     30 C          -6.2143  -15.1502   26.8096 C.ar    1  UNL1        0.0001
     31 C          -5.9034  -15.1534   25.3422 C.ar    1  UNL1        0.0014
     32 C          -6.8883  -15.7291   24.3682 C.ar    1  UNL1        0.0202
@<TRIPOS>BOND
     1    20    21    3
     2    21    11    1
     3    11    12    2
     4    12    13    1
     5    13    14    2
     6    14    15    1
     7    15    16    2
     8    16    17    1
     9    17     9    1
    10     9    10    2
    11     9     1    1
    12     1     2   ar
    13     2     3    1
    14     2     4   ar
    15     4     5   ar
    16     5     6   ar
    17     6    22    1
    18    22    24    1
    19    24    25    2
    20    24    26    2
    21    24    27    1
    22    27    28   ar
    23    28    29   ar
    24    29    30   ar
    25    30    31   ar
    26    31    32   ar
    27     6     7   ar
    28     7     8    1
    29    17    18    2
    30    18    19    1
    31    19    11    1
    32    18    14    1
    33     7     1   ar
    34    32    27   ar
    35    22    23    1
@<TRIPOS>MOLECULE
*****
 32 35 0 0 0
SMALL
GASTEIGER

@<TRIPOS>ATOM
      1 C          -7.6546  -15.7802   25.2906 C.ar    1  UNL1        0.0951
      2 C          -7.0930  -15.8980   26.6765 C.ar    1  UNL1        0.1454
      3 F          -8.0082  -16.1517   27.8375 F       1  UNL1       -0.2040
      4 C          -5.6162  -15.7621   26.9014 C.ar    1  UNL1        0.0312
      5 C          -4.7009  -15.5085   25.7404 C.ar    1  UNL1        0.0204
      6 C          -5.2625  -15.3907   24.3545 C.ar    1  UNL1        0.0924
      7 C          -6.7393  -15.5265   24.1295 C.ar    1  UNL1        0.1598
      8 F          -7.3008  -15.4087   22.7436 F       1  UNL1       -0.2026
      9 C          -9.1313  -15.9161   25.0657 C.2     1  UNL1        0.2036
     10 O         -10.0381  -14.7466   25.3110 O.2     1  UNL1       -0.2863
     11 C         -11.4437  -17.0796   20.9407 C.2     1  UNL1        0.0974
     12 C         -11.8472  -18.5232   20.8868 C.2     1  UNL1        0.2421
     13 N         -11.5268  -19.4349   22.0341 N.2     1  UNL1       -0.0304
     14 C         -10.8030  -18.9028   23.2353 C.2     1  UNL1        0.3721
     15 N         -10.3543  -19.5573   24.5082 N.2     1  UNL1       -0.0307
     16 C          -9.6735  -18.5182   25.3488 C.2     1  UNL1        0.2390
     17 C          -9.7014  -17.2214   24.5955 C.2     1  UNL1        0.0896
     18 C         -10.3995  -17.4592   23.2892 C.2     1  UNL1        0.0782
     19 C         -10.7198  -16.5475   22.1419 C.3     1  UNL1        0.0751
     20 N         -12.0844  -15.2563   18.6461 N.1     1  UNL1       -0.1910
     21 C         -11.7640  -16.1679   19.7934 C.1     1  UNL1        0.1003
     22 N          -4.3473  -15.1370   23.1935 N.pl3   1  UNL1       -0.2128
     23 H          -4.1911  -14.2163   22.8817 H       1  UNL1        0.1738
     24 S          -3.6698  -16.2861   22.5074 S.O2    1  UNL1        0.0736
     25 O          -4.6967  -17.2255   23.0667 O.2     1  UNL1       -0.1499
     26 O          -2.6429  -15.3467   21.9480 O.2     1  UNL1       -0.1499
     27 C          -2.9924  -17.4352   21.8213 C.ar    1  UNL1        0.1252
     28 C          -1.8643  -17.1789   20.8665 C.ar    1  UNL1        0.0202
     29 C          -1.1868  -18.3280   20.1804 C.ar    1  UNL1        0.0014
     30 C          -1.6374  -19.7332   20.4491 C.ar    1  UNL1        0.0001
     31 C          -2.7655  -19.9895   21.4039 C.ar    1  UNL1        0.0014
     32 C          -3.4430  -18.8405   22.0900 C.ar    1  UNL1        0.0202
@<TRIPOS>BOND
     1    20    21    3
     2    21    11    1
     3    11    12    2
     4    12    13    1
     5    13    14    2
     6    14    15    1
     7    15    16    2
     8    16    17    1
     9    17     9    1
    10     9    10    2
    11     9     1    1
    12     1     2   ar
    13     2     3    1
    14     2     4   ar
    15     4     5   ar
    16     5     6   ar
    17     6    22    1
    18    22    24    1
    19    24    25    2
    20    24    26    2
    21    24    27    1
    22    27    28   ar
    23    28    29   ar
    24    29    30   ar
    25    30    31   ar
    26    31    32   ar
    27     6     7   ar
    28     7     8    1
    29    17    18    2
    30    18    19    1
    31    19    11    1
    32    18    14    1
    33     7     1   ar
    34    32    27   ar
    35    22    23    1
@<TRIPOS>MOLECULE
*****
 32 35 0 0 0
SMALL
GASTEIGER

@<TRIPOS>ATOM
      1 C          -8.5777  -17.6084   23.9840 C.ar    1  UNL1        0.0951
      2 C          -7.9042  -16.3182   24.3470 C.ar    1  UNL1        0.1454
      3 F          -8.6203  -15.3121   25.1984 F       1  UNL1       -0.2040
      4 C          -6.5148  -16.0341   23.8585 C.ar    1  UNL1        0.0312
      5 C          -5.7987  -17.0401   23.0071 C.ar    1  UNL1        0.0204
      6 C          -6.4722  -18.3304   22.6440 C.ar    1  UNL1        0.0924
      7 C          -7.8617  -18.6145   23.1325 C.ar    1  UNL1        0.1598
      8 F          -8.5351  -19.9048   22.7694 F       1  UNL1       -0.2026
      9 C          -9.9672  -17.8925   24.4724 C.2     1  UNL1        0.2036
     10 O         -10.1979  -18.2522   25.9102 O.2     1  UNL1       -0.2863
     11 C         -10.5757  -15.3084   20.3897 C.2     1  UNL1        0.0974
     12 C         -11.9107  -15.5414   19.7468 C.2     1  UNL1        0.2421
     13 N         -12.8890  -16.4908   20.3725 N.2     1  UNL1       -0.0304
     14 C         -12.5323  -17.2072   21.6411 C.2     1  UNL1        0.3721
     15 N         -13.2862  -18.1938   22.4827 N.2     1  UNL1       -0.0307
     16 C         -12.4170  -18.5707   23.6457 C.2     1  UNL1        0.2390
     17 C         -11.1260  -17.8169   23.5230 C.2     1  UNL1        0.0896
     18 C         -11.1973  -16.9742   22.2840 C.2     1  UNL1        0.0782
     19 C         -10.2190  -16.0248   21.6583 C.3     1  UNL1        0.0751
     20 N          -8.6190  -13.4097   19.1382 N.1     1  UNL1       -0.1910
     21 C          -9.5973  -14.3591   19.7639 C.1     1  UNL1        0.1003
     22 N          -5.7561  -19.3365   21.7925 N.pl3   1  UNL1       -0.2128
     23 H          -6.1443  -20.2308   21.6557 H       1  UNL1        0.1738
     24 S          -4.4487  -18.9799   21.1496 S.O2    1  UNL1        0.0736
     25 O          -5.1810  -18.4627   19.9471 O.2     1  UNL1       -0.1499
     26 O          -3.7162  -19.4972   22.3520 O.2     1  UNL1       -0.1499
     27 C          -3.1412  -18.6234   20.5066 C.ar    1  UNL1        0.1252
     28 C          -3.1113  -18.1347   19.0887 C.ar    1  UNL1        0.0202
     29 C          -1.8038  -17.7781   18.4457 C.ar    1  UNL1        0.0014
     30 C          -0.5263  -17.9103   19.2206 C.ar    1  UNL1        0.0001
     31 C          -0.5561  -18.3990   20.6384 C.ar    1  UNL1        0.0014
     32 C          -1.8636  -18.7555   21.2814 C.ar    1  UNL1        0.0202
@<TRIPOS>BOND
     1    20    21    3
     2    21    11    1
     3    11    12    2
     4    12    13    1
     5    13    14    2
     6    14    15    1
     7    15    16    2
     8    16    17    1
     9    17     9    1
    10     9    10    2
    11     9     1    1
    12     1     2   ar
    13     2     3    1
    14     2     4   ar
    15     4     5   ar
    16     5     6   ar
    17     6    22    1
    18    22    24    1
    19    24    25    2
    20    24    26    2
    21    24    27    1
    22    27    28   ar
    23    28    29   ar
    24    29    30   ar
    25    30    31   ar
    26    31    32   ar
    27     6     7   ar
    28     7     8    1
    29    17    18    2
    30    18    19    1
    31    19    11    1
    32    18    14    1
    33     7     1   ar
    34    32    27   ar
    35    22    23    1
@<TRIPOS>MOLECULE
*****
 32 35 0 0 0
SMALL
GASTEIGER

@<TRIPOS>ATOM
      1 C          -6.9590  -15.9799   23.4703 C.ar    1  UNL1        0.0951
      2 C          -6.9392  -15.1451   24.7163 C.ar    1  UNL1        0.1454
      3 F          -8.0681  -14.2001   25.0040 F       1  UNL1       -0.2040
      4 C          -5.7906  -15.2551   25.6747 C.ar    1  UNL1        0.0312
      5 C          -4.6617  -16.2001   25.3871 C.ar    1  UNL1        0.0204
      6 C          -4.6815  -17.0350   24.1410 C.ar    1  UNL1        0.0924
      7 C          -5.8301  -16.9249   23.1826 C.ar    1  UNL1        0.1598
      8 F          -5.8499  -17.7598   21.9366 F       1  UNL1       -0.2026
      9 C          -8.1076  -15.8699   22.5119 C.2     1  UNL1        0.2036
     10 O          -8.0120  -14.9528   21.3288 O.2     1  UNL1       -0.2863
     11 C          -9.9300  -19.6622   20.0597 C.2     1  UNL1        0.0974
     12 C         -11.2164  -20.1682   20.6420 C.2     1  UNL1        0.2421
     13 N         -11.8014  -19.5080   21.8553 N.2     1  UNL1       -0.0304
     14 C         -11.0999  -18.3420   22.4863 C.2     1  UNL1        0.3721
     15 N         -11.4334  -17.4955   23.6789 N.2     1  UNL1       -0.0307
     16 C         -10.3531  -16.4664   23.8337 C.2     1  UNL1        0.2390
     17 C          -9.3519  -16.6768   22.7367 C.2     1  UNL1        0.0896
     18 C          -9.8135  -17.8360   21.9040 C.2     1  UNL1        0.0782
     19 C          -9.2285  -18.4962   20.6907 C.3     1  UNL1        0.0751
     20 N          -8.7601  -20.9825   17.6332 N.1     1  UNL1       -0.1910
     21 C          -9.3450  -20.3224   18.8465 C.1     1  UNL1        0.1003
     22 N          -3.5526  -17.9799   23.8534 N.pl3   1  UNL1       -0.2128
     23 H          -3.2255  -18.5849   24.5578 H       1  UNL1        0.1738
     24 S          -2.9222  -18.0031   22.4926 S.O2    1  UNL1        0.0736
     25 O          -2.5057  -16.5721   22.6611 O.2     1  UNL1       -0.1499
     26 O          -3.3387  -19.4342   22.3240 O.2     1  UNL1       -0.1499
     27 C          -2.2917  -18.0263   21.1316 C.ar    1  UNL1        0.1252
     28 C          -0.8493  -17.6489   20.9668 C.ar    1  UNL1        0.0202
     29 C          -0.2188  -17.6721   19.6060 C.ar    1  UNL1        0.0014
     30 C          -1.0307  -18.0728   18.4099 C.ar    1  UNL1        0.0001
     31 C          -2.4730  -18.4502   18.5748 C.ar    1  UNL1        0.0014
     32 C          -3.1035  -18.4269   19.9356 C.ar    1  UNL1        0.0202
@<TRIPOS>BOND
     1    20    21    3
     2    21    11    1
     3    11    12    2
     4    12    13    1
     5    13    14    2
     6    14    15    1
     7    15    16    2
     8    16    17    1
     9    17     9    1
    10     9    10    2
    11     9     1    1
    12     1     2   ar
    13     2     3    1
    14     2     4   ar
    15     4     5   ar
    16     5     6   ar
    17     6    22    1
    18    22    24    1
    19    24    25    2
    20    24    26    2
    21    24    27    1
    22    27    28   ar
    23    28    29   ar
    24    29    30   ar
    25    30    31   ar
    26    31    32   ar
    27     6     7   ar
    28     7     8    1
    29    17    18    2
    30    18    19    1
    31    19    11    1
    32    18    14    1
    33     7     1   ar
    34    32    27   ar
    35    22    23    1
@<TRIPOS>MOLECULE
*****
 32 35 0 0 0
SMALL
GASTEIGER

@<TRIPOS>ATOM
      1 C          -6.6405  -16.5782   23.9545 C.ar    1  UNL1        0.0951
      2 C          -5.4008  -15.8674   24.4101 C.ar    1  UNL1        0.1454
      3 F          -5.5078  -14.6905   25.3340 F       1  UNL1       -0.2040
      4 C          -4.0540  -16.3334   23.9420 C.ar    1  UNL1        0.0312
      5 C          -3.9471  -17.5103   23.0181 C.ar    1  UNL1        0.0204
      6 C          -5.1869  -18.2211   22.5625 C.ar    1  UNL1        0.0924
      7 C          -6.5336  -17.7551   23.0306 C.ar    1  UNL1        0.1598
      8 F          -7.7734  -18.4660   22.5749 F       1  UNL1       -0.2026
      9 C          -7.9872  -16.1122   24.4226 C.2     1  UNL1        0.2036
     10 O          -8.1809  -14.6876   24.8505 O.2     1  UNL1       -0.2863
     11 C         -11.6825  -16.7806   21.3218 C.2     1  UNL1        0.0974
     12 C         -12.6221  -17.8642   21.7609 C.2     1  UNL1        0.2421
     13 N         -12.3652  -18.6077   23.0381 N.2     1  UNL1       -0.0304
     14 C         -11.1686  -18.2677   23.8762 C.2     1  UNL1        0.3721
     15 N         -10.6608  -18.8240   25.1733 N.2     1  UNL1       -0.0307
     16 C          -9.4072  -18.0843   25.5359 C.2     1  UNL1        0.2390
     17 C          -9.1403  -17.0707   24.4629 C.2     1  UNL1        0.0896
     18 C         -10.2289  -17.1841   23.4371 C.2     1  UNL1        0.0782
     19 C         -10.4858  -16.4406   22.1599 C.3     1  UNL1        0.0751
     20 N         -12.1963  -15.2936   18.7675 N.1     1  UNL1       -0.1910
     21 C         -11.9394  -16.0371   20.0447 C.1     1  UNL1        0.1003
     22 N          -5.0799  -19.3980   21.6386 N.pl3   1  UNL1       -0.2128
     23 H          -4.2554  -19.9356   21.6198 H       1  UNL1        0.1738
     24 S          -6.2292  -19.7558   20.7435 S.O2    1  UNL1        0.0736
     25 O          -6.4550  -21.0100   21.5346 O.2     1  UNL1       -0.1499
     26 O          -6.0034  -18.5015   19.9524 O.2     1  UNL1       -0.1499
     27 C          -7.3785  -20.1135   19.8483 C.ar    1  UNL1        0.1252
     28 C          -8.6417  -19.3058   19.8908 C.ar    1  UNL1        0.0202
     29 C          -9.7910  -19.6635   18.9957 C.ar    1  UNL1        0.0014
     30 C          -9.6770  -20.8288   18.0581 C.ar    1  UNL1        0.0001
     31 C          -8.4138  -21.6364   18.0156 C.ar    1  UNL1        0.0014
     32 C          -7.2645  -21.2788   18.9107 C.ar    1  UNL1        0.0202
@<TRIPOS>BOND
     1    20    21    3
     2    21    11    1
     3    11    12    2
     4    12    13    1
     5    13    14    2
     6    14    15    1
     7    15    16    2
     8    16    17    1
     9    17     9    1
    10     9    10    2
    11     9     1    1
    12     1     2   ar
    13     2     3    1
    14     2     4   ar
    15     4     5   ar
    16     5     6   ar
    17     6    22    1
    18    22    24    1
    19    24    25    2
    20    24    26    2
    21    24    27    1
    22    27    28   ar
    23    28    29   ar
    24    29    30   ar
    25    30    31   ar
    26    31    32   ar
    27     6     7   ar
    28     7     8    1
    29    17    18    2
    30    18    19    1
    31    19    11    1
    32    18    14    1
    33     7     1   ar
    34    32    27   ar
    35    22    23    1
