@<TRIPOS>MOLECULE
*****
 23 24 0 0 0
SMALL
GASTEIGER

@<TRIPOS>ATOM
      1 C          -9.5084  -17.0608   23.8608 C.3     1  UNL1        0.1895
      2 C          -8.5634  -16.5352   24.9004 C.ar    1  UNL1        0.0172
      3 C          -7.3184  -15.8095   24.4840 C.ar    1  UNL1       -0.0008
      4 C          -6.3734  -15.2839   25.5236 C.ar    1  UNL1       -0.0002
      5 C          -6.6734  -15.4840   26.9796 C.ar    1  UNL1       -0.0000
      6 C          -7.9184  -16.2097   27.3960 C.ar    1  UNL1       -0.0002
      7 C          -8.8634  -16.7353   26.3564 C.ar    1  UNL1       -0.0008
      8 O          -9.3105  -16.7026   22.4178 O.3     1  UNL1       -0.4740
      9 C         -10.2683  -18.0919   20.4423 C.ar    1  UNL1        0.1046
     10 C         -10.1062  -19.1741   19.4164 C.ar    1  UNL1        0.0438
     11 C          -8.8242  -19.9491   19.3399 C.ar    1  UNL1        0.1515
     12 F          -8.6621  -21.0314   18.3139 F       1  UNL1       -0.2033
     13 C          -7.7043  -19.6420   20.2894 C.ar    1  UNL1        0.0881
     14 CL         -6.4224  -20.4170   20.2129 Cl      1  UNL1       -0.0798
     15 C          -7.8665  -18.5598   21.3153 C.ar    1  UNL1        0.0513
     16 C          -9.1485  -17.7848   21.3918 C.ar    1  UNL1        0.1493
     17 N         -12.8323  -16.5419   20.5952 N.1     1  UNL1       -0.1907
     18 C         -11.5503  -17.3169   20.5187 C.1     1  UNL1        0.1036
     19 C         -10.6513  -17.9446   24.2644 C.3     1  UNL1        0.0650
     20 C         -10.5066  -19.4360   24.1956 C.3     1  UNL1        0.0692
     21 N         -10.1131  -20.2086   25.4196 N.3     1  UNL1       -0.3210
     22 H          -9.1621  -19.9571   25.6892 H       1  UNL1        0.1189
     23 H         -10.1568  -21.2078   25.2196 H       1  UNL1        0.1189
@<TRIPOS>BOND
     1    17    18    3
     2    18     9    1
     3     9    10   ar
     4    10    11   ar
     5    11    12    1
     6    11    13   ar
     7    13    14    1
     8    13    15   ar
     9    15    16   ar
    10    16     8    1
    11     8     1    1
    12     1    19    1
    13    19    20    1
    14    20    21    1
    15     1     2    1
    16     2     3   ar
    17     3     4   ar
    18     4     5   ar
    19     5     6   ar
    20     6     7   ar
    21    16     9   ar
    22     7     2   ar
    23    21    22    1
    24    21    23    1
@<TRIPOS>MOLECULE
*****
 23 24 0 0 0
SMALL
GASTEIGER

@<TRIPOS>ATOM
      1 C          -7.3128  -18.4358   21.4571 C.3     1  UNL1        0.1895
      2 C          -5.8998  -18.9060   21.2773 C.ar    1  UNL1        0.0172
      3 C          -4.9764  -18.9752   22.4574 C.ar    1  UNL1       -0.0008
      4 C          -3.5634  -19.4454   22.2776 C.ar    1  UNL1       -0.0002
      5 C          -3.0738  -19.8463   20.9175 C.ar    1  UNL1       -0.0000
      6 C          -3.9971  -19.7770   19.7375 C.ar    1  UNL1       -0.0002
      7 C          -5.4101  -19.3069   19.9173 C.ar    1  UNL1       -0.0008
      8 O          -7.5933  -16.9853   21.7167 O.3     1  UNL1       -0.4740
      9 C          -8.9648  -16.3825   23.8394 C.ar    1  UNL1        0.1046
     10 C          -9.0202  -15.8698   25.2479 C.ar    1  UNL1        0.0438
     11 C          -7.7597  -15.4471   25.9424 C.ar    1  UNL1        0.1515
     12 F          -7.8152  -14.9343   27.3510 F       1  UNL1       -0.2033
     13 C          -6.4436  -15.5371   25.2283 C.ar    1  UNL1        0.0881
     14 CL         -5.1831  -15.1144   25.9228 Cl      1  UNL1       -0.0798
     15 C          -6.3882  -16.0499   23.8198 C.ar    1  UNL1        0.0513
     16 C          -7.6488  -16.4726   23.1253 C.ar    1  UNL1        0.1493
     17 N         -11.4859  -17.2279   22.4505 N.1     1  UNL1       -0.1907
     18 C         -10.2254  -16.8052   23.1449 C.1     1  UNL1        0.1036
     19 C          -8.4453  -19.4161   21.3773 C.3     1  UNL1        0.0650
     20 C          -9.4182  -19.3471   20.2377 C.3     1  UNL1        0.0692
     21 N          -9.9679  -18.0219   19.8002 N.3     1  UNL1       -0.3210
     22 H         -10.5477  -17.6322   20.5434 H       1  UNL1        0.1189
     23 H         -10.5321  -18.1485   18.9599 H       1  UNL1        0.1189
@<TRIPOS>BOND
     1    17    18    3
     2    18     9    1
     3     9    10   ar
     4    10    11   ar
     5    11    12    1
     6    11    13   ar
     7    13    14    1
     8    13    15   ar
     9    15    16   ar
    10    16     8    1
    11     8     1    1
    12     1    19    1
    13    19    20    1
    14    20    21    1
    15     1     2    1
    16     2     3   ar
    17     3     4   ar
    18     4     5   ar
    19     5     6   ar
    20     6     7   ar
    21    16     9   ar
    22     7     2   ar
    23    21    22    1
    24    21    23    1
@<TRIPOS>MOLECULE
*****
 23 24 0 0 0
SMALL
GASTEIGER

@<TRIPOS>ATOM
      1 C          -9.1227  -16.7689   23.6404 C.3     1  UNL1        0.1895
      2 C         -10.5710  -17.1584   23.6138 C.ar    1  UNL1        0.0172
      3 C         -11.0482  -18.3278   24.4231 C.ar    1  UNL1       -0.0008
      4 C         -12.4965  -18.7173   24.3964 C.ar    1  UNL1       -0.0002
      5 C         -13.4676  -17.9373   23.5605 C.ar    1  UNL1       -0.0000
      6 C         -12.9904  -16.7680   22.7513 C.ar    1  UNL1       -0.0002
      7 C         -11.5421  -16.3785   22.7779 C.ar    1  UNL1       -0.0008
      8 O          -8.3458  -16.6818   22.3603 O.3     1  UNL1       -0.4740
      9 C          -8.1912  -18.8002   20.8641 C.ar    1  UNL1        0.1046
     10 C          -7.4211  -19.9895   20.3718 C.ar    1  UNL1        0.0438
     11 C          -6.0352  -20.2497   20.8833 C.ar    1  UNL1        0.1515
     12 F          -5.2650  -21.4390   20.3910 F       1  UNL1       -0.2033
     13 C          -5.4195  -19.3206   21.8872 C.ar    1  UNL1        0.0881
     14 CL         -4.0337  -19.5809   22.3988 Cl      1  UNL1       -0.0798
     15 C          -6.1897  -18.1314   22.3795 C.ar    1  UNL1        0.0513
     16 C          -7.5756  -17.8712   21.8679 C.ar    1  UNL1        0.1493
     17 N         -10.9629  -18.2798   19.8409 N.1     1  UNL1       -0.1907
     18 C          -9.5771  -18.5400   20.3525 C.1     1  UNL1        0.1036
     19 C          -8.4512  -16.4665   24.9473 C.3     1  UNL1        0.0650
     20 C          -7.4790  -15.3286   25.0453 C.3     1  UNL1        0.0692
     21 N          -7.5501  -14.1949   24.0658 N.3     1  UNL1       -0.3210
     22 H          -7.3193  -14.5367   23.1328 H       1  UNL1        0.1189
     23 H          -6.8857  -13.4697   24.3362 H       1  UNL1        0.1189
@<TRIPOS>BOND
     1    17    18    3
     2    18     9    1
     3     9    10   ar
     4    10    11   ar
     5    11    12    1
     6    11    13   ar
     7    13    14    1
     8    13    15   ar
     9    15    16   ar
    10    16     8    1
    11     8     1    1
    12     1    19    1
    13    19    20    1
    14    20    21    1
    15     1     2    1
    16     2     3   ar
    17     3     4   ar
    18     4     5   ar
    19     5     6   ar
    20     6     7   ar
    21    16     9   ar
    22     7     2   ar
    23    21    22    1
    24    21    23    1
@<TRIPOS>MOLECULE
*****
 23 24 0 0 0
SMALL
GASTEIGER

@<TRIPOS>ATOM
      1 C          -7.5725  -17.7137   21.9667 C.3     1  UNL1        0.1895
      2 C          -6.4303  -18.6138   21.5993 C.ar    1  UNL1        0.0172
      3 C          -5.1381  -18.5331   22.3569 C.ar    1  UNL1       -0.0008
      4 C          -3.9958  -19.4332   21.9895 C.ar    1  UNL1       -0.0002
      5 C          -4.1457  -20.4141   20.8646 C.ar    1  UNL1       -0.0000
      6 C          -5.4378  -20.4948   20.1070 C.ar    1  UNL1       -0.0002
      7 C          -6.5801  -19.5947   20.4744 C.ar    1  UNL1       -0.0008
      8 O          -8.8372  -17.7398   21.1606 O.3     1  UNL1       -0.4740
      9 C         -11.2479  -16.7841   21.3198 C.ar    1  UNL1        0.1046
     10 C         -12.5784  -16.7238   22.0098 C.ar    1  UNL1        0.0438
     11 C         -12.8288  -17.5588   23.2305 C.ar    1  UNL1        0.1515
     12 F         -14.1594  -17.4984   23.9205 F       1  UNL1       -0.2033
     13 C         -11.7487  -18.4540   23.7613 C.ar    1  UNL1        0.0881
     14 CL        -11.9991  -19.2890   24.9820 Cl      1  UNL1       -0.0798
     15 C         -10.4182  -18.5144   23.0713 C.ar    1  UNL1        0.0513
     16 C         -10.1678  -17.6794   21.8506 C.ar    1  UNL1        0.1493
     17 N         -10.7472  -15.1142   18.8784 N.1     1  UNL1       -0.1907
     18 C         -10.9975  -15.9492   20.0991 C.1     1  UNL1        0.1036
     19 C          -7.4501  -16.7875   23.1403 C.3     1  UNL1        0.0650
     20 C          -7.7140  -15.3209   22.9690 C.3     1  UNL1        0.0692
     21 N          -8.0110  -14.7664   21.6072 N.3     1  UNL1       -0.3210
     22 H          -7.1867  -14.8619   21.0141 H       1  UNL1        0.1189
     23 H          -8.2591  -13.7803   21.6883 H       1  UNL1        0.1189
@<TRIPOS>BOND
     1    17    18    3
     2    18     9    1
     3     9    10   ar
     4    10    11   ar
     5    11    12    1
     6    11    13   ar
     7    13    14    1
     8    13    15   ar
     9    15    16   ar
    10    16     8    1
    11     8     1    1
    12     1    19    1
    13    19    20    1
    14    20    21    1
    15     1     2    1
    16     2     3   ar
    17     3     4   ar
    18     4     5   ar
    19     5     6   ar
    20     6     7   ar
    21    16     9   ar
    22     7     2   ar
    23    21    22    1
    24    21    23    1
@<TRIPOS>MOLECULE
*****
 23 24 0 0 0
SMALL
GASTEIGER

@<TRIPOS>ATOM
      1 C          -8.9681  -16.8258   23.7237 C.3     1  UNL1        0.1895
      2 C          -8.1721  -16.3284   24.8936 C.ar    1  UNL1        0.0172
      3 C          -6.8511  -15.6539   24.6696 C.ar    1  UNL1       -0.0008
      4 C          -6.0550  -15.1564   25.8396 C.ar    1  UNL1       -0.0002
      5 C          -6.5800  -15.3335   27.2336 C.ar    1  UNL1       -0.0000
      6 C          -7.9009  -16.0080   27.4575 C.ar    1  UNL1       -0.0002
      7 C          -8.6969  -16.5054   26.2876 C.ar    1  UNL1       -0.0008
      8 O          -8.3849  -16.7729   22.3427 O.3     1  UNL1       -0.4740
      9 C          -8.2287  -18.8386   20.7747 C.ar    1  UNL1        0.1046
     10 C          -7.4571  -20.0090   20.2411 C.ar    1  UNL1        0.0438
     11 C          -6.0702  -20.2842   20.7418 C.ar    1  UNL1        0.1515
     12 F          -5.2986  -21.4546   20.2082 F       1  UNL1       -0.2033
     13 C          -5.4548  -19.3889   21.7762 C.ar    1  UNL1        0.0881
     14 CL         -4.0679  -19.6641   22.2769 Cl      1  UNL1       -0.0798
     15 C          -6.2264  -18.2185   22.3098 C.ar    1  UNL1        0.0513
     16 C          -7.6133  -17.9434   21.8091 C.ar    1  UNL1        0.1493
     17 N         -11.0025  -18.2882   19.7733 N.1     1  UNL1       -0.1907
     18 C          -9.6156  -18.5634   20.2740 C.1     1  UNL1        0.1036
     19 C         -10.3475  -17.3762   23.9347 C.3     1  UNL1        0.0650
     20 C         -11.4567  -16.9995   22.9978 C.3     1  UNL1        0.0692
     21 N         -11.2884  -15.8367   22.0653 N.3     1  UNL1       -0.3210
     22 H         -11.2213  -14.9744   22.6059 H       1  UNL1        0.1189
     23 H         -12.0920  -15.7839   21.4393 H       1  UNL1        0.1189
@<TRIPOS>BOND
     1    17    18    3
     2    18     9    1
     3     9    10   ar
     4    10    11   ar
     5    11    12    1
     6    11    13   ar
     7    13    14    1
     8    13    15   ar
     9    15    16   ar
    10    16     8    1
    11     8     1    1
    12     1    19    1
    13    19    20    1
    14    20    21    1
    15     1     2    1
    16     2     3   ar
    17     3     4   ar
    18     4     5   ar
    19     5     6   ar
    20     6     7   ar
    21    16     9   ar
    22     7     2   ar
    23    21    22    1
    24    21    23    1
@<TRIPOS>MOLECULE
*****
 23 24 0 0 0
SMALL
GASTEIGER

@<TRIPOS>ATOM
      1 C          -7.0773  -18.7363   22.4970 C.3     1  UNL1        0.1895
      2 C          -5.7438  -19.1348   21.9377 C.ar    1  UNL1        0.0172
      3 C          -4.4824  -18.6365   22.5786 C.ar    1  UNL1       -0.0008
      4 C          -3.1489  -19.0350   22.0193 C.ar    1  UNL1       -0.0002
      5 C          -3.0767  -19.9318   20.8190 C.ar    1  UNL1       -0.0000
      6 C          -4.3380  -20.4301   20.1782 C.ar    1  UNL1       -0.0002
      7 C          -5.6715  -20.0316   20.7375 C.ar    1  UNL1       -0.0008
      8 O          -8.2026  -19.7275   22.5315 O.3     1  UNL1       -0.4740
      9 C         -10.1253  -19.0242   20.9318 C.ar    1  UNL1        0.1046
     10 C         -11.5372  -18.5635   20.7215 C.ar    1  UNL1        0.0438
     11 C         -12.4384  -18.3455   21.9006 C.ar    1  UNL1        0.1515
     12 F         -13.8504  -17.8848   21.6902 F       1  UNL1       -0.2033
     13 C         -11.9278  -18.5881   23.2899 C.ar    1  UNL1        0.0881
     14 CL        -12.8291  -18.3701   24.4690 Cl      1  UNL1       -0.0798
     15 C         -10.5159  -19.0488   23.5002 C.ar    1  UNL1        0.0513
     16 C          -9.6146  -19.2668   22.3212 C.ar    1  UNL1        0.1493
     17 N          -8.3227  -19.4602   18.5737 N.1     1  UNL1       -0.1907
     18 C          -9.2240  -19.2422   19.7528 C.1     1  UNL1        0.1036
     19 C          -7.2856  -17.3466   23.0218 C.3     1  UNL1        0.0650
     20 C          -8.0080  -16.3304   22.1879 C.3     1  UNL1        0.0692
     21 N          -7.6559  -14.8771   22.3049 N.3     1  UNL1       -0.3210
     22 H          -7.9033  -14.5411   23.2356 H       1  UNL1        0.1189
     23 H          -8.1709  -14.3449   21.6034 H       1  UNL1        0.1189
@<TRIPOS>BOND
     1    17    18    3
     2    18     9    1
     3     9    10   ar
     4    10    11   ar
     5    11    12    1
     6    11    13   ar
     7    13    14    1
     8    13    15   ar
     9    15    16   ar
    10    16     8    1
    11     8     1    1
    12     1    19    1
    13    19    20    1
    14    20    21    1
    15     1     2    1
    16     2     3   ar
    17     3     4   ar
    18     4     5   ar
    19     5     6   ar
    20     6     7   ar
    21    16     9   ar
    22     7     2   ar
    23    21    22    1
    24    21    23    1
@<TRIPOS>MOLECULE
*****
 23 24 0 0 0
SMALL
GASTEIGER

@<TRIPOS>ATOM
      1 C          -8.2122  -16.6261   23.3833 C.3     1  UNL1        0.1895
      2 C          -7.7148  -16.1670   24.7219 C.ar    1  UNL1        0.0172
      3 C          -6.3257  -15.6175   24.8577 C.ar    1  UNL1       -0.0008
      4 C          -5.8284  -15.1584   26.1963 C.ar    1  UNL1       -0.0002
      5 C          -6.7202  -15.2487   27.3991 C.ar    1  UNL1       -0.0000
      6 C          -8.1093  -15.7982   27.2632 C.ar    1  UNL1       -0.0002
      7 C          -8.6066  -16.2573   25.9246 C.ar    1  UNL1       -0.0008
      8 O          -7.2654  -16.7216   22.2238 O.3     1  UNL1       -0.4740
      9 C          -5.8243  -18.8457   21.8215 C.ar    1  UNL1        0.1046
     10 C          -5.6134  -20.1609   21.1318 C.ar    1  UNL1        0.0438
     11 C          -6.6327  -20.6673   20.1547 C.ar    1  UNL1        0.1515
     12 F          -6.4217  -21.9825   19.4649 F       1  UNL1       -0.2033
     13 C          -7.8628  -19.8585   19.8673 C.ar    1  UNL1        0.0881
     14 CL         -8.8820  -20.3649   18.8902 Cl      1  UNL1       -0.0798
     15 C          -8.0737  -18.5433   20.5570 C.ar    1  UNL1        0.0513
     16 C          -7.0544  -18.0369   21.5341 C.ar    1  UNL1        0.1493
     17 N          -3.7858  -17.8329   23.7757 N.1     1  UNL1       -0.1907
     18 C          -4.8051  -18.3393   22.7986 C.1     1  UNL1        0.1036
     19 C          -9.6564  -16.9898   23.2042 C.3     1  UNL1        0.0650
     20 C         -10.4623  -16.3465   22.1149 C.3     1  UNL1        0.0692
     21 N          -9.8064  -15.3943   21.1593 N.3     1  UNL1       -0.3210
     22 H          -9.5047  -14.5606   21.6636 H       1  UNL1        0.1189
     23 H         -10.4715  -15.1300   20.4325 H       1  UNL1        0.1189
@<TRIPOS>BOND
     1    17    18    3
     2    18     9    1
     3     9    10   ar
     4    10    11   ar
     5    11    12    1
     6    11    13   ar
     7    13    14    1
     8    13    15   ar
     9    15    16   ar
    10    16     8    1
    11     8     1    1
    12     1    19    1
    13    19    20    1
    14    20    21    1
    15     1     2    1
    16     2     3   ar
    17     3     4   ar
    18     4     5   ar
    19     5     6   ar
    20     6     7   ar
    21    16     9   ar
    22     7     2   ar
    23    21    22    1
    24    21    23    1
@<TRIPOS>MOLECULE
*****
 23 24 0 0 0
SMALL
GASTEIGER

@<TRIPOS>ATOM
      1 C          -7.8830  -18.3885   21.8594 C.3     1  UNL1        0.1895
      2 C          -9.1682  -18.6062   22.6016 C.ar    1  UNL1        0.0172
      3 C          -9.2271  -19.5993   23.7242 C.ar    1  UNL1       -0.0008
      4 C         -10.5123  -19.8170   24.4664 C.ar    1  UNL1       -0.0002
      5 C         -11.7387  -19.0415   24.0859 C.ar    1  UNL1       -0.0000
      6 C         -11.6798  -18.0484   22.9633 C.ar    1  UNL1       -0.0002
      7 C         -10.3945  -17.8307   22.2212 C.ar    1  UNL1       -0.0008
      8 O          -7.1336  -17.0991   22.0196 O.3     1  UNL1       -0.4740
      9 C          -5.4612  -16.4479   23.8982 C.ar    1  UNL1        0.1046
     10 C          -5.1965  -15.8995   25.2690 C.ar    1  UNL1        0.0438
     11 C          -6.3396  -15.4539   26.1321 C.ar    1  UNL1        0.1515
     12 F          -6.0748  -14.9055   27.5030 F       1  UNL1       -0.2033
     13 C          -7.7472  -15.5566   25.6243 C.ar    1  UNL1        0.0881
     14 CL         -8.8903  -15.1110   26.4874 Cl      1  UNL1       -0.0798
     15 C          -8.0119  -16.1050   24.2535 C.ar    1  UNL1        0.0513
     16 C          -6.8689  -16.5507   23.3905 C.ar    1  UNL1        0.1493
     17 N          -3.1751  -17.3392   22.1720 N.1     1  UNL1       -0.1907
     18 C          -4.3182  -16.8936   23.0351 C.1     1  UNL1        0.1036
     19 C          -7.3472  -19.4604   20.9571 C.3     1  UNL1        0.0650
     20 C          -5.8735  -19.5505   20.6924 C.3     1  UNL1        0.0692
     21 N          -5.1959  -18.5036   19.8589 N.3     1  UNL1       -0.3210
     22 H          -5.5446  -18.5529   18.9016 H       1  UNL1        0.1189
     23 H          -4.1888  -18.6653   19.8627 H       1  UNL1        0.1189
@<TRIPOS>BOND
     1    17    18    3
     2    18     9    1
     3     9    10   ar
     4    10    11   ar
     5    11    12    1
     6    11    13   ar
     7    13    14    1
     8    13    15   ar
     9    15    16   ar
    10    16     8    1
    11     8     1    1
    12     1    19    1
    13    19    20    1
    14    20    21    1
    15     1     2    1
    16     2     3   ar
    17     3     4   ar
    18     4     5   ar
    19     5     6   ar
    20     6     7   ar
    21    16     9   ar
    22     7     2   ar
    23    21    22    1
    24    21    23    1
@<TRIPOS>MOLECULE
*****
 23 24 0 0 0
SMALL
GASTEIGER

@<TRIPOS>ATOM
      1 C          -7.3052  -18.6236   22.2005 C.3     1  UNL1        0.1895
      2 C          -5.9706  -19.1082   21.7167 C.ar    1  UNL1        0.0172
      3 C          -4.7183  -18.6941   22.4311 C.ar    1  UNL1       -0.0008
      4 C          -3.3837  -19.1788   21.9474 C.ar    1  UNL1       -0.0002
      5 C          -3.3015  -20.0775   20.7492 C.ar    1  UNL1       -0.0000
      6 C          -4.5538  -20.4916   20.0349 C.ar    1  UNL1       -0.0002
      7 C          -5.8883  -20.0069   20.5186 C.ar    1  UNL1       -0.0008
      8 O          -8.5603  -19.3134   21.7547 O.3     1  UNL1       -0.4740
      9 C         -10.5528  -19.3758   23.4209 C.ar    1  UNL1        0.1046
     10 C         -11.8897  -18.8624   23.8669 C.ar    1  UNL1        0.0438
     11 C         -12.5711  -17.7731   23.0929 C.ar    1  UNL1        0.1515
     12 F         -13.9081  -17.2597   23.5389 F       1  UNL1       -0.2033
     13 C         -11.9156  -17.1973   21.8728 C.ar    1  UNL1        0.0881
     14 CL        -12.5971  -16.1081   21.0987 Cl      1  UNL1       -0.0798
     15 C         -10.5787  -17.7107   21.4267 C.ar    1  UNL1        0.0513
     16 C          -9.8973  -18.8000   22.2008 C.ar    1  UNL1        0.1493
     17 N          -9.1899  -21.5543   24.9691 N.1     1  UNL1       -0.1907
     18 C          -9.8714  -20.4651   24.1950 C.1     1  UNL1        0.1036
     19 C          -7.3846  -17.4490   23.1302 C.3     1  UNL1        0.0650
     20 C          -7.5130  -16.0611   22.5759 C.3     1  UNL1        0.0692
     21 N          -6.6488  -14.9574   23.1097 N.3     1  UNL1       -0.3210
     22 H          -6.8924  -14.7756   24.0834 H       1  UNL1        0.1189
     23 H          -6.7976  -14.1122   22.5584 H       1  UNL1        0.1189
@<TRIPOS>BOND
     1    17    18    3
     2    18     9    1
     3     9    10   ar
     4    10    11   ar
     5    11    12    1
     6    11    13   ar
     7    13    14    1
     8    13    15   ar
     9    15    16   ar
    10    16     8    1
    11     8     1    1
    12     1    19    1
    13    19    20    1
    14    20    21    1
    15     1     2    1
    16     2     3   ar
    17     3     4   ar
    18     4     5   ar
    19     5     6   ar
    20     6     7   ar
    21    16     9   ar
    22     7     2   ar
    23    21    22    1
    24    21    23    1
