@<TRIPOS>MOLECULE
*****
 29 32 0 0 0
SMALL
GASTEIGER

@<TRIPOS>ATOM
      1 O          -7.1816  -18.8660   23.0273 O.3     1  UNL1       -0.4725
      2 C          -8.1866  -17.7933   22.7282 C.3     1  UNL1        0.2026
      3 C          -9.2237  -17.8340   21.6453 C.ar    1  UNL1        0.0146
      4 C          -9.5544  -18.8685   20.6107 C.ar    1  UNL1       -0.0011
      5 C         -10.6705  -18.6265   19.6381 C.ar    1  UNL1       -0.0002
      6 C         -11.4558  -17.3500   19.7002 C.ar    1  UNL1       -0.0003
      7 C         -11.1251  -16.3155   20.7349 C.ar    1  UNL1       -0.0044
      8 C         -10.0091  -16.5575   21.7074 C.ar    1  UNL1       -0.0213
      9 C          -9.4573  -15.7280   22.8287 C.3     1  UNL1        0.0461
     10 C          -8.3310  -16.4917   23.4596 C.3     1  UNL1        0.1066
     11 N          -7.4957  -16.0342   24.6185 N.3     1  UNL1       -0.2703
     12 C          -6.1080  -15.4707   24.5370 C.3     1  UNL1        0.0722
     13 C          -5.6560  -15.1480   25.9304 C.3     1  UNL1        0.0188
     14 C          -6.7645  -15.5122   26.8732 C.3     1  UNL1        0.0188
     15 C          -7.9014  -16.0598   26.0623 C.3     1  UNL1        0.0722
     16 C          -3.1085  -18.7283   21.1193 C.ar    1  UNL1        0.1332
     17 C          -3.3898  -17.9128   22.3464 C.ar    1  UNL1        0.0239
     18 C          -4.7475  -17.9587   22.9824 C.ar    1  UNL1        0.0392
     19 C          -5.8240  -18.8201   22.3913 C.ar    1  UNL1        0.1503
     20 C          -5.5426  -19.6355   21.1641 C.ar    1  UNL1        0.1033
     21 CL         -6.6189  -20.4969   20.5730 Cl      1  UNL1       -0.0782
     22 C          -4.1849  -19.5896   20.5282 C.ar    1  UNL1        0.0897
     23 CL         -3.9035  -20.4051   19.3010 Cl      1  UNL1       -0.0799
     24 N          -0.3931  -18.6364   19.8473 N.3     1  UNL1       -0.2034
     25 S          -1.7508  -18.6824   20.4833 S.O2    1  UNL1        0.0580
     26 O          -1.3726  -19.9451   21.1993 O.2     1  UNL1       -0.1532
     27 O          -2.1288  -17.4196   19.7674 O.2     1  UNL1       -0.1532
     28 H          -0.3277  -17.8165   19.2442 H       1  UNL1        0.1442
     29 H          -0.2492  -19.4796   19.2917 H       1  UNL1        0.1442
@<TRIPOS>BOND
     1    24    25    1
     2    25    26    2
     3    25    27    2
     4    25    16    1
     5    16    17   ar
     6    17    18   ar
     7    18    19   ar
     8    19     1    1
     9     2     1    1
    10     2     3    1
    11     3     4   ar
    12     4     5   ar
    13     5     6   ar
    14     6     7   ar
    15     7     8   ar
    16     8     9    1
    17     9    10    1
    18    10    11    1
    19    11    12    1
    20    12    13    1
    21    13    14    1
    22    14    15    1
    23    19    20   ar
    24    20    21    1
    25    20    22   ar
    26    22    23    1
    27    22    16   ar
    28    10     2    1
    29    15    11    1
    30     8     3   ar
    31    24    28    1
    32    24    29    1
@<TRIPOS>MOLECULE
*****
 29 32 0 0 0
SMALL
GASTEIGER

@<TRIPOS>ATOM
      1 O          -5.6215  -18.9854   22.7188 O.3     1  UNL1       -0.4725
      2 C          -4.4716  -18.0569   22.4626 C.3     1  UNL1        0.2026
      3 C          -3.4013  -18.2434   21.4284 C.ar    1  UNL1        0.0146
      4 C          -3.1635  -19.3218   20.4133 C.ar    1  UNL1       -0.0011
      5 C          -1.9828  -19.2374   19.4921 C.ar    1  UNL1       -0.0002
      6 C          -1.0398  -18.0747   19.5860 C.ar    1  UNL1       -0.0003
      7 C          -1.2776  -16.9963   20.6011 C.ar    1  UNL1       -0.0044
      8 C          -2.4583  -17.0806   21.5223 C.ar    1  UNL1       -0.0213
      9 C          -2.9459  -16.1755   22.6145 C.3     1  UNL1        0.0461
     10 C          -4.1902  -16.7788   23.1957 C.3     1  UNL1        0.1066
     11 N          -5.0092  -16.2049   24.3137 N.3     1  UNL1       -0.2703
     12 C          -4.8121  -16.4695   25.7769 C.3     1  UNL1        0.0722
     13 C          -5.8502  -15.6938   26.5323 C.3     1  UNL1        0.0188
     14 C          -6.6889  -14.9497   25.5359 C.3     1  UNL1        0.0188
     15 C          -6.1691  -15.2656   24.1647 C.3     1  UNL1        0.0722
     16 C          -9.7481  -17.9056   21.2854 C.ar    1  UNL1        0.1332
     17 C          -9.2007  -17.2808   22.5345 C.ar    1  UNL1        0.0239
     18 C          -7.8251  -17.6408   23.0122 C.ar    1  UNL1        0.0392
     19 C          -6.9970  -18.6255   22.2410 C.ar    1  UNL1        0.1503
     20 C          -7.5445  -19.2501   20.9920 C.ar    1  UNL1        0.1033
     21 CL         -6.7164  -20.2348   20.2207 Cl      1  UNL1       -0.0782
     22 C          -8.9200  -18.8902   20.5142 C.ar    1  UNL1        0.0897
     23 CL         -9.4675  -19.5148   19.2652 Cl      1  UNL1       -0.0799
     24 N         -12.4992  -17.1856   20.3299 N.3     1  UNL1       -0.2034
     25 S         -11.1237  -17.5456   20.8076 S.O2    1  UNL1        0.0580
     26 O         -10.5498  -16.4137   20.0079 O.2     1  UNL1       -0.1532
     27 O         -11.6976  -18.6774   21.6073 O.2     1  UNL1       -0.1532
     28 H         -13.1790  -17.8297   20.7343 H       1  UNL1        0.1442
     29 H         -12.5334  -17.2499   19.3125 H       1  UNL1        0.1442
@<TRIPOS>BOND
     1    24    25    1
     2    25    26    2
     3    25    27    2
     4    25    16    1
     5    16    17   ar
     6    17    18   ar
     7    18    19   ar
     8    19     1    1
     9     2     1    1
    10     2     3    1
    11     3     4   ar
    12     4     5   ar
    13     5     6   ar
    14     6     7   ar
    15     7     8   ar
    16     8     9    1
    17     9    10    1
    18    10    11    1
    19    11    12    1
    20    12    13    1
    21    13    14    1
    22    14    15    1
    23    19    20   ar
    24    20    21    1
    25    20    22   ar
    26    22    23    1
    27    22    16   ar
    28    10     2    1
    29    15    11    1
    30     8     3   ar
    31    24    28    1
    32    24    29    1
@<TRIPOS>MOLECULE
*****
 29 32 0 0 0
SMALL
GASTEIGER

@<TRIPOS>ATOM
      1 O          -7.2220  -17.3602   21.6758 O.3     1  UNL1       -0.4725
      2 C          -6.1627  -17.1337   22.7135 C.3     1  UNL1        0.2026
      3 C          -6.3498  -16.4312   24.0256 C.ar    1  UNL1        0.0146
      4 C          -7.5489  -15.7899   24.6587 C.ar    1  UNL1       -0.0011
      5 C          -7.4313  -15.1507   26.0106 C.ar    1  UNL1       -0.0002
      6 C          -6.1147  -15.1528   26.7293 C.ar    1  UNL1       -0.0003
      7 C          -4.9157  -15.7941   26.0962 C.ar    1  UNL1       -0.0044
      8 C          -5.0332  -16.4333   24.7443 C.ar    1  UNL1       -0.0213
      9 C          -4.0325  -17.1371   23.8764 C.3     1  UNL1        0.0461
     10 C          -4.7306  -17.5700   22.6213 C.3     1  UNL1        0.1066
     11 N          -4.1061  -18.3093   21.4753 N.3     1  UNL1       -0.2703
     12 C          -2.7752  -18.0085   20.8524 C.3     1  UNL1        0.0722
     13 C          -2.5494  -18.9926   19.7430 C.3     1  UNL1        0.0188
     14 C          -3.7410  -19.9016   19.6802 C.3     1  UNL1        0.0188
     15 C          -4.7030  -19.4794   20.7508 C.3     1  UNL1        0.0722
     16 C         -11.5125  -17.9005   22.9205 C.ar    1  UNL1        0.1332
     17 C         -11.0430  -16.5728   22.4039 C.ar    1  UNL1        0.0239
     18 C          -9.6128  -16.3927   21.9890 C.ar    1  UNL1        0.0392
     19 C          -8.6521  -17.5403   22.0907 C.ar    1  UNL1        0.1503
     20 C          -9.1217  -18.8679   22.6074 C.ar    1  UNL1        0.1033
     21 CL         -8.1611  -20.0155   22.7091 Cl      1  UNL1       -0.0782
     22 C         -10.5519  -19.0480   23.0222 C.ar    1  UNL1        0.0897
     23 CL        -11.0215  -20.3756   23.5389 Cl      1  UNL1       -0.0799
     24 N         -14.3729  -18.2606   23.7503 N.3     1  UNL1       -0.2034
     25 S         -12.9427  -18.0805   23.3354 S.O2    1  UNL1        0.0580
     26 O         -12.5017  -18.3307   24.7472 O.2     1  UNL1       -0.1532
     27 O         -13.3837  -17.8303   21.9237 O.2     1  UNL1       -0.1532
     28 H         -14.9798  -18.1410   22.9393 H       1  UNL1        0.1442
     29 H         -14.6113  -17.5665   24.4587 H       1  UNL1        0.1442
@<TRIPOS>BOND
     1    24    25    1
     2    25    26    2
     3    25    27    2
     4    25    16    1
     5    16    17   ar
     6    17    18   ar
     7    18    19   ar
     8    19     1    1
     9     2     1    1
    10     2     3    1
    11     3     4   ar
    12     4     5   ar
    13     5     6   ar
    14     6     7   ar
    15     7     8   ar
    16     8     9    1
    17     9    10    1
    18    10    11    1
    19    11    12    1
    20    12    13    1
    21    13    14    1
    22    14    15    1
    23    19    20   ar
    24    20    21    1
    25    20    22   ar
    26    22    23    1
    27    22    16   ar
    28    10     2    1
    29    15    11    1
    30     8     3   ar
    31    24    28    1
    32    24    29    1
@<TRIPOS>MOLECULE
*****
 29 32 0 0 0
SMALL
GASTEIGER

@<TRIPOS>ATOM
      1 O          -6.8394  -17.4970   22.3270 O.3     1  UNL1       -0.4725
      2 C          -6.0800  -16.8739   23.4606 C.3     1  UNL1        0.2026
      3 C          -6.6779  -16.2813   24.7021 C.ar    1  UNL1        0.0146
      4 C          -8.0984  -16.1371   25.1618 C.ar    1  UNL1       -0.0011
      5 C          -8.3977  -15.4868   26.4799 C.ar    1  UNL1       -0.0002
      6 C          -7.2766  -14.9807   27.3383 C.ar    1  UNL1       -0.0003
      7 C          -5.8561  -15.1249   26.8786 C.ar    1  UNL1       -0.0044
      8 C          -5.5567  -15.7752   25.5605 C.ar    1  UNL1       -0.0213
      9 C          -4.2659  -16.0550   24.8495 C.3     1  UNL1        0.0461
     10 C          -4.5893  -16.7341   23.5517 C.3     1  UNL1        0.1066
     11 N          -3.5963  -17.1928   22.5253 N.3     1  UNL1       -0.2703
     12 C          -3.5854  -18.5295   21.8446 C.3     1  UNL1        0.0722
     13 C          -2.4223  -18.5582   20.8979 C.3     1  UNL1        0.0188
     14 C          -1.7143  -17.2392   20.9934 C.3     1  UNL1        0.0188
     15 C          -2.4399  -16.3954   21.9992 C.3     1  UNL1        0.0722
     16 C         -11.3005  -18.0095   22.6199 C.ar    1  UNL1        0.1332
     17 C         -10.3908  -19.1570   22.9450 C.ar    1  UNL1        0.0239
     18 C          -8.9038  -18.9862   22.8474 C.ar    1  UNL1        0.0392
     19 C          -8.3264  -17.6678   22.4247 C.ar    1  UNL1        0.1503
     20 C          -9.2361  -16.5203   22.0996 C.ar    1  UNL1        0.1033
     21 CL         -8.6589  -15.2020   21.6769 Cl      1  UNL1       -0.0782
     22 C         -10.7232  -16.6912   22.1972 C.ar    1  UNL1        0.0897
     23 CL        -11.6329  -15.5437   21.8722 Cl      1  UNL1       -0.0799
     24 N         -14.2746  -18.3512   22.8152 N.3     1  UNL1       -0.2034
     25 S         -12.7875  -18.1804   22.7176 S.O2    1  UNL1        0.0580
     26 O         -12.6779  -18.2818   24.2102 O.2     1  UNL1       -0.1532
     27 O         -12.8972  -18.0789   21.2251 O.2     1  UNL1       -0.1532
     28 H         -14.6819  -18.3249   21.8805 H       1  UNL1        0.1442
     29 H         -14.6672  -17.5970   23.3786 H       1  UNL1        0.1442
@<TRIPOS>BOND
     1    24    25    1
     2    25    26    2
     3    25    27    2
     4    25    16    1
     5    16    17   ar
     6    17    18   ar
     7    18    19   ar
     8    19     1    1
     9     2     1    1
    10     2     3    1
    11     3     4   ar
    12     4     5   ar
    13     5     6   ar
    14     6     7   ar
    15     7     8   ar
    16     8     9    1
    17     9    10    1
    18    10    11    1
    19    11    12    1
    20    12    13    1
    21    13    14    1
    22    14    15    1
    23    19    20   ar
    24    20    21    1
    25    20    22   ar
    26    22    23    1
    27    22    16   ar
    28    10     2    1
    29    15    11    1
    30     8     3   ar
    31    24    28    1
    32    24    29    1
