@<TRIPOS>MOLECULE
*****
 36 40 0 0 0
SMALL
GASTEIGER

@<TRIPOS>ATOM
      1 N           6.7053   -3.3459   20.5013 N.pl3   1  UNL1       -0.2846
      2 C           7.2775   -1.9668   20.3576 C.3     1  UNL1        0.1141
      3 C           6.7619   -1.0484   19.2896 C.3     1  UNL1        0.1149
      4 N           5.6740   -1.5091   18.3653 N.am    1  UNL1       -0.2760
      5 C           5.1583   -0.5907   17.2973 C.2     1  UNL1        0.2257
      6 O           4.0705   -1.0515   16.3730 O.2     1  UNL1       -0.2749
      7 C           5.1018   -2.8882   18.5091 C.3     1  UNL1        0.1149
      8 C           5.6175   -3.8066   19.5771 C.3     1  UNL1        0.1141
      9 C           8.5253   -6.8821   25.5795 C.ar    1  UNL1        0.1063
     10 C           9.2904   -7.6543   24.5460 C.ar    1  UNL1        0.0199
     11 C           9.2264   -7.2451   23.1043 C.ar    1  UNL1        0.0210
     12 C           8.3972   -6.0637   22.6961 C.ar    1  UNL1        0.0893
     13 N           8.1432   -5.4288   21.3610 N.ar    1  UNL1       -0.2241
     14 C           7.2210   -4.2643   21.5694 C.ar    1  UNL1        0.1631
     15 S           6.9051   -4.1794   23.0333 S.2     1  UNL1       -0.0515
     16 C           7.6321   -5.2915   23.7296 C.ar    1  UNL1        0.0510
     17 C           7.6961   -5.7007   25.1713 C.ar    1  UNL1        0.0264
     18 C           8.6533   -7.7006   28.4628 C.3     1  UNL1        0.1816
     19 S           8.5893   -7.2913   27.0211 S.O2    1  UNL1        0.0105
     20 O           9.1919   -5.9631   27.3714 O.2     1  UNL1       -0.1686
     21 O           7.9866   -8.6195   26.6709 O.2     1  UNL1       -0.1686
     22 C           5.7305    0.7884   17.1535 C.3     1  UNL1        0.0853
     23 C           6.9420    1.0123   16.2978 C.3     1  UNL1        0.0096
     24 C           7.5142    2.3914   16.1540 C.3     1  UNL1        0.0005
     25 C           6.8749    3.5466   16.8660 C.3     1  UNL1        0.0005
     26 C           5.6635    3.3226   17.7218 C.3     1  UNL1        0.0096
     27 C           5.0913    1.9435   17.8655 C.3     1  UNL1        0.0851
     28 C           3.8799    1.7196   18.7212 C.2     1  UNL1        0.2231
     29 O           3.8625    2.2085   20.1392 O.2     1  UNL1       -0.2751
     30 N           2.6858    1.0067   18.1590 N.am    1  UNL1       -0.2959
     31 H           2.6973    0.6858   17.2283 H       1  UNL1        0.1502
     32 C           1.4744    0.7828   19.0147 C.3     1  UNL1        0.1364
     33 C           0.5530    0.1512   20.0157 C.3     1  UNL1        0.0353
     34 C           1.8887   -0.4688   19.7302 C.3     1  UNL1        0.0353
     35 C           0.6394    1.9566   18.5964 C.1     1  UNL1        0.0896
     36 N          -0.1957    3.1303   18.1781 N.1     1  UNL1       -0.1943
@<TRIPOS>BOND
     1    18    19    1
     2    19    20    2
     3    19    21    2
     4    19     9    1
     5     9    10   ar
     6    10    11   ar
     7    11    12   ar
     8    12    13   ar
     9    13    14   ar
    10    14     1    1
    11     1     2    1
    12     2     3    1
    13     3     4    1
    14     4     5   am
    15     5     6    2
    16    22     5    1
    17    22    23    1
    18    23    24    1
    19    24    25    1
    20    25    26    1
    21    26    27    1
    22    27    28    1
    23    28    29    2
    24    28    30   am
    25    30    32    1
    26    32    35    1
    27    35    36    3
    28    32    33    1
    29    33    34    1
    30     4     7    1
    31     7     8    1
    32    14    15   ar
    33    15    16   ar
    34    16    17   ar
    35    17     9   ar
    36    16    12   ar
    37     8     1    1
    38    27    22    1
    39    34    32    1
    40    30    31    1
@<TRIPOS>MOLECULE
*****
 36 40 0 0 0
SMALL
GASTEIGER

@<TRIPOS>ATOM
      1 N           6.1864   -2.9860   21.3444 N.pl3   1  UNL1       -0.2846
      2 C           6.7782   -1.6314   21.0897 C.3     1  UNL1        0.1141
      3 C           6.4135   -0.8753   19.8466 C.3     1  UNL1        0.1149
      4 N           5.4570   -1.4738   18.8582 N.am    1  UNL1       -0.2760
      5 C           5.0923   -0.7177   17.6151 C.2     1  UNL1        0.2257
      6 O           4.1358   -1.3162   16.6267 O.2     1  UNL1       -0.2749
      7 C           4.8652   -2.8284   19.1130 C.3     1  UNL1        0.1149
      8 C           5.2299   -3.5845   20.3560 C.3     1  UNL1        0.1141
      9 C           7.4103   -5.6894   27.0714 C.ar    1  UNL1        0.1063
     10 C           8.0781   -6.7409   26.2358 C.ar    1  UNL1        0.0199
     11 C           8.0961   -6.6119   24.7415 C.ar    1  UNL1        0.0210
     12 C           7.4464   -5.4314   24.0827 C.ar    1  UNL1        0.0893
     13 N           7.3058   -5.0372   22.6423 N.ar    1  UNL1       -0.2241
     14 C           6.5511   -3.7421   22.5876 C.ar    1  UNL1        0.1631
     15 S           6.2253   -3.3357   23.9942 S.2     1  UNL1       -0.0515
     16 C           6.7786   -4.3798   24.9183 C.ar    1  UNL1        0.0510
     17 C           6.7605   -4.5088   26.4126 C.ar    1  UNL1        0.0264
     18 C           7.3742   -5.9473   30.0600 C.3     1  UNL1        0.1816
     19 S           7.3923   -5.8183   28.5657 S.O2    1  UNL1        0.0105
     20 O           6.2891   -4.8046   28.6399 O.2     1  UNL1       -0.1686
     21 O           8.4954   -6.8320   28.4915 O.2     1  UNL1       -0.1686
     22 C           5.6841    0.6368   17.3603 C.3     1  UNL1        0.0853
     23 C           6.9305    0.7678   16.5361 C.3     1  UNL1        0.0096
     24 C           7.5223    2.1224   16.2814 C.3     1  UNL1        0.0005
     25 C           6.8677    3.3460   16.8509 C.3     1  UNL1        0.0005
     26 C           5.6213    3.2150   17.6751 C.3     1  UNL1        0.0096
     27 C           5.0295    1.8604   17.9298 C.3     1  UNL1        0.0851
     28 C           3.7831    1.7294   18.7540 C.2     1  UNL1        0.2231
     29 O           3.7093    2.3688   20.1089 O.2     1  UNL1       -0.2751
     30 N           2.6105    0.9590   18.2233 N.am    1  UNL1       -0.2959
     31 H           2.6590    0.5394   17.3340 H       1  UNL1        0.1502
     32 C           1.3642    0.8280   19.0475 C.3     1  UNL1        0.1364
     33 C           0.3915    0.2944   20.0571 C.3     1  UNL1        0.0353
     34 C           1.7195   -0.3766   19.8675 C.3     1  UNL1        0.0353
     35 C           0.5758    1.9872   18.5137 C.1     1  UNL1        0.0896
     36 N          -0.2125    3.1463   17.9800 N.1     1  UNL1       -0.1943
@<TRIPOS>BOND
     1    18    19    1
     2    19    20    2
     3    19    21    2
     4    19     9    1
     5     9    10   ar
     6    10    11   ar
     7    11    12   ar
     8    12    13   ar
     9    13    14   ar
    10    14     1    1
    11     1     2    1
    12     2     3    1
    13     3     4    1
    14     4     5   am
    15     5     6    2
    16    22     5    1
    17    22    23    1
    18    23    24    1
    19    24    25    1
    20    25    26    1
    21    26    27    1
    22    27    28    1
    23    28    29    2
    24    28    30   am
    25    30    32    1
    26    32    35    1
    27    35    36    3
    28    32    33    1
    29    33    34    1
    30     4     7    1
    31     7     8    1
    32    14    15   ar
    33    15    16   ar
    34    16    17   ar
    35    17     9   ar
    36    16    12   ar
    37     8     1    1
    38    27    22    1
    39    34    32    1
    40    30    31    1
@<TRIPOS>MOLECULE
*****
 36 40 0 0 0
SMALL
GASTEIGER

@<TRIPOS>ATOM
      1 N           4.9201   -0.5339   26.3908 N.pl3   1  UNL1       -0.2846
      2 C           3.5370   -0.4756   25.8131 C.3     1  UNL1        0.1141
      3 C           3.3434   -0.1487   24.3621 C.3     1  UNL1        0.1149
      4 N           4.5330    0.1201   23.4887 N.am    1  UNL1       -0.2760
      5 C           4.3395    0.4470   22.0376 C.2     1  UNL1        0.2257
      6 O           5.5290    0.7158   21.1642 O.2     1  UNL1       -0.2749
      7 C           5.9160    0.0618   24.0664 C.3     1  UNL1        0.1149
      8 C           6.1096   -0.2652   25.5175 C.3     1  UNL1        0.1141
      9 C           5.3385   -1.3305   32.7779 C.ar    1  UNL1        0.1063
     10 C           6.1546   -2.5305   32.3986 C.ar    1  UNL1        0.0199
     11 C           6.3950   -2.8474   30.9523 C.ar    1  UNL1        0.0210
     12 C           5.8194   -1.9642   29.8853 C.ar    1  UNL1        0.0893
     13 N           5.8875   -2.0240   28.3880 N.ar    1  UNL1       -0.2241
     14 C           5.1136   -0.8609   27.8419 C.ar    1  UNL1        0.1631
     15 S           4.5671   -0.0822   29.0017 S.2     1  UNL1       -0.0515
     16 C           5.0034   -0.7641   30.2646 C.ar    1  UNL1        0.0510
     17 C           4.7629   -0.4473   31.7109 C.ar    1  UNL1        0.0264
     18 C           4.8576   -0.6968   35.6705 C.3     1  UNL1        0.1816
     19 S           5.0981   -1.0137   34.2242 S.O2    1  UNL1        0.0105
     20 O           3.9136   -1.9339   34.2289 O.2     1  UNL1       -0.1686
     21 O           6.2826   -0.0934   34.2195 O.2     1  UNL1       -0.1686
     22 C           2.9564    0.5053   21.4599 C.3     1  UNL1        0.0853
     23 C           2.0961    1.7117   21.6937 C.3     1  UNL1        0.0096
     24 C           0.7131    1.7700   21.1160 C.3     1  UNL1        0.0005
     25 C           0.1903    0.6218   20.3045 C.3     1  UNL1        0.0005
     26 C           1.0505   -0.5845   20.0707 C.3     1  UNL1        0.0096
     27 C           2.4336   -0.6427   20.6484 C.3     1  UNL1        0.0851
     28 C           3.2938   -1.8491   20.4146 C.2     1  UNL1        0.2231
     29 O           3.9633   -2.5286   21.5722 O.2     1  UNL1       -0.2751
     30 N           3.4846   -2.3759   19.0231 N.am    1  UNL1       -0.2959
     31 H           3.0452   -1.9300   18.2633 H       1  UNL1        0.1502
     32 C           4.3449   -3.5823   18.7893 C.3     1  UNL1        0.1364
     33 C           4.7819   -5.0168   18.7560 C.3     1  UNL1        0.0353
     34 C           3.4250   -4.6583   19.2853 C.3     1  UNL1        0.0353
     35 C           5.5636   -2.9253   18.2121 C.1     1  UNL1        0.0896
     36 N           6.7823   -2.2683   17.6349 N.1     1  UNL1       -0.1943
@<TRIPOS>BOND
     1    18    19    1
     2    19    20    2
     3    19    21    2
     4    19     9    1
     5     9    10   ar
     6    10    11   ar
     7    11    12   ar
     8    12    13   ar
     9    13    14   ar
    10    14     1    1
    11     1     2    1
    12     2     3    1
    13     3     4    1
    14     4     5   am
    15     5     6    2
    16    22     5    1
    17    22    23    1
    18    23    24    1
    19    24    25    1
    20    25    26    1
    21    26    27    1
    22    27    28    1
    23    28    29    2
    24    28    30   am
    25    30    32    1
    26    32    35    1
    27    35    36    3
    28    32    33    1
    29    33    34    1
    30     4     7    1
    31     7     8    1
    32    14    15   ar
    33    15    16   ar
    34    16    17   ar
    35    17     9   ar
    36    16    12   ar
    37     8     1    1
    38    27    22    1
    39    34    32    1
    40    30    31    1
@<TRIPOS>MOLECULE
*****
 36 40 0 0 0
SMALL
GASTEIGER

@<TRIPOS>ATOM
      1 N           6.1727   -2.9028   21.0810 N.pl3   1  UNL1       -0.2846
      2 C           6.7183   -1.5223   20.8655 C.3     1  UNL1        0.1141
      3 C           6.3297   -0.7446   19.6432 C.3     1  UNL1        0.1149
      4 N           5.3956   -1.3475   18.6362 N.am    1  UNL1       -0.2760
      5 C           5.0070   -0.5698   17.4138 C.2     1  UNL1        0.2257
      6 O           4.0729   -1.1727   16.4069 O.2     1  UNL1       -0.2749
      7 C           4.8501   -2.7281   18.8517 C.3     1  UNL1        0.1149
      8 C           5.2386   -3.5057   20.0741 C.3     1  UNL1        0.1141
      9 C           7.4839   -5.7197   26.7334 C.ar    1  UNL1        0.1063
     10 C           8.1810   -6.7287   25.8699 C.ar    1  UNL1        0.0199
     11 C           8.1931   -6.5598   24.3794 C.ar    1  UNL1        0.0210
     12 C           7.5080   -5.3818   23.7526 C.ar    1  UNL1        0.0893
     13 N           7.3538   -4.9540   22.3232 N.ar    1  UNL1       -0.2241
     14 C           6.5613   -3.6805   22.3034 C.ar    1  UNL1        0.1631
     15 S           6.2258   -3.3213   23.7205 S.2     1  UNL1       -0.0515
     16 C           6.8108   -4.3728   24.6162 C.ar    1  UNL1        0.0510
     17 C           6.7988   -4.5417   26.1066 C.ar    1  UNL1        0.0264
     18 C           7.4599   -6.0576   29.7143 C.3     1  UNL1        0.1816
     19 S           7.4719   -5.8887   28.2238 S.O2    1  UNL1        0.0105
     20 O           6.0915   -5.3042   28.2790 O.2     1  UNL1       -0.1686
     21 O           8.8522   -6.4731   28.1687 O.2     1  UNL1       -0.1686
     22 C           5.5526    0.8107   17.1984 C.3     1  UNL1        0.0853
     23 C           6.7399    1.0170   16.3051 C.3     1  UNL1        0.0096
     24 C           7.2854    2.3976   16.0897 C.3     1  UNL1        0.0005
     25 C           6.6437    3.5719   16.7675 C.3     1  UNL1        0.0005
     26 C           5.4564    3.3655   17.6606 C.3     1  UNL1        0.0096
     27 C           4.9109    1.9850   17.8761 C.3     1  UNL1        0.0851
     28 C           3.7236    1.7786   18.7693 C.2     1  UNL1        0.2231
     29 O           2.3810    1.4741   18.1738 O.2     1  UNL1       -0.2751
     30 N           3.8790    1.8768   20.2580 N.am    1  UNL1       -0.2959
     31 H           4.7602    2.0766   20.6489 H       1  UNL1        0.1502
     32 C           2.6917    1.6705   21.1512 C.3     1  UNL1        0.1364
     33 C           1.4473    1.9699   21.9333 C.3     1  UNL1        0.0353
     34 C           2.1148    3.0550   21.1416 C.3     1  UNL1        0.0353
     35 C           2.8563    0.2142   21.4711 C.1     1  UNL1        0.0896
     36 N           3.0208   -1.2420   21.7910 N.1     1  UNL1       -0.1943
@<TRIPOS>BOND
     1    18    19    1
     2    19    20    2
     3    19    21    2
     4    19     9    1
     5     9    10   ar
     6    10    11   ar
     7    11    12   ar
     8    12    13   ar
     9    13    14   ar
    10    14     1    1
    11     1     2    1
    12     2     3    1
    13     3     4    1
    14     4     5   am
    15     5     6    2
    16    22     5    1
    17    22    23    1
    18    23    24    1
    19    24    25    1
    20    25    26    1
    21    26    27    1
    22    27    28    1
    23    28    29    2
    24    28    30   am
    25    30    32    1
    26    32    35    1
    27    35    36    3
    28    32    33    1
    29    33    34    1
    30     4     7    1
    31     7     8    1
    32    14    15   ar
    33    15    16   ar
    34    16    17   ar
    35    17     9   ar
    36    16    12   ar
    37     8     1    1
    38    27    22    1
    39    34    32    1
    40    30    31    1
@<TRIPOS>MOLECULE
*****
 36 40 0 0 0
SMALL
GASTEIGER

@<TRIPOS>ATOM
      1 N           6.9456   -2.8344   22.8307 N.pl3   1  UNL1       -0.2846
      2 C           7.0014   -1.3580   22.5721 C.3     1  UNL1        0.1141
      3 C           7.0264   -0.8437   21.1633 C.3     1  UNL1        0.1149
      4 N           6.9956   -1.8059   20.0130 N.am    1  UNL1       -0.2760
      5 C           7.0206   -1.2917   18.6041 C.2     1  UNL1        0.2257
      6 O           6.9899   -2.2539   17.4538 O.2     1  UNL1       -0.2749
      7 C           6.9399   -3.2824   20.2716 C.3     1  UNL1        0.1149
      8 C           6.9149   -3.7967   21.6804 C.3     1  UNL1        0.1141
      9 C           6.7959   -4.3272   29.1039 C.ar    1  UNL1        0.1063
     10 C           6.8818   -5.7344   28.5918 C.ar    1  UNL1        0.0199
     11 C           6.9464   -5.9927   27.1156 C.ar    1  UNL1        0.0210
     12 C           6.9251   -4.8437   26.1516 C.ar    1  UNL1        0.0893
     13 N           6.9754   -4.7895   24.6534 N.ar    1  UNL1       -0.2241
     14 C           6.9206   -3.3487   24.2396 C.ar    1  UNL1        0.1631
     15 S           6.8364   -2.5125   25.4820 S.2     1  UNL1       -0.0515
     16 C           6.8392   -3.4365   26.6637 C.ar    1  UNL1        0.0510
     17 C           6.7746   -3.1782   28.1399 C.ar    1  UNL1        0.0264
     18 C           6.6667   -3.8107   32.0563 C.3     1  UNL1        0.1816
     19 S           6.7313   -4.0689   30.5801 S.O2    1  UNL1        0.0105
     20 O           6.6221   -2.5961   30.3177 O.2     1  UNL1       -0.1686
     21 O           6.8405   -5.5417   30.8426 O.2     1  UNL1       -0.1686
     22 C           7.0764    0.1848   18.3455 C.3     1  UNL1        0.0853
     23 C           8.4018    0.8681   18.1825 C.3     1  UNL1        0.0096
     24 C           8.4575    2.3446   17.9239 C.3     1  UNL1        0.0005
     25 C           7.1879    3.1378   17.8283 C.3     1  UNL1        0.0005
     26 C           5.8626    2.4544   17.9913 C.3     1  UNL1        0.0096
     27 C           5.8069    0.9780   18.2499 C.3     1  UNL1        0.0851
     28 C           4.4816    0.2946   18.4130 C.2     1  UNL1        0.2231
     29 O           3.7279   -0.1781   17.2053 O.2     1  UNL1       -0.2751
     30 N           3.9099    0.0840   19.7837 N.am    1  UNL1       -0.2959
     31 H           4.4046    0.3943   20.5764 H       1  UNL1        0.1502
     32 C           2.5846   -0.5993   19.9468 C.3     1  UNL1        0.1364
     33 C           1.1126   -0.7861   20.1664 C.3     1  UNL1        0.0353
     34 C           1.7018    0.5933   20.1663 C.3     1  UNL1        0.0353
     35 C           3.0071   -2.0294   19.7839 C.1     1  UNL1        0.0896
     36 N           3.4295   -3.4594   19.6210 N.1     1  UNL1       -0.1943
@<TRIPOS>BOND
     1    18    19    1
     2    19    20    2
     3    19    21    2
     4    19     9    1
     5     9    10   ar
     6    10    11   ar
     7    11    12   ar
     8    12    13   ar
     9    13    14   ar
    10    14     1    1
    11     1     2    1
    12     2     3    1
    13     3     4    1
    14     4     5   am
    15     5     6    2
    16    22     5    1
    17    22    23    1
    18    23    24    1
    19    24    25    1
    20    25    26    1
    21    26    27    1
    22    27    28    1
    23    28    29    2
    24    28    30   am
    25    30    32    1
    26    32    35    1
    27    35    36    3
    28    32    33    1
    29    33    34    1
    30     4     7    1
    31     7     8    1
    32    14    15   ar
    33    15    16   ar
    34    16    17   ar
    35    17     9   ar
    36    16    12   ar
    37     8     1    1
    38    27    22    1
    39    34    32    1
    40    30    31    1
@<TRIPOS>MOLECULE
*****
 36 40 0 0 0
SMALL
GASTEIGER

@<TRIPOS>ATOM
      1 N           0.0184    2.4867   21.3486 N.pl3   1  UNL1       -0.2846
      2 C           0.6423    2.4709   19.9846 C.3     1  UNL1        0.1141
      3 C           2.0576    2.0047   19.8127 C.3     1  UNL1        0.1149
      4 N           2.8489    1.5544   21.0048 N.am    1  UNL1       -0.2760
      5 C           4.2643    1.0882   20.8329 C.2     1  UNL1        0.2257
      6 O           5.0556    0.6379   22.0249 O.2     1  UNL1       -0.2749
      7 C           2.2250    1.5702   22.3687 C.3     1  UNL1        0.1149
      8 C           0.8097    2.0364   22.5406 C.3     1  UNL1        0.1141
      9 C          -5.8594    4.7322   22.7679 C.ar    1  UNL1        0.1063
     10 C          -6.1935    4.2230   21.3972 C.ar    1  UNL1        0.0199
     11 C          -5.1349    3.5647   20.5629 C.ar    1  UNL1        0.0210
     12 C          -3.7421    3.4156   21.0995 C.ar    1  UNL1        0.0893
     13 N          -2.4993    2.8149   20.5125 N.ar    1  UNL1       -0.2241
     14 C          -1.3970    2.9529   21.5205 C.ar    1  UNL1        0.1631
     15 S          -1.9586    3.6388   22.7305 S.2     1  UNL1       -0.0515
     16 C          -3.4080    3.9248   22.4703 C.ar    1  UNL1        0.0510
     17 C          -4.4666    4.5831   23.3045 C.ar    1  UNL1        0.0264
     18 C          -7.9767    6.0488   24.4364 C.3     1  UNL1        0.1816
     19 S          -6.9180    5.3905   23.6022 S.O2    1  UNL1        0.0105
     20 O          -7.8698    5.3268   22.4446 O.2     1  UNL1       -0.1686
     21 O          -5.9662    5.4542   24.7597 O.2     1  UNL1       -0.1686
     22 C           4.8883    1.0724   19.4689 C.3     1  UNL1        0.0853
     23 C           5.5447    2.3089   18.9300 C.3     1  UNL1        0.0096
     24 C           6.1687    2.2931   17.5661 C.3     1  UNL1        0.0005
     25 C           6.1363    1.0407   16.7410 C.3     1  UNL1        0.0005
     26 C           5.4799   -0.1957   17.2799 C.3     1  UNL1        0.0096
     27 C           4.8559   -0.1798   18.6438 C.3     1  UNL1        0.0851
     28 C           4.1996   -1.4162   19.1827 C.2     1  UNL1        0.2231
     29 O           2.7123   -1.4532   19.3740 O.2     1  UNL1       -0.2751
     30 N           5.0305   -2.6158   19.5303 N.am    1  UNL1       -0.2959
     31 H           6.0066   -2.5915   19.4048 H       1  UNL1        0.1502
     32 C           4.3741   -3.8522   20.0692 C.3     1  UNL1        0.1364
     33 C           3.6969   -5.1903   20.0976 C.3     1  UNL1        0.0353
     34 C           4.0862   -4.5745   18.7865 C.3     1  UNL1        0.0353
     35 C           4.4340   -3.5594   21.5392 C.1     1  UNL1        0.0896
     36 N           4.4938   -3.2665   23.0091 N.1     1  UNL1       -0.1943
@<TRIPOS>BOND
     1    18    19    1
     2    19    20    2
     3    19    21    2
     4    19     9    1
     5     9    10   ar
     6    10    11   ar
     7    11    12   ar
     8    12    13   ar
     9    13    14   ar
    10    14     1    1
    11     1     2    1
    12     2     3    1
    13     3     4    1
    14     4     5   am
    15     5     6    2
    16    22     5    1
    17    22    23    1
    18    23    24    1
    19    24    25    1
    20    25    26    1
    21    26    27    1
    22    27    28    1
    23    28    29    2
    24    28    30   am
    25    30    32    1
    26    32    35    1
    27    35    36    3
    28    32    33    1
    29    33    34    1
    30     4     7    1
    31     7     8    1
    32    14    15   ar
    33    15    16   ar
    34    16    17   ar
    35    17     9   ar
    36    16    12   ar
    37     8     1    1
    38    27    22    1
    39    34    32    1
    40    30    31    1
@<TRIPOS>MOLECULE
*****
 36 40 0 0 0
SMALL
GASTEIGER

@<TRIPOS>ATOM
      1 N           1.1414    1.6807   21.4708 N.pl3   1  UNL1       -0.2846
      2 C           2.5850    2.0864   21.4326 C.3     1  UNL1        0.1141
      3 C           3.4519    1.6659   20.2830 C.3     1  UNL1        0.1149
      4 N           2.8753    0.8399   19.1717 N.am    1  UNL1       -0.2760
      5 C           3.7422    0.4194   18.0220 C.2     1  UNL1        0.2257
      6 O           3.1656   -0.4067   16.9107 O.2     1  UNL1       -0.2749
      7 C           1.4317    0.4342   19.2100 C.3     1  UNL1        0.1149
      8 C           0.5647    0.8547   20.3595 C.3     1  UNL1        0.1141
      9 C          -2.9980    3.8635   25.9099 C.ar    1  UNL1        0.1063
     10 C          -2.1243    3.0894   26.8519 C.ar    1  UNL1        0.0199
     11 C          -0.9367    2.3382   26.3272 C.ar    1  UNL1        0.0210
     12 C          -0.6227    2.3611   24.8607 C.ar    1  UNL1        0.0893
     13 N           0.4717    1.7220   24.0583 N.ar    1  UNL1       -0.2241
     14 C           0.2744    2.1012   22.6205 C.ar    1  UNL1        0.1631
     15 S          -0.9420    2.9746   22.5342 S.2     1  UNL1       -0.0515
     16 C          -1.4964    3.1353   23.9187 C.ar    1  UNL1        0.0510
     17 C          -2.6841    3.8865   24.4434 C.ar    1  UNL1        0.0264
     18 C          -5.3732    5.3659   26.9592 C.3     1  UNL1        0.1816
     19 S          -4.1856    4.6147   26.4346 S.O2    1  UNL1        0.0105
     20 O          -5.1008    3.6848   25.6945 O.2     1  UNL1       -0.1686
     21 O          -3.2705    5.5446   27.1747 O.2     1  UNL1       -0.1686
     22 C           5.1858    0.8250   17.9837 C.3     1  UNL1        0.0853
     23 C           5.5564    2.2552   17.7241 C.3     1  UNL1        0.0096
     24 C           7.0000    2.6608   17.6858 C.3     1  UNL1        0.0005
     25 C           8.0731    1.6363   17.9072 C.3     1  UNL1        0.0005
     26 C           7.7025    0.2062   18.1668 C.3     1  UNL1        0.0096
     27 C           6.2589   -0.1995   18.2051 C.3     1  UNL1        0.0851
     28 C           5.8883   -1.6295   18.4647 C.2     1  UNL1        0.2231
     29 O           6.2912   -2.6973   17.4914 O.2     1  UNL1       -0.2751
     30 N           5.1147   -1.9919   19.6978 N.am    1  UNL1       -0.2959
     31 H           4.8502   -1.2911   20.3367 H       1  UNL1        0.1502
     32 C           4.7441   -3.4220   19.9574 C.3     1  UNL1        0.1364
     33 C           3.9485   -4.6936   19.9610 C.3     1  UNL1        0.0353
     34 C           3.3915   -3.4622   19.3103 C.3     1  UNL1        0.0353
     35 C           5.9681   -3.8786   20.6947 C.1     1  UNL1        0.0896
     36 N           7.1919   -4.3351   21.4320 N.1     1  UNL1       -0.1943
@<TRIPOS>BOND
     1    18    19    1
     2    19    20    2
     3    19    21    2
     4    19     9    1
     5     9    10   ar
     6    10    11   ar
     7    11    12   ar
     8    12    13   ar
     9    13    14   ar
    10    14     1    1
    11     1     2    1
    12     2     3    1
    13     3     4    1
    14     4     5   am
    15     5     6    2
    16    22     5    1
    17    22    23    1
    18    23    24    1
    19    24    25    1
    20    25    26    1
    21    26    27    1
    22    27    28    1
    23    28    29    2
    24    28    30   am
    25    30    32    1
    26    32    35    1
    27    35    36    3
    28    32    33    1
    29    33    34    1
    30     4     7    1
    31     7     8    1
    32    14    15   ar
    33    15    16   ar
    34    16    17   ar
    35    17     9   ar
    36    16    12   ar
    37     8     1    1
    38    27    22    1
    39    34    32    1
    40    30    31    1
@<TRIPOS>MOLECULE
*****
 36 40 0 0 0
SMALL
GASTEIGER

@<TRIPOS>ATOM
      1 N           1.4162    1.6929   23.5474 N.pl3   1  UNL1       -0.2846
      2 C           2.5233    2.5160   22.9584 C.3     1  UNL1        0.1141
      3 C           2.6717    2.6177   21.4693 C.3     1  UNL1        0.1149
      4 N           1.7129    1.8963   20.5691 N.am    1  UNL1       -0.2760
      5 C           1.8612    1.9980   19.0799 C.2     1  UNL1        0.2257
      6 O           0.9024    1.2767   18.1797 O.2     1  UNL1       -0.2749
      7 C           0.6057    1.0733   21.1581 C.3     1  UNL1        0.1149
      8 C           0.4574    0.9716   22.6472 C.3     1  UNL1        0.1141
      9 C           1.5234    1.3441   29.9872 C.ar    1  UNL1        0.1063
     10 C           0.0418    1.1731   29.8279 C.ar    1  UNL1        0.0199
     11 C          -0.5706    1.1756   28.4586 C.ar    1  UNL1        0.0210
     12 C           0.2987    1.3492   27.2486 C.ar    1  UNL1        0.0893
     13 N          -0.0180    1.3931   25.7831 N.ar    1  UNL1       -0.2241
     14 C           1.2679    1.5912   25.0366 C.ar    1  UNL1        0.1631
     15 S           2.3794    1.6698   26.0408 S.2     1  UNL1       -0.0515
     16 C           1.7803    1.5202   27.4079 C.ar    1  UNL1        0.0510
     17 C           2.3927    1.5177   28.7772 C.ar    1  UNL1        0.0264
     18 C           2.7482    1.3390   32.7258 C.3     1  UNL1        0.1816
     19 S           2.1358    1.3416   31.3565 S.O2    1  UNL1        0.0105
     20 O           0.8022    1.6808   31.9536 O.2     1  UNL1       -0.1686
     21 O           3.4694    1.0023   30.7595 O.2     1  UNL1       -0.1686
     22 C           2.9683    2.8211   18.4909 C.3     1  UNL1        0.0853
     23 C           2.6882    4.2077   17.9919 C.3     1  UNL1        0.0096
     24 C           3.7953    5.0307   17.4029 C.3     1  UNL1        0.0005
     25 C           5.1826    4.4671   17.3130 C.3     1  UNL1        0.0005
     26 C           5.4626    3.0806   17.8120 C.3     1  UNL1        0.0096
     27 C           4.3555    2.2576   18.4010 C.3     1  UNL1        0.0851
     28 C           4.6356    0.8711   18.9001 C.2     1  UNL1        0.2231
     29 O           5.6073    0.6602   20.0231 O.2     1  UNL1       -0.2751
     30 N           3.9439   -0.3046   18.2760 N.am    1  UNL1       -0.2959
     31 H           3.3062   -0.1663   17.5389 H       1  UNL1        0.1502
     32 C           4.2240   -1.6912   18.7751 C.3     1  UNL1        0.1364
     33 C           4.0548   -2.9822   19.5198 C.3     1  UNL1        0.0353
     34 C           3.0276   -1.8976   19.6558 C.3     1  UNL1        0.0353
     35 C           5.5178   -1.9663   18.0676 C.1     1  UNL1        0.0896
     36 N           6.8115   -2.2415   17.3602 N.1     1  UNL1       -0.1943
@<TRIPOS>BOND
     1    18    19    1
     2    19    20    2
     3    19    21    2
     4    19     9    1
     5     9    10   ar
     6    10    11   ar
     7    11    12   ar
     8    12    13   ar
     9    13    14   ar
    10    14     1    1
    11     1     2    1
    12     2     3    1
    13     3     4    1
    14     4     5   am
    15     5     6    2
    16    22     5    1
    17    22    23    1
    18    23    24    1
    19    24    25    1
    20    25    26    1
    21    26    27    1
    22    27    28    1
    23    28    29    2
    24    28    30   am
    25    30    32    1
    26    32    35    1
    27    35    36    3
    28    32    33    1
    29    33    34    1
    30     4     7    1
    31     7     8    1
    32    14    15   ar
    33    15    16   ar
    34    16    17   ar
    35    17     9   ar
    36    16    12   ar
    37     8     1    1
    38    27    22    1
    39    34    32    1
    40    30    31    1
@<TRIPOS>MOLECULE
*****
 36 40 0 0 0
SMALL
GASTEIGER

@<TRIPOS>ATOM
      1 N           6.2331   -2.0877   25.8399 N.pl3   1  UNL1       -0.2846
      2 C           5.3201   -2.9263   24.9954 C.3     1  UNL1        0.1141
      3 C           5.3684   -2.8148   23.5003 C.3     1  UNL1        0.1149
      4 N           6.3296   -1.8647   22.8498 N.am    1  UNL1       -0.2760
      5 C           6.3780   -1.7531   21.3547 C.2     1  UNL1        0.2257
      6 O           7.3392   -0.8031   20.7042 O.2     1  UNL1       -0.2749
      7 C           7.2427   -1.0261   23.6943 C.3     1  UNL1        0.1149
      8 C           7.1944   -1.1377   25.1894 C.3     1  UNL1        0.1141
      9 C           5.5993   -1.9490   32.2573 C.ar    1  UNL1        0.1063
     10 C           6.4544   -3.1797   32.1931 C.ar    1  UNL1        0.0199
     11 C           6.9238   -3.6984   30.8662 C.ar    1  UNL1        0.0210
     12 C           6.5381   -2.9864   29.6036 C.ar    1  UNL1        0.0893
     13 N           6.8482   -3.2606   28.1618 N.ar    1  UNL1       -0.2241
     14 C           6.1848   -2.1993   27.3350 C.ar    1  UNL1        0.1631
     15 S           5.4646   -1.2692   28.2657 S.2     1  UNL1       -0.0515
     16 C           5.6830   -1.7557   29.6678 C.ar    1  UNL1        0.0510
     17 C           5.2136   -1.2370   30.9947 C.ar    1  UNL1        0.0264
     18 C           4.6606   -0.9115   34.9111 C.3     1  UNL1        0.1816
     19 S           5.1299   -1.4303   33.5842 S.O2    1  UNL1        0.0105
     20 O           3.9137   -2.3036   33.4954 O.2     1  UNL1       -0.1686
     21 O           6.3462   -0.5569   33.6730 O.2     1  UNL1       -0.1686
     22 C           5.4649   -2.5917   20.5102 C.3     1  UNL1        0.0853
     23 C           5.9386   -3.9110   19.9760 C.3     1  UNL1        0.0096
     24 C           5.0255   -4.7496   19.1315 C.3     1  UNL1        0.0005
     25 C           3.6389   -4.2688   18.8211 C.3     1  UNL1        0.0005
     26 C           3.1654   -2.9496   19.3553 C.3     1  UNL1        0.0096
     27 C           4.0784   -2.1111   20.1998 C.3     1  UNL1        0.0851
     28 C           3.6048   -0.7918   20.7340 C.2     1  UNL1        0.2231
     29 O           3.9975    0.4811   20.0444 O.2     1  UNL1       -0.2751
     30 N           2.7386   -0.7455   21.9577 N.am    1  UNL1       -0.2959
     31 H           2.4809   -1.5809   22.4103 H       1  UNL1        0.1502
     32 C           2.2650    0.5737   22.4919 C.3     1  UNL1        0.1364
     33 C           2.2219    1.8287   23.3124 C.3     1  UNL1        0.0353
     34 C           3.3399    0.8468   23.5018 C.3     1  UNL1        0.0353
     35 C           1.0256    0.7589   21.6675 C.1     1  UNL1        0.0896
     36 N          -0.2137    0.9440   20.8431 N.1     1  UNL1       -0.1943
@<TRIPOS>BOND
     1    18    19    1
     2    19    20    2
     3    19    21    2
     4    19     9    1
     5     9    10   ar
     6    10    11   ar
     7    11    12   ar
     8    12    13   ar
     9    13    14   ar
    10    14     1    1
    11     1     2    1
    12     2     3    1
    13     3     4    1
    14     4     5   am
    15     5     6    2
    16    22     5    1
    17    22    23    1
    18    23    24    1
    19    24    25    1
    20    25    26    1
    21    26    27    1
    22    27    28    1
    23    28    29    2
    24    28    30   am
    25    30    32    1
    26    32    35    1
    27    35    36    3
    28    32    33    1
    29    33    34    1
    30     4     7    1
    31     7     8    1
    32    14    15   ar
    33    15    16   ar
    34    16    17   ar
    35    17     9   ar
    36    16    12   ar
    37     8     1    1
    38    27    22    1
    39    34    32    1
    40    30    31    1
