@<TRIPOS>MOLECULE
*****
 29 32 0 0 0
SMALL
GASTEIGER

@<TRIPOS>ATOM
      1 C           6.7441   -3.7707   25.2688 C.2     1  UNL1        0.0020
      2 C           6.4317   -3.1432   26.5950 C.2     1  UNL1        0.0143
      3 C           6.7760   -3.8632   27.8651 C.3     1  UNL1        0.1659
      4 C           6.1194   -2.5157   27.9212 C.3     1  UNL1        0.0472
      5 C           5.8072   -1.8883   29.2473 C.3     1  UNL1        0.0211
      6 C           6.1514   -2.6083   30.5174 C.3     1  UNL1        0.0688
      7 N           6.8079   -3.9558   30.4613 N.3     1  UNL1       -0.2943
      8 C           7.1202   -4.5833   29.1351 C.3     1  UNL1        0.1134
      9 O           7.4326   -5.2108   27.8089 O.3     1  UNL1       -0.4772
     10 C           7.7448   -5.8382   26.4828 C.ar    1  UNL1        0.1386
     11 C           8.4014   -7.1858   26.4266 C.ar    1  UNL1        0.0369
     12 C           8.7137   -7.8132   25.1004 C.ar    1  UNL1        0.0031
     13 C           8.3694   -7.0932   23.8304 C.ar    1  UNL1        0.0002
     14 C           7.7129   -5.7457   23.8865 C.ar    1  UNL1        0.0030
     15 C           7.4006   -5.1182   25.2127 C.ar    1  UNL1        0.0338
     16 H           6.1944   -4.6032   30.9561 H       1  UNL1        0.1234
     17 C           5.7113   -1.6106   21.4587 C.ar    1  UNL1        0.0536
     18 C           4.6669   -2.4200   22.1687 C.ar    1  UNL1        0.0045
     19 C           5.0112   -3.1400   23.4387 C.ar    1  UNL1        0.0001
     20 C           6.3998   -3.0507   23.9988 C.ar    1  UNL1       -0.0001
     21 C           7.4443   -2.2413   23.2888 C.ar    1  UNL1        0.0001
     22 C           7.1000   -1.5212   22.0187 C.ar    1  UNL1        0.0045
     23 N           5.4300   -1.6135   18.8759 N.am    1  UNL1       -0.2761
     24 C           5.3671   -0.8905   20.1886 C.2     1  UNL1        0.2490
     25 O           4.9599    0.5526   20.2313 O.2     1  UNL1       -0.2699
     26 C           3.6575   -0.8093   17.1549 C.3     1  UNL1        0.0233
     27 C           5.0857   -0.8935   17.6058 C.3     1  UNL1        0.0938
     28 C           5.8371   -3.0566   18.8332 C.3     1  UNL1        0.0938
     29 C           4.7906   -4.1299   18.7812 C.3     1  UNL1        0.0233
@<TRIPOS>BOND
     1    26    27    1
     2    27    23    1
     3    23    28    1
     4    28    29    1
     5    23    24   am
     6    24    25    2
     7    24    17    1
     8    17    18   ar
     9    18    19   ar
    10    19    20   ar
    11    20     1    1
    12     1     2    2
    13     2     3    1
    14     3     4    1
    15     4     5    1
    16     5     6    1
    17     6     7    1
    18     7     8    1
    19     3     9    1
    20     9    10    1
    21    10    11   ar
    22    11    12   ar
    23    12    13   ar
    24    13    14   ar
    25    14    15   ar
    26    20    21   ar
    27    21    22   ar
    28    22    17   ar
    29    15     1    1
    30     8     3    1
    31    15    10   ar
    32     7    16    1
@<TRIPOS>MOLECULE
*****
 29 32 0 0 0
SMALL
GASTEIGER

@<TRIPOS>ATOM
      1 C           6.4403   -3.4708   25.3490 C.2     1  UNL1        0.0020
      2 C           6.9204   -4.8912   25.3942 C.2     1  UNL1        0.0143
      3 C           7.2038   -5.5455   26.7139 C.3     1  UNL1        0.1659
      4 C           7.4004   -6.3116   25.4394 C.3     1  UNL1        0.0472
      5 C           7.8805   -7.7319   25.4846 C.3     1  UNL1        0.0211
      6 C           8.1638   -8.3862   26.8043 C.3     1  UNL1        0.0688
      7 N           7.9672   -7.6201   28.0788 N.3     1  UNL1       -0.2943
      8 C           7.4871   -6.1998   28.0336 C.3     1  UNL1        0.1134
      9 O           7.0071   -4.7793   27.9884 O.3     1  UNL1       -0.4772
     10 C           6.5270   -3.3590   27.9432 C.ar    1  UNL1        0.1386
     11 C           6.3303   -2.5928   29.2178 C.ar    1  UNL1        0.0369
     12 C           5.8503   -1.1725   29.1726 C.ar    1  UNL1        0.0031
     13 C           5.5669   -0.5182   27.8529 C.ar    1  UNL1        0.0002
     14 C           5.7636   -1.2843   26.5784 C.ar    1  UNL1        0.0030
     15 C           6.2436   -2.7047   26.6235 C.ar    1  UNL1        0.0338
     16 H           8.8670   -7.6117   28.5591 H       1  UNL1        0.1234
     17 C           5.5902   -1.5079   21.3899 C.ar    1  UNL1        0.0536
     18 C           6.9838   -1.5049   21.9447 C.ar    1  UNL1        0.0045
     19 C           7.2672   -2.1592   23.2644 C.ar    1  UNL1        0.0001
     20 C           6.1569   -2.8165   24.0293 C.ar    1  UNL1       -0.0001
     21 C           4.7632   -2.8195   23.4746 C.ar    1  UNL1        0.0001
     22 C           4.4798   -2.1652   22.1549 C.ar    1  UNL1        0.0045
     23 N           5.3643   -1.6590   18.8061 N.am    1  UNL1       -0.2761
     24 C           5.3068   -0.8536   20.0702 C.2     1  UNL1        0.2490
     25 O           4.9659    0.6061   20.0147 O.2     1  UNL1       -0.2699
     26 C           3.6646   -0.8355   17.0220 C.3     1  UNL1        0.0233
     27 C           5.0809   -1.0047   17.4864 C.3     1  UNL1        0.0938
     28 C           5.7052   -3.1187   18.8617 C.3     1  UNL1        0.0938
     29 C           4.6110   -4.1447   18.8688 C.3     1  UNL1        0.0233
@<TRIPOS>BOND
     1    26    27    1
     2    27    23    1
     3    23    28    1
     4    28    29    1
     5    23    24   am
     6    24    25    2
     7    24    17    1
     8    17    18   ar
     9    18    19   ar
    10    19    20   ar
    11    20     1    1
    12     1     2    2
    13     2     3    1
    14     3     4    1
    15     4     5    1
    16     5     6    1
    17     6     7    1
    18     7     8    1
    19     3     9    1
    20     9    10    1
    21    10    11   ar
    22    11    12   ar
    23    12    13   ar
    24    13    14   ar
    25    14    15   ar
    26    20    21   ar
    27    21    22   ar
    28    22    17   ar
    29    15     1    1
    30     8     3    1
    31    15    10   ar
    32     7    16    1
@<TRIPOS>MOLECULE
*****
 29 32 0 0 0
SMALL
GASTEIGER

@<TRIPOS>ATOM
      1 C           6.5126   -3.8340   24.8640 C.2     1  UNL1        0.0020
      2 C           7.0513   -5.2025   25.1591 C.2     1  UNL1        0.0143
      3 C           7.2609   -5.6357   26.5798 C.3     1  UNL1        0.1659
      4 C           7.5900   -6.5709   25.4543 C.3     1  UNL1        0.0472
      5 C           8.1287   -7.9394   25.7494 C.3     1  UNL1        0.0211
      6 C           8.3382   -8.3726   27.1701 C.3     1  UNL1        0.0688
      7 N           8.0090   -7.4373   28.2957 N.3     1  UNL1       -0.2943
      8 C           7.4704   -6.0689   28.0005 C.3     1  UNL1        0.1134
      9 O           6.9317   -4.7003   27.7054 O.3     1  UNL1       -0.4772
     10 C           6.3930   -3.3319   27.4102 C.ar    1  UNL1        0.1386
     11 C           6.0638   -2.3966   28.5358 C.ar    1  UNL1        0.0369
     12 C           5.5252   -1.0281   28.2407 C.ar    1  UNL1        0.0031
     13 C           5.3157   -0.5949   26.8199 C.ar    1  UNL1        0.0002
     14 C           5.6448   -1.5302   25.6944 C.ar    1  UNL1        0.0030
     15 C           6.1835   -2.8987   25.9895 C.ar    1  UNL1        0.0338
     16 H           8.8676   -7.3067   28.8307 H       1  UNL1        0.1234
     17 C           5.8841   -2.5344   20.6018 C.ar    1  UNL1        0.0536
     18 C           7.1948   -2.2693   21.2812 C.ar    1  UNL1        0.0045
     19 C           7.4043   -2.7024   22.7019 C.ar    1  UNL1        0.0001
     20 C           6.3031   -3.4008   23.4432 C.ar    1  UNL1       -0.0001
     21 C           4.9923   -3.6660   22.7638 C.ar    1  UNL1        0.0001
     22 C           4.7828   -3.2328   21.3431 C.ar    1  UNL1        0.0045
     23 N           5.1240   -0.7374   18.8862 N.am    1  UNL1       -0.2761
     24 C           5.6745   -2.1012   19.1811 C.2     1  UNL1        0.2490
     25 O           6.0155   -3.0319   18.0552 O.2     1  UNL1       -0.2699
     26 C           3.7160   -0.7866   16.7033 C.3     1  UNL1        0.0233
     27 C           4.9145   -0.3042   17.4655 C.3     1  UNL1        0.0938
     28 C           4.7830    0.1933   20.0122 C.3     1  UNL1        0.0938
     29 C           3.3786    0.2548   20.5352 C.3     1  UNL1        0.0233
@<TRIPOS>BOND
     1    26    27    1
     2    27    23    1
     3    23    28    1
     4    28    29    1
     5    23    24   am
     6    24    25    2
     7    24    17    1
     8    17    18   ar
     9    18    19   ar
    10    19    20   ar
    11    20     1    1
    12     1     2    2
    13     2     3    1
    14     3     4    1
    15     4     5    1
    16     5     6    1
    17     6     7    1
    18     7     8    1
    19     3     9    1
    20     9    10    1
    21    10    11   ar
    22    11    12   ar
    23    12    13   ar
    24    13    14   ar
    25    14    15   ar
    26    20    21   ar
    27    21    22   ar
    28    22    17   ar
    29    15     1    1
    30     8     3    1
    31    15    10   ar
    32     7    16    1
@<TRIPOS>MOLECULE
*****
 29 32 0 0 0
SMALL
GASTEIGER

@<TRIPOS>ATOM
      1 C           3.2794   -1.1254   22.0784 C.2     1  UNL1        0.0020
      2 C           3.6607   -1.2043   23.5270 C.2     1  UNL1        0.0143
      3 C           4.7163   -2.1721   23.9730 C.3     1  UNL1        0.1659
      4 C           4.0420   -1.2832   24.9756 C.3     1  UNL1        0.0472
      5 C           4.4233   -1.3621   26.4241 C.3     1  UNL1        0.0211
      6 C           5.4790   -2.3300   26.8701 C.3     1  UNL1        0.0688
      7 N           6.1533   -3.2189   25.8676 N.3     1  UNL1       -0.2943
      8 C           5.7720   -3.1399   24.4191 C.3     1  UNL1        0.1134
      9 O           5.3907   -3.0611   22.9704 O.3     1  UNL1       -0.4772
     10 C           5.0094   -2.9822   21.5219 C.ar    1  UNL1        0.1386
     11 C           5.6837   -3.8711   20.5193 C.ar    1  UNL1        0.0369
     12 C           5.3024   -3.7922   19.0707 C.ar    1  UNL1        0.0031
     13 C           4.2468   -2.8244   18.6247 C.ar    1  UNL1        0.0002
     14 C           3.5724   -1.9355   19.6272 C.ar    1  UNL1        0.0030
     15 C           3.9537   -2.0143   21.0759 C.ar    1  UNL1        0.0338
     16 H           5.9836   -4.1797   26.1649 H       1  UNL1        0.1234
     17 C           0.1124    1.7780   20.7403 C.ar    1  UNL1        0.0536
     18 C           1.1786    2.2200   21.6983 C.ar    1  UNL1        0.0045
     19 C           2.2343    1.2522   22.1443 C.ar    1  UNL1        0.0001
     20 C           2.2237   -0.1576   21.6323 C.ar    1  UNL1       -0.0001
     21 C           1.1575   -0.5997   20.6743 C.ar    1  UNL1        0.0001
     22 C           0.1019    0.3681   20.2283 C.ar    1  UNL1        0.0045
     23 N          -0.7446    3.5480   19.0425 N.am    1  UNL1       -0.2761
     24 C          -0.9432    2.7458   20.2942 C.2     1  UNL1        0.2490
     25 O          -2.1976    2.9114   21.1001 O.2     1  UNL1       -0.2699
     26 C          -2.8428    4.0853   17.6075 C.3     1  UNL1        0.0233
     27 C          -1.8002    4.5158   18.5964 C.3     1  UNL1        0.0938
     28 C           0.5098    3.3824   18.2366 C.3     1  UNL1        0.0938
     29 C           1.6518    4.3370   18.4221 C.3     1  UNL1        0.0233
@<TRIPOS>BOND
     1    26    27    1
     2    27    23    1
     3    23    28    1
     4    28    29    1
     5    23    24   am
     6    24    25    2
     7    24    17    1
     8    17    18   ar
     9    18    19   ar
    10    19    20   ar
    11    20     1    1
    12     1     2    2
    13     2     3    1
    14     3     4    1
    15     4     5    1
    16     5     6    1
    17     6     7    1
    18     7     8    1
    19     3     9    1
    20     9    10    1
    21    10    11   ar
    22    11    12   ar
    23    12    13   ar
    24    13    14   ar
    25    14    15   ar
    26    20    21   ar
    27    21    22   ar
    28    22    17   ar
    29    15     1    1
    30     8     3    1
    31    15    10   ar
    32     7    16    1
@<TRIPOS>MOLECULE
*****
 29 32 0 0 0
SMALL
GASTEIGER

@<TRIPOS>ATOM
      1 C          -1.6582    3.1514   26.1574 C.2     1  UNL1        0.0020
      2 C          -2.9347    3.8817   26.4530 C.2     1  UNL1        0.0143
      3 C          -3.7548    4.4433   25.3297 C.3     1  UNL1        0.1659
      4 C          -4.2111    4.6120   26.7486 C.3     1  UNL1        0.0472
      5 C          -5.4875    5.3423   27.0441 C.3     1  UNL1        0.0211
      6 C          -6.3076    5.9039   25.9207 C.3     1  UNL1        0.0688
      7 N          -5.8514    5.7352   24.5018 N.3     1  UNL1       -0.2943
      8 C          -4.5750    5.0049   24.2063 C.3     1  UNL1        0.1134
      9 O          -3.2985    4.2745   23.9107 O.3     1  UNL1       -0.4772
     10 C          -2.0221    3.5442   23.6152 C.ar    1  UNL1        0.1386
     11 C          -1.5657    3.3755   22.1962 C.ar    1  UNL1        0.0369
     12 C          -0.2893    2.6452   21.9007 C.ar    1  UNL1        0.0031
     13 C           0.5308    2.0836   23.0240 C.ar    1  UNL1        0.0002
     14 C           0.0746    2.2523   24.4429 C.ar    1  UNL1        0.0030
     15 C          -1.2019    2.9827   24.7385 C.ar    1  UNL1        0.0338
     16 H          -5.7518    6.6721   24.1112 H       1  UNL1        0.1234
     17 C           0.8023    1.4666   29.5275 C.ar    1  UNL1        0.0536
     18 C           1.1490    2.8029   28.9410 C.ar    1  UNL1        0.0045
     19 C           0.3288    3.3645   27.8177 C.ar    1  UNL1        0.0001
     20 C          -0.8380    2.5898   27.2808 C.ar    1  UNL1       -0.0001
     21 C          -1.1847    1.2534   27.8673 C.ar    1  UNL1        0.0001
     22 C          -0.3646    0.6918   28.9907 C.ar    1  UNL1        0.0045
     23 N           2.6412   -0.1610   30.3757 N.am    1  UNL1       -0.2761
     24 C           1.6225    0.9050   30.6509 C.2     1  UNL1        0.2490
     25 O           1.4239    1.4095   32.0496 O.2     1  UNL1       -0.2699
     26 C           4.6532    0.0328   32.0080 C.3     1  UNL1        0.0233
     27 C           3.4613   -0.7226   31.4991 C.3     1  UNL1        0.0938
     28 C           2.8398   -0.6655   28.9771 C.3     1  UNL1        0.0938
     29 C           3.7927    0.0358   28.0550 C.3     1  UNL1        0.0233
@<TRIPOS>BOND
     1    26    27    1
     2    27    23    1
     3    23    28    1
     4    28    29    1
     5    23    24   am
     6    24    25    2
     7    24    17    1
     8    17    18   ar
     9    18    19   ar
    10    19    20   ar
    11    20     1    1
    12     1     2    2
    13     2     3    1
    14     3     4    1
    15     4     5    1
    16     5     6    1
    17     6     7    1
    18     7     8    1
    19     3     9    1
    20     9    10    1
    21    10    11   ar
    22    11    12   ar
    23    12    13   ar
    24    13    14   ar
    25    14    15   ar
    26    20    21   ar
    27    21    22   ar
    28    22    17   ar
    29    15     1    1
    30     8     3    1
    31    15    10   ar
    32     7    16    1
@<TRIPOS>MOLECULE
*****
 29 32 0 0 0
SMALL
GASTEIGER

@<TRIPOS>ATOM
      1 C           2.1155    0.2718   22.4716 C.2     1  UNL1        0.0020
      2 C           2.9489   -0.9585   22.2669 C.2     1  UNL1        0.0143
      3 C           3.1963   -1.4747   20.8804 C.3     1  UNL1        0.1659
      4 C           3.7824   -2.1887   22.0622 C.3     1  UNL1        0.0472
      5 C           4.6158   -3.4189   21.8575 C.3     1  UNL1        0.0211
      6 C           4.8631   -3.9352   20.4711 C.3     1  UNL1        0.0688
      7 N           4.2770   -3.2212   19.2893 N.3     1  UNL1       -0.2943
      8 C           3.4436   -1.9910   19.4940 C.3     1  UNL1        0.1134
      9 O           2.6101   -0.7607   19.6986 O.3     1  UNL1       -0.4772
     10 C           1.7767    0.4695   19.9033 C.ar    1  UNL1        0.1386
     11 C           1.1906    1.1836   18.7214 C.ar    1  UNL1        0.0369
     12 C           0.3572    2.4138   18.9261 C.ar    1  UNL1        0.0031
     13 C           0.1098    2.9300   20.3126 C.ar    1  UNL1        0.0002
     14 C           0.6959    2.2161   21.4944 C.ar    1  UNL1        0.0030
     15 C           1.5294    0.9858   21.2898 C.ar    1  UNL1        0.0338
     16 H           3.6902   -3.8961   18.7988 H       1  UNL1        0.1234
     17 C           1.3735    1.8205   26.6310 C.ar    1  UNL1        0.0536
     18 C           2.7771    1.5827   26.1585 C.ar    1  UNL1        0.0045
     19 C           3.0245    1.0665   24.7720 C.ar    1  UNL1        0.0001
     20 C           1.8682    0.7880   23.8580 C.ar    1  UNL1       -0.0001
     21 C           0.4645    1.0259   24.3305 C.ar    1  UNL1        0.0001
     22 C           0.2172    1.5421   25.7170 C.ar    1  UNL1        0.0045
     23 N           0.6015    1.4154   29.0784 N.am    1  UNL1       -0.2761
     24 C           1.1262    2.3368   28.0175 C.2     1  UNL1        0.2490
     25 O           1.4037    3.7746   28.3430 O.2     1  UNL1       -0.2699
     26 C           1.4263    1.8221   31.5083 C.3     1  UNL1        0.0233
     27 C           0.3542    1.9316   30.4648 C.3     1  UNL1        0.0938
     28 C           0.3240   -0.0224   28.7528 C.3     1  UNL1        0.0938
     29 C          -1.0809   -0.5454   28.8041 C.3     1  UNL1        0.0233
@<TRIPOS>BOND
     1    26    27    1
     2    27    23    1
     3    23    28    1
     4    28    29    1
     5    23    24   am
     6    24    25    2
     7    24    17    1
     8    17    18   ar
     9    18    19   ar
    10    19    20   ar
    11    20     1    1
    12     1     2    2
    13     2     3    1
    14     3     4    1
    15     4     5    1
    16     5     6    1
    17     6     7    1
    18     7     8    1
    19     3     9    1
    20     9    10    1
    21    10    11   ar
    22    11    12   ar
    23    12    13   ar
    24    13    14   ar
    25    14    15   ar
    26    20    21   ar
    27    21    22   ar
    28    22    17   ar
    29    15     1    1
    30     8     3    1
    31    15    10   ar
    32     7    16    1
@<TRIPOS>MOLECULE
*****
 29 32 0 0 0
SMALL
GASTEIGER

@<TRIPOS>ATOM
      1 C          -0.0416    2.0795   22.1103 C.2     1  UNL1        0.0020
      2 C           0.0147    1.8885   23.5971 C.2     1  UNL1        0.0143
      3 C          -0.9287    2.6430   24.4864 C.3     1  UNL1        0.1659
      4 C           0.0709    1.6976   25.0838 C.3     1  UNL1        0.0472
      5 C           0.1272    1.5067   26.5705 C.3     1  UNL1        0.0211
      6 C          -0.8162    2.2612   27.4598 C.3     1  UNL1        0.0688
      7 N          -1.8158    3.2066   26.8624 N.3     1  UNL1       -0.2943
      8 C          -1.8721    3.3975   25.3757 C.3     1  UNL1        0.1134
      9 O          -1.9283    3.5885   23.8889 O.3     1  UNL1       -0.4772
     10 C          -1.9846    3.7794   22.4022 C.ar    1  UNL1        0.1386
     11 C          -2.9843    4.7248   21.8047 C.ar    1  UNL1        0.0369
     12 C          -3.0405    4.9157   20.3180 C.ar    1  UNL1        0.0031
     13 C          -2.0972    4.1612   19.4287 C.ar    1  UNL1        0.0002
     14 C          -1.0975    3.2158   20.0261 C.ar    1  UNL1        0.0030
     15 C          -1.0412    3.0249   21.5129 C.ar    1  UNL1        0.0338
     16 H          -1.6342    4.1236   27.2703 H       1  UNL1        0.1234
     17 C           2.7884   -0.1840   19.4425 C.ar    1  UNL1        0.0536
     18 C           3.2075    1.1262   20.0405 C.ar    1  UNL1        0.0045
     19 C           2.2642    1.8807   20.9298 C.ar    1  UNL1        0.0001
     20 C           0.9017    1.3250   21.2210 C.ar    1  UNL1       -0.0001
     21 C           0.4825    0.0148   20.6229 C.ar    1  UNL1        0.0001
     22 C           1.4259   -0.7397   19.7336 C.ar    1  UNL1        0.0045
     23 N           4.5821   -2.0359   19.1212 N.am    1  UNL1       -0.2761
     24 C           3.7318   -0.9385   18.5532 C.2     1  UNL1        0.2490
     25 O           3.8249   -0.5955   17.0958 O.2     1  UNL1       -0.2699
     26 C           6.9108   -2.2672   17.9926 C.3     1  UNL1        0.0233
     27 C           5.5254   -2.7904   18.2319 C.3     1  UNL1        0.0938
     28 C           4.4890   -2.3789   20.5785 C.3     1  UNL1        0.0938
     29 C           5.5930   -1.9838   21.5140 C.3     1  UNL1        0.0233
@<TRIPOS>BOND
     1    26    27    1
     2    27    23    1
     3    23    28    1
     4    28    29    1
     5    23    24   am
     6    24    25    2
     7    24    17    1
     8    17    18   ar
     9    18    19   ar
    10    19    20   ar
    11    20     1    1
    12     1     2    2
    13     2     3    1
    14     3     4    1
    15     4     5    1
    16     5     6    1
    17     6     7    1
    18     7     8    1
    19     3     9    1
    20     9    10    1
    21    10    11   ar
    22    11    12   ar
    23    12    13   ar
    24    13    14   ar
    25    14    15   ar
    26    20    21   ar
    27    21    22   ar
    28    22    17   ar
    29    15     1    1
    30     8     3    1
    31    15    10   ar
    32     7    16    1
@<TRIPOS>MOLECULE
*****
 29 32 0 0 0
SMALL
GASTEIGER

@<TRIPOS>ATOM
      1 C          -1.3017    2.9346   25.4888 C.2     1  UNL1        0.0020
      2 C          -0.6079    2.7158   24.1770 C.2     1  UNL1        0.0143
      3 C          -1.2656    3.1469   22.8997 C.3     1  UNL1        0.1659
      4 C           0.0858    2.4969   22.8653 C.3     1  UNL1        0.0472
      5 C           0.7796    2.2781   21.5535 C.3     1  UNL1        0.0211
      6 C           0.1219    2.7092   20.2761 C.3     1  UNL1        0.0688
      7 N          -1.2295    3.3591   20.3106 N.3     1  UNL1       -0.2943
      8 C          -1.9232    3.5779   21.6223 C.3     1  UNL1        0.1134
      9 O          -2.6171    3.7968   22.9341 O.3     1  UNL1       -0.4772
     10 C          -3.3108    4.0156   24.2459 C.ar    1  UNL1        0.1386
     11 C          -4.6623    4.6656   24.2803 C.ar    1  UNL1        0.0369
     12 C          -5.3561    4.8844   25.5921 C.ar    1  UNL1        0.0031
     13 C          -4.6984    4.4533   26.8695 C.ar    1  UNL1        0.0002
     14 C          -3.3470    3.8034   26.8351 C.ar    1  UNL1        0.0030
     15 C          -2.6532    3.5845   25.5232 C.ar    1  UNL1        0.0338
     16 H          -1.8489    2.7809   19.7427 H       1  UNL1        0.1234
     17 C           0.6712    1.6414   29.3209 C.ar    1  UNL1        0.0536
     18 C           0.9913    2.9813   28.7276 C.ar    1  UNL1        0.0045
     19 C           0.3336    3.4124   27.4503 C.ar    1  UNL1        0.0001
     20 C          -0.6441    2.5035   26.7662 C.ar    1  UNL1       -0.0001
     21 C          -0.9642    1.1635   27.3595 C.ar    1  UNL1        0.0001
     22 C          -0.3065    0.7324   28.6369 C.ar    1  UNL1        0.0045
     23 N           2.5037    0.2785   30.5597 N.am    1  UNL1       -0.2761
     24 C           1.3289    1.2103   30.5983 C.2     1  UNL1        0.2490
     25 O           0.8117    1.7110   31.9143 O.2     1  UNL1       -0.2699
     26 C           4.1533   -1.2778   31.8273 C.3     1  UNL1        0.0233
     27 C           3.1614   -0.1526   31.8370 C.3     1  UNL1        0.0938
     28 C           3.0210   -0.2222   29.2437 C.3     1  UNL1        0.0938
     29 C           4.0730    0.5530   28.5073 C.3     1  UNL1        0.0233
@<TRIPOS>BOND
     1    26    27    1
     2    27    23    1
     3    23    28    1
     4    28    29    1
     5    23    24   am
     6    24    25    2
     7    24    17    1
     8    17    18   ar
     9    18    19   ar
    10    19    20   ar
    11    20     1    1
    12     1     2    2
    13     2     3    1
    14     3     4    1
    15     4     5    1
    16     5     6    1
    17     6     7    1
    18     7     8    1
    19     3     9    1
    20     9    10    1
    21    10    11   ar
    22    11    12   ar
    23    12    13   ar
    24    13    14   ar
    25    14    15   ar
    26    20    21   ar
    27    21    22   ar
    28    22    17   ar
    29    15     1    1
    30     8     3    1
    31    15    10   ar
    32     7    16    1
@<TRIPOS>MOLECULE
*****
 29 32 0 0 0
SMALL
GASTEIGER

@<TRIPOS>ATOM
      1 C           1.8308    1.6330   31.2327 C.2     1  UNL1        0.0020
      2 C           2.7381    0.4692   31.5021 C.2     1  UNL1        0.0143
      3 C           3.3843    0.3177   32.8473 C.3     1  UNL1        0.1659
      4 C           3.6454   -0.6945   31.7715 C.3     1  UNL1        0.0472
      5 C           4.5527   -1.8582   32.0410 C.3     1  UNL1        0.0211
      6 C           5.1989   -2.0097   33.3861 C.3     1  UNL1        0.0688
      7 N           4.9378   -0.9975   34.4619 N.3     1  UNL1       -0.2943
      8 C           4.0305    0.1662   34.1924 C.3     1  UNL1        0.1134
      9 O           3.1232    1.3300   33.9230 O.3     1  UNL1       -0.4772
     10 C           2.2159    2.4936   33.6536 C.ar    1  UNL1        0.1386
     11 C           1.9547    3.5059   34.7293 C.ar    1  UNL1        0.0369
     12 C           1.0475    4.6696   34.4599 C.ar    1  UNL1        0.0031
     13 C           0.4013    4.8211   33.1147 C.ar    1  UNL1        0.0002
     14 C           0.6624    3.8089   32.0390 C.ar    1  UNL1        0.0030
     15 C           1.5697    2.6451   32.3084 C.ar    1  UNL1        0.0338
     16 H           5.8431   -0.6097   34.7274 H       1  UNL1        0.1234
     17 C          -0.1077    2.0874   27.1971 C.ar    1  UNL1        0.0536
     18 C          -0.7241    1.1894   28.2284 C.ar    1  UNL1        0.0045
     19 C          -0.0779    1.0379   29.5736 C.ar    1  UNL1        0.0001
     20 C           1.1847    1.7844   29.8875 C.ar    1  UNL1       -0.0001
     21 C           1.8011    2.6825   28.8562 C.ar    1  UNL1        0.0001
     22 C           1.1550    2.8340   27.5110 C.ar    1  UNL1        0.0045
     23 N          -1.8220    3.2715   25.6450 N.am    1  UNL1       -0.2761
     24 C          -0.7539    2.2389   25.8519 C.2     1  UNL1        0.2490
     25 O          -0.3319    1.3578   24.7137 O.2     1  UNL1       -0.2699
     26 C          -3.9632    3.4697   24.1869 C.3     1  UNL1        0.0233
     27 C          -2.4681    3.4230   24.2998 C.3     1  UNL1        0.0938
     28 C          -2.2440    4.1527   26.7832 C.3     1  UNL1        0.0938
     29 C          -1.6222    5.5070   26.9537 C.3     1  UNL1        0.0233
@<TRIPOS>BOND
     1    26    27    1
     2    27    23    1
     3    23    28    1
     4    28    29    1
     5    23    24   am
     6    24    25    2
     7    24    17    1
     8    17    18   ar
     9    18    19   ar
    10    19    20   ar
    11    20     1    1
    12     1     2    2
    13     2     3    1
    14     3     4    1
    15     4     5    1
    16     5     6    1
    17     6     7    1
    18     7     8    1
    19     3     9    1
    20     9    10    1
    21    10    11   ar
    22    11    12   ar
    23    12    13   ar
    24    13    14   ar
    25    14    15   ar
    26    20    21   ar
    27    21    22   ar
    28    22    17   ar
    29    15     1    1
    30     8     3    1
    31    15    10   ar
    32     7    16    1
