@<TRIPOS>MOLECULE
*****
 33 37 0 0 0
SMALL
GASTEIGER

@<TRIPOS>ATOM
      1 C           6.2808   -3.3694   24.2121 C.ar    1  UNL1        0.0291
      2 C           5.8019   -2.3939   25.2460 C.ar    1  UNL1        0.0036
      3 C           5.9618   -2.7076   26.7041 C.ar    1  UNL1        0.0152
      4 C           6.6006   -3.9968   27.1283 C.ar    1  UNL1        0.0593
      5 C           7.0795   -4.9723   26.0943 C.ar    1  UNL1        0.0446
      6 C           6.9196   -4.6586   24.6362 C.ar    1  UNL1        0.1414
      7 F           7.3986   -5.6341   23.6022 F       1  UNL1       -0.2041
      8 C           5.8011   -2.4284   19.8378 C.ar    1  UNL1        0.1178
      9 C           4.7192   -3.1661   20.5693 C.ar    1  UNL1        0.0221
     10 C           4.8791   -3.4798   22.0273 C.ar    1  UNL1        0.0033
     11 C           6.1210   -3.0557   22.7539 C.ar    1  UNL1        0.0213
     12 C           7.2029   -2.3180   22.0225 C.ar    1  UNL1        0.0990
     13 N           7.0430   -2.0043   20.5644 N.ar    1  UNL1       -0.2409
     14 O           6.8052   -2.2721   17.4467 O.2     1  UNL1       -0.2877
     15 C           5.6413   -2.1147   18.3796 C.2     1  UNL1        0.2133
     16 C           4.3175   -1.6437   17.8546 C.3     1  UNL1        0.1784
     17 N           3.8947   -0.2187   18.0563 N.ar    1  UNL1       -0.3003
     18 C           2.4988    0.2560   18.3327 C.ar    1  UNL1        0.0984
     19 C           2.5349    1.7499   18.4642 C.ar    1  UNL1        0.1193
     20 N           3.9530    2.1983   18.2692 N.ar    1  UNL1       -0.2223
     21 C           4.7933    0.9816   18.0171 C.ar    1  UNL1        0.1790
     22 N           6.7605   -4.3105   28.5863 N.am    1  UNL1       -0.2212
     23 C           6.4443   -3.3884   29.7265 C.3     1  UNL1        0.1471
     24 C           6.7530   -4.1094   31.0051 C.3     1  UNL1        0.2149
     25 O           7.2601   -5.4771   30.6551 O.3     1  UNL1       -0.4342
     26 C           7.2647   -5.6013   29.1603 C.2     1  UNL1        0.4088
     27 O           7.6975   -6.8051   28.3770 O.2     1  UNL1       -0.2258
     28 C           6.5843   -3.5593   32.3903 C.3     1  UNL1        0.1745
     29 N           5.6631   -2.4000   32.6299 N.ar    1  UNL1       -0.2264
     30 C           6.0387   -0.9490   32.5731 C.ar    1  UNL1        0.1193
     31 C           4.8122   -0.1405   32.8765 C.ar    1  UNL1        0.1441
     32 N           3.6786   -1.0919   33.1209 N.ar    1  UNL1       -0.1271
     33 N           4.2044   -2.4884   32.9685 N.ar    1  UNL1       -0.0636
@<TRIPOS>BOND
     1    14    15    2
     2    15    16    1
     3    16    17    1
     4    17    18   ar
     5    18    19   ar
     6    19    20   ar
     7    20    21   ar
     8    15     8    1
     9     8     9   ar
    10     9    10   ar
    11    10    11   ar
    12    11     1    1
    13     1     2   ar
    14     2     3   ar
    15     3     4   ar
    16     4    22    1
    17    22    23    1
    18    23    24    1
    19    24    28    1
    20    28    29    1
    21    29    30   ar
    22    30    31   ar
    23    31    32   ar
    24    32    33   ar
    25    24    25    1
    26    25    26    1
    27    26    27    2
    28     4     5   ar
    29     5     6   ar
    30     6     7    1
    31    11    12   ar
    32    12    13   ar
    33    21    17   ar
    34    13     8   ar
    35     6     1   ar
    36    26    22   am
    37    33    29   ar
@<TRIPOS>MOLECULE
*****
 33 37 0 0 0
SMALL
GASTEIGER

@<TRIPOS>ATOM
      1 C           1.6837    0.9898   25.2179 C.ar    1  UNL1        0.0291
      2 C           0.7846    1.8466   24.3767 C.ar    1  UNL1        0.0036
      3 C           0.7834    1.6934   22.8845 C.ar    1  UNL1        0.0152
      4 C           1.6813    0.6835   22.2335 C.ar    1  UNL1        0.0593
      5 C           2.5804   -0.1733   23.0748 C.ar    1  UNL1        0.0446
      6 C           2.5816   -0.0201   24.5669 C.ar    1  UNL1        0.1414
      7 F           3.4807   -0.8769   25.4081 F       1  UNL1       -0.2041
      8 C           1.6872    1.4493   29.6943 C.ar    1  UNL1        0.1178
      9 C           0.3880    1.3433   28.9523 C.ar    1  UNL1        0.0221
     10 C           0.3868    1.1902   27.4602 C.ar    1  UNL1        0.0033
     11 C           1.6849    1.1430   26.7101 C.ar    1  UNL1        0.0213
     12 C           2.9842    1.2489   27.4521 C.ar    1  UNL1        0.0990
     13 N           2.9853    1.4021   28.9442 N.ar    1  UNL1       -0.2409
     14 O           0.3982    1.8242   31.9187 O.2     1  UNL1       -0.2877
     15 C           1.6884    1.6024   31.1866 C.2     1  UNL1        0.2133
     16 C           2.9798    1.5338   31.9465 C.3     1  UNL1        0.1784
     17 N           3.4659    0.2196   32.4823 N.ar    1  UNL1       -0.3003
     18 C           4.0046   -0.0255   33.8605 C.ar    1  UNL1        0.0984
     19 C           4.3702   -1.4766   33.9640 C.ar    1  UNL1        0.1193
     20 N           4.0573   -2.1283   32.6496 N.ar    1  UNL1       -0.2223
     21 C           3.4984   -1.0799   31.7339 C.ar    1  UNL1        0.1790
     22 N           1.6801    0.5303   20.7414 N.am    1  UNL1       -0.2212
     23 C           2.8253    0.0426   19.9042 C.3     1  UNL1        0.1471
     24 C           2.3865    0.0488   18.4699 C.3     1  UNL1        0.2149
     25 O           0.9702    0.5404   18.4206 O.3     1  UNL1       -0.4342
     26 C           0.5336    0.8380   19.8244 C.2     1  UNL1        0.4088
     27 O          -0.8130    1.3529   20.2386 O.2     1  UNL1       -0.2258
     28 C           3.2180   -0.3641   17.2917 C.3     1  UNL1        0.1745
     29 N           4.5285   -1.0617   17.5062 N.ar    1  UNL1       -0.2264
     30 C           4.7225   -2.3831   18.1889 C.ar    1  UNL1        0.1193
     31 C           6.1889   -2.6984   18.1802 C.ar    1  UNL1        0.1441
     32 N           6.9013   -1.5719   17.4921 N.ar    1  UNL1       -0.1271
     33 N           5.8751   -0.5603   17.0755 N.ar    1  UNL1       -0.0636
@<TRIPOS>BOND
     1    14    15    2
     2    15    16    1
     3    16    17    1
     4    17    18   ar
     5    18    19   ar
     6    19    20   ar
     7    20    21   ar
     8    15     8    1
     9     8     9   ar
    10     9    10   ar
    11    10    11   ar
    12    11     1    1
    13     1     2   ar
    14     2     3   ar
    15     3     4   ar
    16     4    22    1
    17    22    23    1
    18    23    24    1
    19    24    28    1
    20    28    29    1
    21    29    30   ar
    22    30    31   ar
    23    31    32   ar
    24    32    33   ar
    25    24    25    1
    26    25    26    1
    27    26    27    2
    28     4     5   ar
    29     5     6   ar
    30     6     7    1
    31    11    12   ar
    32    12    13   ar
    33    21    17   ar
    34    13     8   ar
    35     6     1   ar
    36    26    22   am
    37    33    29   ar
@<TRIPOS>MOLECULE
*****
 33 37 0 0 0
SMALL
GASTEIGER

@<TRIPOS>ATOM
      1 C           6.8141   -3.7433   22.8679 C.ar    1  UNL1        0.0291
      2 C           6.1328   -3.3257   24.1372 C.ar    1  UNL1        0.0036
      3 C           6.4565   -4.0214   25.4262 C.ar    1  UNL1        0.0152
      4 C           7.4615   -5.1348   25.4456 C.ar    1  UNL1        0.0593
      5 C           8.1428   -5.5524   24.1762 C.ar    1  UNL1        0.0446
      6 C           7.8191   -4.8567   22.8873 C.ar    1  UNL1        0.1414
      7 F           8.5005   -5.2743   21.6179 F       1  UNL1       -0.2041
      8 C           5.8429   -1.6563   19.0012 C.ar    1  UNL1        0.1178
      9 C           5.5095   -3.1085   19.1739 C.ar    1  UNL1        0.0221
     10 C           5.8332   -3.8041   20.4628 C.ar    1  UNL1        0.0033
     11 C           6.4904   -3.0476   21.5789 C.ar    1  UNL1        0.0213
     12 C           6.8239   -1.5954   21.4062 C.ar    1  UNL1        0.0990
     13 N           6.5001   -0.8998   20.1173 N.ar    1  UNL1       -0.2409
     14 O           6.6255   -0.5051   16.8074 O.2     1  UNL1       -0.2877
     15 C           5.5192   -0.9606   17.7123 C.2     1  UNL1        0.2133
     16 C           4.0893   -0.7204   17.3282 C.3     1  UNL1        0.1784
     17 N           3.3335    0.4269   17.9305 N.ar    1  UNL1       -0.3003
     18 C           3.9131    1.7511   18.3311 C.ar    1  UNL1        0.0984
     19 C           2.8033    2.5940   18.8861 C.ar    1  UNL1        0.1193
     20 N           1.5378    1.7906   18.8284 N.ar    1  UNL1       -0.2223
     21 C           1.8656    0.4513   18.2379 C.ar    1  UNL1        0.1790
     22 N           7.7852   -5.8305   26.7345 N.am    1  UNL1       -0.2212
     23 C           8.2021   -5.1675   28.0138 C.3     1  UNL1        0.1471
     24 C           8.4234   -6.2386   29.0403 C.3     1  UNL1        0.2149
     25 O           8.1434   -7.5636   28.3953 O.3     1  UNL1       -0.4342
     26 C           7.7490   -7.3114   26.9703 C.2     1  UNL1        0.4088
     27 O           7.3826   -8.3565   25.9587 O.2     1  UNL1       -0.2258
     28 C           8.8499   -6.0226   30.4620 C.3     1  UNL1        0.1745
     29 N           8.3444   -4.8338   31.2244 N.ar    1  UNL1       -0.2264
     30 C           9.1707   -3.6773   31.7036 C.ar    1  UNL1        0.1193
     31 C           8.2608   -2.7215   32.4167 C.ar    1  UNL1        0.1441
     32 N           6.8721   -3.2874   32.3783 N.ar    1  UNL1       -0.1271
     33 N           6.9238   -4.5928   31.6414 N.ar    1  UNL1       -0.0636
@<TRIPOS>BOND
     1    14    15    2
     2    15    16    1
     3    16    17    1
     4    17    18   ar
     5    18    19   ar
     6    19    20   ar
     7    20    21   ar
     8    15     8    1
     9     8     9   ar
    10     9    10   ar
    11    10    11   ar
    12    11     1    1
    13     1     2   ar
    14     2     3   ar
    15     3     4   ar
    16     4    22    1
    17    22    23    1
    18    23    24    1
    19    24    28    1
    20    28    29    1
    21    29    30   ar
    22    30    31   ar
    23    31    32   ar
    24    32    33   ar
    25    24    25    1
    26    25    26    1
    27    26    27    2
    28     4     5   ar
    29     5     6   ar
    30     6     7    1
    31    11    12   ar
    32    12    13   ar
    33    21    17   ar
    34    13     8   ar
    35     6     1   ar
    36    26    22   am
    37    33    29   ar
@<TRIPOS>MOLECULE
*****
 33 37 0 0 0
SMALL
GASTEIGER

@<TRIPOS>ATOM
      1 C           0.9111    1.4871   20.4779 C.ar    1  UNL1        0.0291
      2 C           0.9888    0.0003   20.6601 C.ar    1  UNL1        0.0036
      3 C           2.1749   -0.7579   20.1421 C.ar    1  UNL1        0.0152
      4 C           3.2833   -0.0291   19.4418 C.ar    1  UNL1        0.0593
      5 C           3.2055    1.4578   19.2596 C.ar    1  UNL1        0.0446
      6 C           2.0194    2.2159   19.7776 C.ar    1  UNL1        0.1414
      7 F           1.9417    3.7028   19.5954 F       1  UNL1       -0.2041
      8 C          -2.6473    3.7616   22.0319 C.ar    1  UNL1        0.1178
      9 C          -2.5755    3.3800   20.5831 C.ar    1  UNL1        0.0221
     10 C          -1.3894    2.6219   20.0651 C.ar    1  UNL1        0.0033
     11 C          -0.2751    2.2453   20.9960 C.ar    1  UNL1        0.0213
     12 C          -0.3469    2.6268   22.4448 C.ar    1  UNL1        0.0990
     13 N          -1.5330    3.3849   22.9628 N.ar    1  UNL1       -0.2409
     14 O          -4.0580    5.9412   22.1271 O.2     1  UNL1       -0.2877
     15 C          -3.8334    4.5197   22.5500 C.2     1  UNL1        0.2133
     16 C          -4.7950    3.8564   23.4909 C.3     1  UNL1        0.1784
     17 N          -4.9283    4.3527   24.9002 N.ar    1  UNL1       -0.3003
     18 C          -5.9310    5.3546   25.3909 C.ar    1  UNL1        0.0984
     19 C          -5.7048    5.5554   26.8601 C.ar    1  UNL1        0.1193
     20 N          -4.5622    4.6775   27.2774 N.ar    1  UNL1       -0.2223
     21 C          -4.0824    3.9342   26.0661 C.ar    1  UNL1        0.1790
     22 N           4.4694   -0.7872   18.9237 N.am    1  UNL1       -0.2212
     23 C           5.6426   -1.2508   19.7354 C.3     1  UNL1        0.1471
     24 C           6.5889   -1.9649   18.8163 C.3     1  UNL1        0.2149
     25 O           6.0005   -1.9427   17.4367 O.3     1  UNL1       -0.4342
     26 C           4.6906   -1.2148   17.5031 C.2     1  UNL1        0.4088
     27 O           3.7645   -0.9594   16.3511 O.2     1  UNL1       -0.2258
     28 C           7.8943   -2.5913   19.2081 C.3     1  UNL1        0.1745
     29 N           8.0058   -3.3479   20.4986 N.ar    1  UNL1       -0.2264
     30 C           8.8168   -2.9399   21.6926 C.ar    1  UNL1        0.1193
     31 C           8.6380   -3.9852   22.7534 C.ar    1  UNL1        0.1441
     32 N           7.7165   -5.0392   22.2150 N.ar    1  UNL1       -0.1271
     33 N           7.3257   -4.6454   20.8214 N.ar    1  UNL1       -0.0636
@<TRIPOS>BOND
     1    14    15    2
     2    15    16    1
     3    16    17    1
     4    17    18   ar
     5    18    19   ar
     6    19    20   ar
     7    20    21   ar
     8    15     8    1
     9     8     9   ar
    10     9    10   ar
    11    10    11   ar
    12    11     1    1
    13     1     2   ar
    14     2     3   ar
    15     3     4   ar
    16     4    22    1
    17    22    23    1
    18    23    24    1
    19    24    28    1
    20    28    29    1
    21    29    30   ar
    22    30    31   ar
    23    31    32   ar
    24    32    33   ar
    25    24    25    1
    26    25    26    1
    27    26    27    2
    28     4     5   ar
    29     5     6   ar
    30     6     7    1
    31    11    12   ar
    32    12    13   ar
    33    21    17   ar
    34    13     8   ar
    35     6     1   ar
    36    26    22   am
    37    33    29   ar
@<TRIPOS>MOLECULE
*****
 33 37 0 0 0
SMALL
GASTEIGER

@<TRIPOS>ATOM
      1 C          -0.2090    2.5432   27.8558 C.ar    1  UNL1        0.0291
      2 C           0.8818    3.4620   28.3205 C.ar    1  UNL1        0.0036
      3 C           1.6857    3.1159   29.5387 C.ar    1  UNL1        0.0152
      4 C           1.3988    1.8511   30.2922 C.ar    1  UNL1        0.0593
      5 C           0.3079    0.9323   29.8275 C.ar    1  UNL1        0.0446
      6 C          -0.4960    1.2783   28.6094 C.ar    1  UNL1        0.1414
      7 F          -1.5868    0.3595   28.1447 F       1  UNL1       -0.2041
      8 C          -2.6210    3.5813   24.2014 C.ar    1  UNL1        0.1178
      9 C          -3.2516    3.6500   25.5606 C.ar    1  UNL1        0.0221
     10 C          -2.4476    3.3040   26.7787 C.ar    1  UNL1        0.0033
     11 C          -1.0130    2.8892   26.6376 C.ar    1  UNL1        0.0213
     12 C          -0.3824    2.8205   25.2784 C.ar    1  UNL1        0.0990
     13 N          -1.1863    3.1665   24.0603 N.ar    1  UNL1       -0.2409
     14 O          -2.8759    4.8877   21.9702 O.2     1  UNL1       -0.2877
     15 C          -3.4249    3.9273   22.9832 C.2     1  UNL1        0.2133
     16 C          -4.7779    3.3130   22.7781 C.3     1  UNL1        0.1784
     17 N          -6.0141    4.1415   22.9659 N.ar    1  UNL1       -0.3003
     18 C          -6.6373    4.5099   24.2797 C.ar    1  UNL1        0.0984
     19 C          -7.8526    5.3433   23.9987 C.ar    1  UNL1        0.1193
     20 N          -7.9804    5.4898   22.5113 N.ar    1  UNL1       -0.2223
     21 C          -6.8442    4.7471   21.8731 C.ar    1  UNL1        0.1790
     22 N           2.2027    1.5050   31.5104 N.am    1  UNL1       -0.2212
     23 C           2.4146    2.3853   32.7063 C.3     1  UNL1        0.1471
     24 C           3.2787    1.6423   33.6816 C.3     1  UNL1        0.2149
     25 O           3.6009    0.3027   33.0883 O.3     1  UNL1       -0.4342
     26 C           2.9359    0.2179   31.7465 C.2     1  UNL1        0.4088
     27 O           2.9940   -0.9491   30.8059 O.2     1  UNL1       -0.2258
     28 C           3.7397    2.1496   35.0158 C.3     1  UNL1        0.1745
     29 N           2.7724    2.8409   35.9303 N.ar    1  UNL1       -0.2264
     30 C           2.2874    4.2539   35.7954 C.ar    1  UNL1        0.1193
     31 C           1.3355    4.5268   36.9221 C.ar    1  UNL1        0.1441
     32 N           1.2322    3.2824   37.7534 N.ar    1  UNL1       -0.1271
     33 N           2.1202    2.2405   37.1404 N.ar    1  UNL1       -0.0636
@<TRIPOS>BOND
     1    14    15    2
     2    15    16    1
     3    16    17    1
     4    17    18   ar
     5    18    19   ar
     6    19    20   ar
     7    20    21   ar
     8    15     8    1
     9     8     9   ar
    10     9    10   ar
    11    10    11   ar
    12    11     1    1
    13     1     2   ar
    14     2     3   ar
    15     3     4   ar
    16     4    22    1
    17    22    23    1
    18    23    24    1
    19    24    28    1
    20    28    29    1
    21    29    30   ar
    22    30    31   ar
    23    31    32   ar
    24    32    33   ar
    25    24    25    1
    26    25    26    1
    27    26    27    2
    28     4     5   ar
    29     5     6   ar
    30     6     7    1
    31    11    12   ar
    32    12    13   ar
    33    21    17   ar
    34    13     8   ar
    35     6     1   ar
    36    26    22   am
    37    33    29   ar
@<TRIPOS>MOLECULE
*****
 33 37 0 0 0
SMALL
GASTEIGER

@<TRIPOS>ATOM
      1 C           3.6484   -0.3893   28.6487 C.ar    1  UNL1        0.0291
      2 C           5.0350   -0.2855   29.2115 C.ar    1  UNL1        0.0036
      3 C           5.2424   -0.2723   30.6971 C.ar    1  UNL1        0.0152
      4 C           4.0633   -0.3629   31.6198 C.ar    1  UNL1        0.0593
      5 C           2.6767   -0.4667   31.0570 C.ar    1  UNL1        0.0446
      6 C           2.4693   -0.4799   29.5714 C.ar    1  UNL1        0.1414
      7 F           1.0827   -0.5837   29.0086 F       1  UNL1       -0.2041
      8 C           3.0261   -0.4287   24.1921 C.ar    1  UNL1        0.1178
      9 C           2.3668    0.6247   25.0322 C.ar    1  UNL1        0.0221
     10 C           2.5743    0.6378   26.5176 C.ar    1  UNL1        0.0033
     11 C           3.4410   -0.4024   27.1631 C.ar    1  UNL1        0.0213
     12 C           4.1003   -1.4558   26.3231 C.ar    1  UNL1        0.0990
     13 N           3.8928   -1.4690   24.8376 N.ar    1  UNL1       -0.2409
     14 O           3.4144   -1.5396   21.8758 O.2     1  UNL1       -0.2877
     15 C           2.8186   -0.4419   22.7066 C.2     1  UNL1        0.2133
     16 C           2.0154    0.6425   22.0518 C.3     1  UNL1        0.1784
     17 N           1.9029    0.6940   20.5569 N.ar    1  UNL1       -0.3003
     18 C           2.9894    1.0967   19.6043 C.ar    1  UNL1        0.0984
     19 C           2.4421    1.0034   18.2108 C.ar    1  UNL1        0.1193
     20 N           1.0174    0.5430   18.3022 N.ar    1  UNL1       -0.2223
     21 C           0.6842    0.3518   19.7521 C.ar    1  UNL1        0.1790
     22 N           4.2707   -0.3497   33.1053 N.am    1  UNL1       -0.2212
     23 C           4.5083    0.8657   33.9516 C.3     1  UNL1        0.1471
     24 C           4.6613    0.4170   35.3747 C.3     1  UNL1        0.2149
     25 O           4.5183   -1.0758   35.4079 O.3     1  UNL1       -0.4342
     26 C           4.2769   -1.5496   34.0053 C.2     1  UNL1        0.4088
     27 O           4.0768   -2.9734   33.5779 O.2     1  UNL1       -0.2258
     28 C           4.9132    1.3051   36.5570 C.3     1  UNL1        0.1745
     29 N           3.7589    1.9056   37.3033 N.ar    1  UNL1       -0.2264
     30 C           3.7584    2.3129   38.7470 C.ar    1  UNL1        0.1193
     31 C           2.4016    2.8633   39.0729 C.ar    1  UNL1        0.1441
     32 N           1.5635    2.7962   37.8306 N.ar    1  UNL1       -0.1271
     33 N           2.4023    2.2043   36.7370 N.ar    1  UNL1       -0.0636
@<TRIPOS>BOND
     1    14    15    2
     2    15    16    1
     3    16    17    1
     4    17    18   ar
     5    18    19   ar
     6    19    20   ar
     7    20    21   ar
     8    15     8    1
     9     8     9   ar
    10     9    10   ar
    11    10    11   ar
    12    11     1    1
    13     1     2   ar
    14     2     3   ar
    15     3     4   ar
    16     4    22    1
    17    22    23    1
    18    23    24    1
    19    24    28    1
    20    28    29    1
    21    29    30   ar
    22    30    31   ar
    23    31    32   ar
    24    32    33   ar
    25    24    25    1
    26    25    26    1
    27    26    27    2
    28     4     5   ar
    29     5     6   ar
    30     6     7    1
    31    11    12   ar
    32    12    13   ar
    33    21    17   ar
    34    13     8   ar
    35     6     1   ar
    36    26    22   am
    37    33    29   ar
@<TRIPOS>MOLECULE
*****
 33 37 0 0 0
SMALL
GASTEIGER

@<TRIPOS>ATOM
      1 C           1.7303    1.0959   19.4503 C.ar    1  UNL1        0.0291
      2 C           3.1140    1.1943   18.8798 C.ar    1  UNL1        0.0036
      3 C           4.0810    0.0614   19.0578 C.ar    1  UNL1        0.0152
      4 C           3.6641   -1.1698   19.8064 C.ar    1  UNL1        0.0593
      5 C           2.2803   -1.2681   20.3769 C.ar    1  UNL1        0.0446
      6 C           1.3134   -0.1353   20.1988 C.ar    1  UNL1        0.1414
      7 F          -0.0704   -0.2336   20.7693 F       1  UNL1       -0.2041
      8 C          -1.1705    4.4944   18.9161 C.ar    1  UNL1        0.1178
      9 C          -0.7513    3.6733   17.7329 C.ar    1  UNL1        0.0221
     10 C           0.2156    2.5405   17.9110 C.ar    1  UNL1        0.0033
     11 C           0.7633    2.2288   19.2722 C.ar    1  UNL1        0.0213
     12 C           0.3440    3.0500   20.4554 C.ar    1  UNL1        0.0990
     13 N          -0.6229    4.1828   20.2773 N.ar    1  UNL1       -0.2409
     14 O          -1.6435    6.9722   18.2939 O.2     1  UNL1       -0.2877
     15 C          -2.1375    5.6273   18.7380 C.2     1  UNL1        0.2133
     16 C          -3.5984    5.4153   19.0041 C.3     1  UNL1        0.1784
     17 N          -4.0407    4.7514   20.2745 N.ar    1  UNL1       -0.3003
     18 C          -4.3172    3.2881   20.4545 C.ar    1  UNL1        0.0984
     19 C          -4.7316    3.0666   21.8791 C.ar    1  UNL1        0.1193
     20 N          -4.7112    4.3930   22.5794 N.ar    1  UNL1       -0.2223
     21 C          -4.2843    5.4342   21.5876 C.ar    1  UNL1        0.1790
     22 N           4.6310   -2.3026   19.9844 N.am    1  UNL1       -0.2212
     23 C           5.9921   -2.2104   20.6082 C.3     1  UNL1        0.1471
     24 C           6.6089   -3.5774   20.5792 C.3     1  UNL1        0.2149
     25 O           5.6290   -4.5145   19.9376 O.3     1  UNL1       -0.4342
     26 C           4.4066   -3.7267   19.5700 C.2     1  UNL1        0.4088
     27 O           3.1760   -4.2679   18.9048 O.2     1  UNL1       -0.2258
     28 C           7.9670   -3.9431   21.1004 C.3     1  UNL1        0.1745
     29 N           8.1150   -5.0622   22.0882 N.ar    1  UNL1       -0.2264
     30 C           7.8936   -4.9665   23.5687 C.ar    1  UNL1        0.1193
     31 C           8.1521   -6.3186   24.1643 C.ar    1  UNL1        0.1441
     32 N           8.5332   -7.2501   23.0520 N.ar    1  UNL1       -0.1271
     33 N           8.5103   -6.4735   21.7689 N.ar    1  UNL1       -0.0636
@<TRIPOS>BOND
     1    14    15    2
     2    15    16    1
     3    16    17    1
     4    17    18   ar
     5    18    19   ar
     6    19    20   ar
     7    20    21   ar
     8    15     8    1
     9     8     9   ar
    10     9    10   ar
    11    10    11   ar
    12    11     1    1
    13     1     2   ar
    14     2     3   ar
    15     3     4   ar
    16     4    22    1
    17    22    23    1
    18    23    24    1
    19    24    28    1
    20    28    29    1
    21    29    30   ar
    22    30    31   ar
    23    31    32   ar
    24    32    33   ar
    25    24    25    1
    26    25    26    1
    27    26    27    2
    28     4     5   ar
    29     5     6   ar
    30     6     7    1
    31    11    12   ar
    32    12    13   ar
    33    21    17   ar
    34    13     8   ar
    35     6     1   ar
    36    26    22   am
    37    33    29   ar
@<TRIPOS>MOLECULE
*****
 33 37 0 0 0
SMALL
GASTEIGER

@<TRIPOS>ATOM
      1 C           3.5642   -0.2049   27.8291 C.ar    1  UNL1        0.0291
      2 C           2.4574   -0.6365   28.7449 C.ar    1  UNL1        0.0036
      3 C           2.6292   -0.5297   30.2313 C.ar    1  UNL1        0.0152
      4 C           3.9077    0.0087   30.8017 C.ar    1  UNL1        0.0593
      5 C           5.0146    0.4402   29.8858 C.ar    1  UNL1        0.0446
      6 C           4.8428    0.3334   28.3996 C.ar    1  UNL1        0.1414
      7 F           5.9496    0.7650   27.4837 F       1  UNL1       -0.2041
      8 C           3.0489   -0.5252   23.3702 C.ar    1  UNL1        0.1178
      9 C           2.3261    0.5445   24.1338 C.ar    1  UNL1        0.0221
     10 C           2.4979    0.6513   25.6200 C.ar    1  UNL1        0.0033
     11 C           3.3924   -0.3117   26.3427 C.ar    1  UNL1        0.0213
     12 C           4.1153   -1.3815   25.5792 C.ar    1  UNL1        0.0990
     13 N           3.9435   -1.4882   24.0929 N.ar    1  UNL1       -0.2409
     14 O           1.5897   -0.2029   21.2449 O.2     1  UNL1       -0.2877
     15 C           2.8771   -0.6320   21.8838 C.2     1  UNL1        0.2133
     16 C           3.9928   -1.1679   21.0365 C.3     1  UNL1        0.1784
     17 N           3.9523   -2.5874   20.5532 N.ar    1  UNL1       -0.3003
     18 C           3.3812   -3.0585   19.2485 C.ar    1  UNL1        0.0984
     19 C           3.5517   -4.5472   19.1786 C.ar    1  UNL1        0.1193
     20 N           4.2281   -4.9960   20.4400 N.ar    1  UNL1       -0.2223
     21 C           4.4757   -3.7848   21.2895 C.ar    1  UNL1        0.1790
     22 N           4.0795    0.1155   32.2880 N.am    1  UNL1       -0.2212
     23 C           4.3136    1.3802   33.0599 C.3     1  UNL1        0.1471
     24 C           4.4262    1.0227   34.5123 C.3     1  UNL1        0.2149
     25 O           4.2616   -0.4630   34.6380 O.3     1  UNL1       -0.4342
     26 C           4.0474   -1.0236   33.2633 C.2     1  UNL1        0.4088
     27 O           3.8378   -2.4696   32.9237 O.2     1  UNL1       -0.2258
     28 C           4.6619    1.9823   35.6408 C.3     1  UNL1        0.1745
     29 N           3.9391    1.8012   36.9426 N.ar    1  UNL1       -0.2264
     30 C           2.5327    2.2315   37.2376 C.ar    1  UNL1        0.1193
     31 C           2.2202    1.8542   38.6553 C.ar    1  UNL1        0.1441
     32 N           3.4335    1.1908   39.2366 N.ar    1  UNL1       -0.1271
     33 N           4.4958    1.1580   38.1782 N.ar    1  UNL1       -0.0636
@<TRIPOS>BOND
     1    14    15    2
     2    15    16    1
     3    16    17    1
     4    17    18   ar
     5    18    19   ar
     6    19    20   ar
     7    20    21   ar
     8    15     8    1
     9     8     9   ar
    10     9    10   ar
    11    10    11   ar
    12    11     1    1
    13     1     2   ar
    14     2     3   ar
    15     3     4   ar
    16     4    22    1
    17    22    23    1
    18    23    24    1
    19    24    28    1
    20    28    29    1
    21    29    30   ar
    22    30    31   ar
    23    31    32   ar
    24    32    33   ar
    25    24    25    1
    26    25    26    1
    27    26    27    2
    28     4     5   ar
    29     5     6   ar
    30     6     7    1
    31    11    12   ar
    32    12    13   ar
    33    21    17   ar
    34    13     8   ar
    35     6     1   ar
    36    26    22   am
    37    33    29   ar
@<TRIPOS>MOLECULE
*****
 33 37 0 0 0
SMALL
GASTEIGER

@<TRIPOS>ATOM
      1 C           3.8072   -0.4942   28.1069 C.ar    1  UNL1        0.0291
      2 C           5.1430   -0.2888   28.7575 C.ar    1  UNL1        0.0036
      3 C           5.2386   -0.1560   30.2486 C.ar    1  UNL1        0.0152
      4 C           3.9982   -0.2285   31.0891 C.ar    1  UNL1        0.0593
      5 C           2.6624   -0.4339   30.4384 C.ar    1  UNL1        0.0446
      6 C           2.5669   -0.5667   28.9474 C.ar    1  UNL1        0.1414
      7 F           1.2310   -0.7721   28.2967 F       1  UNL1       -0.2041
      8 C           3.5206   -0.8928   23.6338 C.ar    1  UNL1        0.1178
      9 C           4.4031   -1.8211   24.4145 C.ar    1  UNL1        0.0221
     10 C           4.4987   -1.6882   25.9055 C.ar    1  UNL1        0.0033
     11 C           3.7116   -0.6271   26.6158 C.ar    1  UNL1        0.0213
     12 C           2.8291    0.3012   25.8352 C.ar    1  UNL1        0.0990
     13 N           2.7336    0.1683   24.3442 N.ar    1  UNL1       -0.2409
     14 O           2.7667    0.0528   21.3343 O.2     1  UNL1       -0.2877
     15 C           3.4251   -1.0257   22.1427 C.2     1  UNL1        0.2133
     16 C           3.9879   -2.2369   21.4601 C.3     1  UNL1        0.1784
     17 N           4.6191   -2.1089   20.1053 N.ar    1  UNL1       -0.3003
     18 C           6.0746   -1.8736   19.8295 C.ar    1  UNL1        0.0984
     19 C           6.2607   -1.8130   18.3423 C.ar    1  UNL1        0.1193
     20 N           4.9201   -2.0110   17.6990 N.ar    1  UNL1       -0.2223
     21 C           3.9056   -2.1939   18.7886 C.ar    1  UNL1        0.1790
     22 N           4.0937   -0.0956   32.5801 N.am    1  UNL1       -0.2212
     23 C           4.1671    1.1910   33.3477 C.3     1  UNL1        0.1471
     24 C           4.2514    0.8557   34.8073 C.3     1  UNL1        0.2149
     25 O           4.2300   -0.6382   34.9418 O.3     1  UNL1       -0.4342
     26 C           4.1326   -1.2261   33.5652 C.2     1  UNL1        0.4088
     27 O           4.0829   -2.6878   33.2324 O.2     1  UNL1       -0.2258
     28 C           4.3411    1.8412   35.9346 C.3     1  UNL1        0.1745
     29 N           3.2496    1.9078   36.9613 N.ar    1  UNL1       -0.2264
     30 C           3.1484    1.0631   38.1967 C.ar    1  UNL1        0.1193
     31 C           1.9039    1.4641   38.9317 C.ar    1  UNL1        0.1441
     32 N           1.2358    2.5567   38.1506 N.ar    1  UNL1       -0.1271
     33 N           2.0675    2.8309   36.9328 N.ar    1  UNL1       -0.0636
@<TRIPOS>BOND
     1    14    15    2
     2    15    16    1
     3    16    17    1
     4    17    18   ar
     5    18    19   ar
     6    19    20   ar
     7    20    21   ar
     8    15     8    1
     9     8     9   ar
    10     9    10   ar
    11    10    11   ar
    12    11     1    1
    13     1     2   ar
    14     2     3   ar
    15     3     4   ar
    16     4    22    1
    17    22    23    1
    18    23    24    1
    19    24    28    1
    20    28    29    1
    21    29    30   ar
    22    30    31   ar
    23    31    32   ar
    24    32    33   ar
    25    24    25    1
    26    25    26    1
    27    26    27    2
    28     4     5   ar
    29     5     6   ar
    30     6     7    1
    31    11    12   ar
    32    12    13   ar
    33    21    17   ar
    34    13     8   ar
    35     6     1   ar
    36    26    22   am
    37    33    29   ar
