@<TRIPOS>MOLECULE
*****
 31 34 0 0 0
SMALL
GASTEIGER

@<TRIPOS>ATOM
      1 C          -6.5505  -18.4031   21.9802 C.ar    1  UNL1        0.0306
      2 C          -7.6325  -18.4863   20.9447 C.ar    1  UNL1        0.0141
      3 C          -7.7090  -19.6755   20.0337 C.ar    1  UNL1        0.0579
      4 CL         -8.7910  -19.7587   18.9982 Cl      1  UNL1       -0.0822
      5 C          -6.7034  -20.7816   20.1582 C.ar    1  UNL1        0.0145
      6 C          -5.6213  -20.6985   21.1938 C.ar    1  UNL1        0.0378
      7 C          -5.5450  -19.5092   22.1047 C.ar    1  UNL1        0.1387
      8 C          -7.6206  -16.3319   23.2877 C.2     1  UNL1       -0.0084
      9 C          -6.4740  -17.2139   22.8912 C.2     1  UNL1       -0.0217
     10 C          -5.2374  -16.6979   23.5655 C.3     1  UNL1        0.0265
     11 C          -5.6198  -15.4970   24.3788 C.3     1  UNL1        0.0094
     12 C          -7.0927  -15.2707   24.2072 C.3     1  UNL1        0.0279
     13 CA        -10.9029  -16.0905   21.0700 C.ar    1  UNL1        0.0952
     14 C         -11.8938  -16.7889   21.9534 C.ar    1  UNL1        0.0203
     15 C         -11.4603  -17.3349   23.2816 C.ar    1  UNL1        0.0031
     16 C         -10.0359  -17.1826   23.7263 C.ar    1  UNL1        0.0188
     17 C          -9.0450  -16.4842   22.8429 C.ar    1  UNL1        0.0770
     18 N          -9.4785  -15.9382   21.5148 N.ar    1  UNL1       -0.2445
     19 O         -12.7316  -15.7908   19.2490 O.co2   1  UNL1       -0.5430
     20 C         -11.3364  -15.5445   19.7419 C.2     1  UNL1        0.0905
     21 OXT       -10.3748  -14.7523   18.9067 O.co2   1  UNL1       -0.5430
     22 O          -4.4629  -19.4260   23.1403 O.3     1  UNL1       -0.4706
     23 C          -3.0410  -19.1943   22.7223 C.3     1  UNL1        0.2342
     24 C          -2.7390  -18.6632   21.3524 C.ar    1  UNL1        0.0488
     25 C          -2.9408  -19.5352   20.1487 C.ar    1  UNL1        0.0039
     26 C          -2.6388  -19.0041   18.7787 C.ar    1  UNL1        0.0296
     27 C          -2.1350  -17.6011   18.6125 C.ar    1  UNL1        0.1424
     28 F          -1.8329  -17.0700   17.2425 F       1  UNL1       -0.2041
     29 C          -1.9331  -16.7291   19.8163 C.ar    1  UNL1        0.0590
     30 C          -2.2351  -17.2601   21.1862 C.ar    1  UNL1        0.1418
     31 F          -2.0333  -16.3882   22.3899 F       1  UNL1       -0.2043
@<TRIPOS>UNITY_ATOM_ATTR
19 1
charge -1
@<TRIPOS>BOND
     1    19    20   ar
     2    20    21   ar
     3    20    13    1
     4    13    14   ar
     5    14    15   ar
     6    15    16   ar
     7    16    17   ar
     8    17     8    1
     9     8     9    2
    10     9     1    1
    11     1     2   ar
    12     2     3   ar
    13     3     4    1
    14     3     5   ar
    15     5     6   ar
    16     6     7   ar
    17     7    22    1
    18    22    23    1
    19    23    24    1
    20    24    25   ar
    21    25    26   ar
    22    26    27   ar
    23    27    28    1
    24    27    29   ar
    25    29    30   ar
    26    30    31    1
    27     9    10    1
    28    10    11    1
    29    11    12    1
    30    17    18   ar
    31    18    13   ar
    32    12     8    1
    33     7     1   ar
    34    30    24   ar
@<TRIPOS>MOLECULE
*****
 31 34 0 0 0
SMALL
GASTEIGER

@<TRIPOS>ATOM
      1 C          -7.0296  -18.4272   21.6525 C.ar    1  UNL1        0.0306
      2 C          -7.4352  -17.1447   22.3163 C.ar    1  UNL1        0.0141
      3 C          -6.5143  -16.4852   23.2997 C.ar    1  UNL1        0.0579
      4 CL         -6.9200  -15.2027   23.9634 Cl      1  UNL1       -0.0822
      5 C          -5.1878  -17.1082   23.6194 C.ar    1  UNL1        0.0145
      6 C          -4.7821  -18.3908   22.9556 C.ar    1  UNL1        0.0378
      7 C          -5.7030  -19.0502   21.9722 C.ar    1  UNL1        0.1387
      8 C          -9.3525  -19.5434   20.9436 C.2     1  UNL1       -0.0084
      9 C          -7.9504  -19.0867   20.6691 C.2     1  UNL1       -0.0217
     10 C          -7.6307  -19.4052   19.2386 C.3     1  UNL1        0.0265
     11 C          -8.8354  -20.0588   18.6289 C.3     1  UNL1        0.0094
     12 C          -9.8995  -20.1443   19.6826 C.3     1  UNL1        0.0279
     13 CA        -12.0653  -18.4854   23.6401 C.ar    1  UNL1        0.0952
     14 C         -11.5350  -19.1757   24.8616 C.ar    1  UNL1        0.0203
     15 C         -10.2772  -19.9886   24.7771 C.ar    1  UNL1        0.0031
     16 C          -9.5497  -20.1112   23.4711 C.ar    1  UNL1        0.0188
     17 C         -10.0800  -19.4208   22.2496 C.ar    1  UNL1        0.0770
     18 N         -11.3379  -18.6079   22.3341 N.ar    1  UNL1       -0.2445
     19 O         -14.4882  -18.1745   24.5251 O.co2   1  UNL1       -0.5430
     20 C         -13.3232  -17.6725   23.7245 C.2     1  UNL1        0.0905
     21 OXT       -13.4159  -16.3577   23.0086 O.co2   1  UNL1       -0.5430
     22 O          -5.2973  -20.3328   21.3084 O.3     1  UNL1       -0.4706
     23 C          -4.4267  -20.3026   20.0873 C.3     1  UNL1        0.2342
     24 C          -3.2926  -19.3249   19.9988 C.ar    1  UNL1        0.0488
     25 C          -3.2724  -18.2967   18.9069 C.ar    1  UNL1        0.0039
     26 C          -2.1382  -17.3189   18.8184 C.ar    1  UNL1        0.0296
     27 C          -1.0244  -17.3694   19.8218 C.ar    1  UNL1        0.1424
     28 F           0.1097  -16.3917   19.7332 F       1  UNL1       -0.2041
     29 C          -1.0447  -18.3977   20.9137 C.ar    1  UNL1        0.0590
     30 C          -2.1788  -19.3754   21.0022 C.ar    1  UNL1        0.1418
     31 F          -2.1990  -20.4036   22.0941 F       1  UNL1       -0.2043
@<TRIPOS>UNITY_ATOM_ATTR
19 1
charge -1
@<TRIPOS>BOND
     1    19    20   ar
     2    20    21   ar
     3    20    13    1
     4    13    14   ar
     5    14    15   ar
     6    15    16   ar
     7    16    17   ar
     8    17     8    1
     9     8     9    2
    10     9     1    1
    11     1     2   ar
    12     2     3   ar
    13     3     4    1
    14     3     5   ar
    15     5     6   ar
    16     6     7   ar
    17     7    22    1
    18    22    23    1
    19    23    24    1
    20    24    25   ar
    21    25    26   ar
    22    26    27   ar
    23    27    28    1
    24    27    29   ar
    25    29    30   ar
    26    30    31    1
    27     9    10    1
    28    10    11    1
    29    11    12    1
    30    17    18   ar
    31    18    13   ar
    32    12     8    1
    33     7     1   ar
    34    30    24   ar
@<TRIPOS>MOLECULE
*****
 31 34 0 0 0
SMALL
GASTEIGER

@<TRIPOS>ATOM
      1 C          -8.3666  -17.0835   24.2049 C.ar    1  UNL1        0.0306
      2 C          -7.9135  -16.7883   25.6040 C.ar    1  UNL1        0.0141
      3 C          -7.1287  -15.5426   25.8912 C.ar    1  UNL1        0.0579
      4 CL         -6.6757  -15.2475   27.2904 Cl      1  UNL1       -0.0822
      5 C          -6.7970  -14.5921   24.7793 C.ar    1  UNL1        0.0145
      6 C          -7.2501  -14.8872   23.3800 C.ar    1  UNL1        0.0378
      7 C          -8.0348  -16.1329   23.0930 C.ar    1  UNL1        0.1387
      8 C          -8.8080  -19.3712   22.8950 C.2     1  UNL1       -0.0084
      9 C          -9.1513  -18.3291   23.9177 C.2     1  UNL1       -0.0217
     10 C         -10.4172  -18.7513   24.6029 C.3     1  UNL1        0.0265
     11 C         -10.8562  -20.0544   24.0036 C.3     1  UNL1        0.0094
     12 C          -9.8617  -20.4375   22.9480 C.3     1  UNL1        0.0279
     13 CA         -5.0472  -19.2363   21.6350 C.ar    1  UNL1        0.0952
     14 C          -5.2431  -19.3097   20.1497 C.ar    1  UNL1        0.0203
     15 C          -6.6273  -19.4036   19.5794 C.ar    1  UNL1        0.0031
     16 C          -7.8156  -19.4241   20.4945 C.ar    1  UNL1        0.0188
     17 C          -7.6197  -19.3507   21.9799 C.ar    1  UNL1        0.0770
     18 N          -6.2355  -19.2568   22.5501 N.ar    1  UNL1       -0.2445
     19 O          -3.3561  -18.1270   23.2658 O.co2   1  UNL1       -0.5430
     20 C          -3.6629  -19.1424   22.2052 C.2     1  UNL1        0.0905
     21 OXT        -2.5857  -20.0638   21.7149 O.co2   1  UNL1       -0.5430
     22 O          -8.4879  -16.4281   21.6937 O.3     1  UNL1       -0.4706
     23 C          -9.8253  -15.9414   21.2201 C.3     1  UNL1        0.2342
     24 C         -11.0812  -16.5800   21.7349 C.ar    1  UNL1        0.0488
     25 C         -11.8011  -15.9813   22.9066 C.ar    1  UNL1        0.0039
     26 C         -13.0570  -16.6200   23.4214 C.ar    1  UNL1        0.0296
     27 C         -13.5929  -17.8574   22.7644 C.ar    1  UNL1        0.1424
     28 F         -14.8487  -18.4960   23.2791 F       1  UNL1       -0.2041
     29 C         -12.8729  -18.4561   21.5925 C.ar    1  UNL1        0.0590
     30 C         -11.6170  -17.8175   21.0777 C.ar    1  UNL1        0.1418
     31 F         -10.8971  -18.4161   19.9060 F       1  UNL1       -0.2043
@<TRIPOS>UNITY_ATOM_ATTR
19 1
charge -1
@<TRIPOS>BOND
     1    19    20   ar
     2    20    21   ar
     3    20    13    1
     4    13    14   ar
     5    14    15   ar
     6    15    16   ar
     7    16    17   ar
     8    17     8    1
     9     8     9    2
    10     9     1    1
    11     1     2   ar
    12     2     3   ar
    13     3     4    1
    14     3     5   ar
    15     5     6   ar
    16     6     7   ar
    17     7    22    1
    18    22    23    1
    19    23    24    1
    20    24    25   ar
    21    25    26   ar
    22    26    27   ar
    23    27    28    1
    24    27    29   ar
    25    29    30   ar
    26    30    31    1
    27     9    10    1
    28    10    11    1
    29    11    12    1
    30    17    18   ar
    31    18    13   ar
    32    12     8    1
    33     7     1   ar
    34    30    24   ar
@<TRIPOS>MOLECULE
*****
 31 34 0 0 0
SMALL
GASTEIGER

@<TRIPOS>ATOM
      1 C         -10.3566  -17.4982   22.5834 C.ar    1  UNL1        0.0306
      2 C         -11.6508  -17.4441   23.3397 C.ar    1  UNL1        0.0141
      3 C         -12.0745  -18.6083   24.1855 C.ar    1  UNL1        0.0579
      4 CL        -13.3687  -18.5541   24.9418 Cl      1  UNL1       -0.0822
      5 C         -11.2040  -19.8266   24.2748 C.ar    1  UNL1        0.0145
      6 C          -9.9098  -19.8807   23.5184 C.ar    1  UNL1        0.0378
      7 C          -9.4862  -18.7165   22.6728 C.ar    1  UNL1        0.1387
      8 C          -8.8086  -15.3881   22.0394 C.2     1  UNL1       -0.0084
      9 C          -9.9329  -16.3341   21.7377 C.2     1  UNL1       -0.0217
     10 C         -10.5591  -15.9116   20.4417 C.3     1  UNL1        0.0265
     11 C          -9.8218  -14.7045   19.9425 C.3     1  UNL1        0.0094
     12 C          -8.7400  -14.3809   20.9299 C.3     1  UNL1        0.0279
     13 CA         -7.6043  -15.5694   25.8165 C.ar    1  UNL1        0.0952
     14 C          -6.1148  -15.5442   25.6406 C.ar    1  UNL1        0.0203
     15 C          -5.5233  -15.4669   24.2643 C.ar    1  UNL1        0.0031
     16 C          -6.4213  -15.4149   23.0639 C.ar    1  UNL1        0.0188
     17 C          -7.9107  -15.4401   23.2398 C.ar    1  UNL1        0.0770
     18 N          -8.5022  -15.5174   24.6161 N.ar    1  UNL1       -0.2445
     19 O          -8.3171  -14.4064   28.0276 O.co2   1  UNL1       -0.5430
     20 C          -8.1958  -15.6467   27.1928 C.2     1  UNL1        0.0905
     21 OXT        -8.6658  -16.9643   27.7342 O.co2   1  UNL1       -0.5430
     22 O          -8.1919  -18.7707   21.9164 O.3     1  UNL1       -0.4706
     23 C          -7.2164  -19.8798   22.1776 C.3     1  UNL1        0.2342
     24 C          -5.7900  -19.7442   21.7337 C.ar    1  UNL1        0.0488
     25 C          -4.8609  -18.8225   22.4665 C.ar    1  UNL1        0.0039
     26 C          -3.4344  -18.6869   22.0225 C.ar    1  UNL1        0.0296
     27 C          -2.9372  -19.4730   20.8458 C.ar    1  UNL1        0.1424
     28 F          -1.5109  -19.3373   20.4018 F       1  UNL1       -0.2041
     29 C          -3.8665  -20.3947   20.1130 C.ar    1  UNL1        0.0590
     30 C          -5.2928  -20.5304   20.5569 C.ar    1  UNL1        0.1418
     31 F          -6.2219  -21.4521   19.8241 F       1  UNL1       -0.2043
@<TRIPOS>UNITY_ATOM_ATTR
19 1
charge -1
@<TRIPOS>BOND
     1    19    20   ar
     2    20    21   ar
     3    20    13    1
     4    13    14   ar
     5    14    15   ar
     6    15    16   ar
     7    16    17   ar
     8    17     8    1
     9     8     9    2
    10     9     1    1
    11     1     2   ar
    12     2     3   ar
    13     3     4    1
    14     3     5   ar
    15     5     6   ar
    16     6     7   ar
    17     7    22    1
    18    22    23    1
    19    23    24    1
    20    24    25   ar
    21    25    26   ar
    22    26    27   ar
    23    27    28    1
    24    27    29   ar
    25    29    30   ar
    26    30    31    1
    27     9    10    1
    28    10    11    1
    29    11    12    1
    30    17    18   ar
    31    18    13   ar
    32    12     8    1
    33     7     1   ar
    34    30    24   ar
@<TRIPOS>MOLECULE
*****
 31 34 0 0 0
SMALL
GASTEIGER

@<TRIPOS>ATOM
      1 C          -8.6446  -17.6017   24.1865 C.ar    1  UNL1        0.0306
      2 C          -8.9897  -16.8668   25.4477 C.ar    1  UNL1        0.0141
      3 C          -8.1504  -15.7061   25.8931 C.ar    1  UNL1        0.0579
      4 CL         -8.4955  -14.9713   27.1544 Cl      1  UNL1       -0.0822
      5 C          -6.9659  -15.2803   25.0772 C.ar    1  UNL1        0.0145
      6 C          -6.6207  -16.0151   23.8158 C.ar    1  UNL1        0.0378
      7 C          -7.4601  -17.1758   23.3705 C.ar    1  UNL1        0.1387
      8 C         -10.4360  -18.7685   22.5820 C.2     1  UNL1       -0.0084
      9 C          -9.4839  -18.7624   23.7411 C.2     1  UNL1       -0.0217
     10 C          -9.5185  -20.1207   24.3766 C.3     1  UNL1        0.0265
     11 C         -10.4919  -20.9663   23.6102 C.3     1  UNL1        0.0094
     12 C         -11.0590  -20.1306   22.5011 C.3     1  UNL1        0.0279
     13 CA         -9.9436  -15.4192   20.5109 C.ar    1  UNL1        0.0952
     14 C         -11.2758  -15.3082   19.8305 C.ar    1  UNL1        0.0203
     15 C         -12.3280  -16.3507   20.0672 C.ar    1  UNL1        0.0031
     16 C         -12.0481  -17.5041   20.9844 C.ar    1  UNL1        0.0188
     17 C         -10.7159  -17.6151   21.6648 C.ar    1  UNL1        0.0770
     18 N          -9.6637  -16.5726   21.4280 N.ar    1  UNL1       -0.2445
     19 O          -9.1347  -13.2771   19.2833 O.co2   1  UNL1       -0.5430
     20 C          -8.8914  -14.3767   20.2741 C.2     1  UNL1        0.0905
     21 OXT        -7.5959  -14.4338   21.0281 O.co2   1  UNL1       -0.5430
     22 O          -7.1150  -17.9107   22.1092 O.3     1  UNL1       -0.4706
     23 C          -6.2108  -19.1064   22.1613 C.3     1  UNL1        0.2342
     24 C          -4.8356  -19.0333   21.5669 C.ar    1  UNL1        0.0488
     25 C          -4.6198  -19.3995   20.1284 C.ar    1  UNL1        0.0039
     26 C          -3.2445  -19.3264   19.5340 C.ar    1  UNL1        0.0296
     27 C          -2.0850  -18.8871   20.3781 C.ar    1  UNL1        0.1424
     28 F          -0.7098  -18.8140   19.7837 F       1  UNL1       -0.2041
     29 C          -2.3008  -18.5209   21.8167 C.ar    1  UNL1        0.0590
     30 C          -3.6761  -18.5940   22.4111 C.ar    1  UNL1        0.1418
     31 F          -3.8918  -18.2278   23.8495 F       1  UNL1       -0.2043
@<TRIPOS>UNITY_ATOM_ATTR
19 1
charge -1
@<TRIPOS>BOND
     1    19    20   ar
     2    20    21   ar
     3    20    13    1
     4    13    14   ar
     5    14    15   ar
     6    15    16   ar
     7    16    17   ar
     8    17     8    1
     9     8     9    2
    10     9     1    1
    11     1     2   ar
    12     2     3   ar
    13     3     4    1
    14     3     5   ar
    15     5     6   ar
    16     6     7   ar
    17     7    22    1
    18    22    23    1
    19    23    24    1
    20    24    25   ar
    21    25    26   ar
    22    26    27   ar
    23    27    28    1
    24    27    29   ar
    25    29    30   ar
    26    30    31    1
    27     9    10    1
    28    10    11    1
    29    11    12    1
    30    17    18   ar
    31    18    13   ar
    32    12     8    1
    33     7     1   ar
    34    30    24   ar
@<TRIPOS>MOLECULE
*****
 31 34 0 0 0
SMALL
GASTEIGER

@<TRIPOS>ATOM
      1 C          -7.7834  -18.2112   22.5722 C.ar    1  UNL1        0.0306
      2 C          -7.0682  -16.9176   22.8273 C.ar    1  UNL1        0.0141
      3 C          -7.4644  -16.0583   23.9911 C.ar    1  UNL1        0.0579
      4 CL         -6.7490  -14.7648   24.2461 Cl      1  UNL1       -0.0822
      5 C          -8.5759  -16.4925   24.8999 C.ar    1  UNL1        0.0145
      6 C          -9.2913  -17.7861   24.6448 C.ar    1  UNL1        0.0378
      7 C          -8.8950  -18.6453   23.4810 C.ar    1  UNL1        0.1387
      8 C          -5.9845  -19.3526   20.9579 C.2     1  UNL1       -0.0084
      9 C          -7.3872  -19.0705   21.4083 C.2     1  UNL1       -0.0217
     10 C          -8.3241  -19.7987   20.4907 C.3     1  UNL1        0.0265
     11 C          -7.5004  -20.5308   19.4730 C.3     1  UNL1        0.0094
     12 C          -6.0545  -20.2551   19.7617 C.3     1  UNL1        0.0279
     13 CA         -2.2739  -18.0103   21.3807 C.ar    1  UNL1        0.0952
     14 C          -2.2265  -17.7694   22.8605 C.ar    1  UNL1        0.0203
     15 C          -3.4318  -18.0562   23.7060 C.ar    1  UNL1        0.0031
     16 C          -4.6845  -18.5839   23.0718 C.ar    1  UNL1        0.0188
     17 C          -4.7319  -18.8248   21.5921 C.ar    1  UNL1        0.0770
     18 N          -3.5265  -18.5380   20.7465 N.ar    1  UNL1       -0.2445
     19 O          -0.5832  -16.3131   20.3750 O.co2   1  UNL1       -0.5430
     20 C          -1.0685  -17.7234   20.5352 C.2     1  UNL1        0.0905
     21 OXT        -0.3486  -18.8468   19.8498 O.co2   1  UNL1       -0.5430
     22 O          -9.6104  -19.9390   23.2259 O.3     1  UNL1       -0.4706
     23 C         -10.9786  -19.9308   22.6112 C.3     1  UNL1        0.2342
     24 C         -11.4287  -18.7531   21.7985 C.ar    1  UNL1        0.0488
     25 C         -10.9787  -18.6081   20.3751 C.ar    1  UNL1        0.0039
     26 C         -11.4289  -17.4303   19.5624 C.ar    1  UNL1        0.0296
     27 C         -12.3290  -16.3976   20.1733 C.ar    1  UNL1        0.1424
     28 F         -12.7791  -15.2199   19.3607 F       1  UNL1       -0.2041
     29 C         -12.7789  -16.5426   21.5969 C.ar    1  UNL1        0.0590
     30 C         -12.3288  -17.7203   22.4096 C.ar    1  UNL1        0.1418
     31 F         -12.7788  -17.8653   23.8330 F       1  UNL1       -0.2043
@<TRIPOS>UNITY_ATOM_ATTR
19 1
charge -1
@<TRIPOS>BOND
     1    19    20   ar
     2    20    21   ar
     3    20    13    1
     4    13    14   ar
     5    14    15   ar
     6    15    16   ar
     7    16    17   ar
     8    17     8    1
     9     8     9    2
    10     9     1    1
    11     1     2   ar
    12     2     3   ar
    13     3     4    1
    14     3     5   ar
    15     5     6   ar
    16     6     7   ar
    17     7    22    1
    18    22    23    1
    19    23    24    1
    20    24    25   ar
    21    25    26   ar
    22    26    27   ar
    23    27    28    1
    24    27    29   ar
    25    29    30   ar
    26    30    31    1
    27     9    10    1
    28    10    11    1
    29    11    12    1
    30    17    18   ar
    31    18    13   ar
    32    12     8    1
    33     7     1   ar
    34    30    24   ar
@<TRIPOS>MOLECULE
*****
 31 34 0 0 0
SMALL
GASTEIGER

@<TRIPOS>ATOM
      1 C         -11.7324   -4.5250   18.8221 C.ar    1  UNL1        0.0306
      2 C         -11.2666   -5.9428   18.9722 C.ar    1  UNL1        0.0141
      3 C         -10.0009   -6.3913   18.3038 C.ar    1  UNL1        0.0579
      4 CL         -9.5352   -7.8093   18.4539 Cl      1  UNL1       -0.0822
      5 C          -9.2009   -5.4219   17.4851 C.ar    1  UNL1        0.0145
      6 C          -9.6667   -4.0039   17.3349 C.ar    1  UNL1        0.0378
      7 C         -10.9324   -3.5555   18.0034 C.ar    1  UNL1        0.1387
      8 C         -14.3565   -4.6847   19.3049 C.2     1  UNL1       -0.0084
      9 C         -12.9981   -4.0765   19.4906 C.2     1  UNL1       -0.0217
     10 C         -13.1275   -2.9409   20.4621 C.3     1  UNL1        0.0265
     11 C         -14.5659   -2.8474   20.8769 C.3     1  UNL1        0.0094
     12 C         -15.3256   -3.9251   20.1617 C.3     1  UNL1        0.0279
     13 CA        -15.3178   -8.3527   18.1336 C.ar    1  UNL1        0.0952
     14 C         -15.3505   -8.1753   16.6445 C.ar    1  UNL1        0.0203
     15 C         -15.0519   -6.8344   16.0422 C.ar    1  UNL1        0.0031
     16 C         -14.7206   -5.6709   16.9290 C.ar    1  UNL1        0.0188
     17 C         -14.6879   -5.8483   18.4181 C.ar    1  UNL1        0.0770
     18 N         -14.9864   -7.1892   19.0204 N.ar    1  UNL1       -0.2445
     19 O         -16.3733   -9.7837   20.0278 O.co2   1  UNL1       -0.5430
     20 C         -15.6163   -9.6937   18.7360 C.2     1  UNL1        0.0905
     21 OXT       -15.1580  -10.9444   18.0465 O.co2   1  UNL1       -0.5430
     22 O         -11.3981   -2.1375   17.8532 O.3     1  UNL1       -0.4706
     23 C         -12.4492   -1.7968   16.8388 C.3     1  UNL1        0.2342
     24 C         -13.8146   -1.3685   17.2884 C.ar    1  UNL1        0.0488
     25 C         -15.0292   -2.0996   16.7984 C.ar    1  UNL1        0.0039
     26 C         -16.3947   -1.6713   17.2481 C.ar    1  UNL1        0.0296
     27 C         -16.5455   -0.5119   18.1877 C.ar    1  UNL1        0.1424
     28 F         -17.9110   -0.0837   18.6374 F       1  UNL1       -0.2041
     29 C         -15.3308    0.2192   18.6777 C.ar    1  UNL1        0.0590
     30 C         -13.9654   -0.2090   18.2281 C.ar    1  UNL1        0.1418
     31 F         -12.7509    0.5221   18.7181 F       1  UNL1       -0.2043
@<TRIPOS>UNITY_ATOM_ATTR
19 1
charge -1
@<TRIPOS>BOND
     1    19    20   ar
     2    20    21   ar
     3    20    13    1
     4    13    14   ar
     5    14    15   ar
     6    15    16   ar
     7    16    17   ar
     8    17     8    1
     9     8     9    2
    10     9     1    1
    11     1     2   ar
    12     2     3   ar
    13     3     4    1
    14     3     5   ar
    15     5     6   ar
    16     6     7   ar
    17     7    22    1
    18    22    23    1
    19    23    24    1
    20    24    25   ar
    21    25    26   ar
    22    26    27   ar
    23    27    28    1
    24    27    29   ar
    25    29    30   ar
    26    30    31    1
    27     9    10    1
    28    10    11    1
    29    11    12    1
    30    17    18   ar
    31    18    13   ar
    32    12     8    1
    33     7     1   ar
    34    30    24   ar
@<TRIPOS>MOLECULE
*****
 31 34 0 0 0
SMALL
GASTEIGER

@<TRIPOS>ATOM
      1 C          -9.3870  -19.1869   22.1322 C.ar    1  UNL1        0.0306
      2 C          -9.6260  -20.3435   23.0569 C.ar    1  UNL1        0.0141
      3 C          -9.8093  -20.1036   24.5262 C.ar    1  UNL1        0.0579
      4 CL        -10.0483  -21.2603   25.4508 Cl      1  UNL1       -0.0822
      5 C          -9.7535  -18.7071   25.0709 C.ar    1  UNL1        0.0145
      6 C          -9.5144  -17.5504   24.1462 C.ar    1  UNL1        0.0378
      7 C          -9.3312  -17.7904   22.6769 C.ar    1  UNL1        0.1387
      8 C          -7.8920  -19.5153   19.9409 C.2     1  UNL1       -0.0084
      9 C          -9.2038  -19.4267   20.6629 C.2     1  UNL1       -0.0217
     10 C         -10.3002  -19.6200   19.6576 C.3     1  UNL1        0.0265
     11 C          -9.6660  -19.8281   18.3143 C.3     1  UNL1        0.0094
     12 C          -8.1777  -19.7634   18.4894 C.3     1  UNL1        0.0279
     13 CA         -4.0374  -18.6803   20.3822 C.ar    1  UNL1        0.0952
     14 C          -3.8154  -19.1085   21.8025 C.ar    1  UNL1        0.0203
     15 C          -4.9523  -19.6723   22.6023 C.ar    1  UNL1        0.0031
     16 C          -6.3111  -19.8079   21.9818 C.ar    1  UNL1        0.0188
     17 C          -6.5331  -19.3797   20.5615 C.ar    1  UNL1        0.0770
     18 N          -5.3962  -18.8159   19.7616 N.ar    1  UNL1       -0.2445
     19 O          -1.5185  -18.6763   19.7458 O.co2   1  UNL1       -0.5430
     20 C          -2.9005  -18.1165   19.5824 C.2     1  UNL1        0.0905
     21 OXT        -3.1457  -16.9931   18.6192 O.co2   1  UNL1       -0.5430
     22 O          -9.0921  -16.6336   21.7522 O.3     1  UNL1       -0.4706
     23 C          -8.3133  -15.4427   22.2267 C.3     1  UNL1        0.2342
     24 C          -7.3126  -15.5935   23.3338 C.ar    1  UNL1        0.0488
     25 C          -5.9532  -16.1575   23.0444 C.ar    1  UNL1        0.0039
     26 C          -4.9525  -16.3083   24.1517 C.ar    1  UNL1        0.0296
     27 C          -5.3113  -15.8952   25.5483 C.ar    1  UNL1        0.1424
     28 F          -4.3106  -16.0461   26.6555 F       1  UNL1       -0.2041
     29 C          -6.6708  -15.3313   25.8377 C.ar    1  UNL1        0.0590
     30 C          -7.6715  -15.1804   24.7305 C.ar    1  UNL1        0.1418
     31 F          -9.0309  -14.6165   25.0199 F       1  UNL1       -0.2043
@<TRIPOS>UNITY_ATOM_ATTR
19 1
charge -1
@<TRIPOS>BOND
     1    19    20   ar
     2    20    21   ar
     3    20    13    1
     4    13    14   ar
     5    14    15   ar
     6    15    16   ar
     7    16    17   ar
     8    17     8    1
     9     8     9    2
    10     9     1    1
    11     1     2   ar
    12     2     3   ar
    13     3     4    1
    14     3     5   ar
    15     5     6   ar
    16     6     7   ar
    17     7    22    1
    18    22    23    1
    19    23    24    1
    20    24    25   ar
    21    25    26   ar
    22    26    27   ar
    23    27    28    1
    24    27    29   ar
    25    29    30   ar
    26    30    31    1
    27     9    10    1
    28    10    11    1
    29    11    12    1
    30    17    18   ar
    31    18    13   ar
    32    12     8    1
    33     7     1   ar
    34    30    24   ar
@<TRIPOS>MOLECULE
*****
 31 34 0 0 0
SMALL
GASTEIGER

@<TRIPOS>ATOM
      1 C          -6.7433  -17.3506   23.0090 C.ar    1  UNL1        0.0306
      2 C          -5.9209  -16.8884   24.1752 C.ar    1  UNL1        0.0141
      3 C          -6.1719  -15.5400   24.7825 C.ar    1  UNL1        0.0579
      4 CL         -5.3495  -15.0778   25.9487 Cl      1  UNL1       -0.0822
      5 C          -7.2452  -14.6537   24.2235 C.ar    1  UNL1        0.0145
      6 C          -8.0677  -15.1159   23.0572 C.ar    1  UNL1        0.0378
      7 C          -7.8166  -16.4643   22.4501 C.ar    1  UNL1        0.1387
      8 C          -5.2217  -19.1461   21.7418 C.2     1  UNL1       -0.0084
      9 C          -6.4923  -18.6990   22.4018 C.2     1  UNL1       -0.0217
     10 C          -7.4680  -19.8371   22.3479 C.3     1  UNL1        0.0265
     11 C          -6.8003  -20.9876   21.6546 C.3     1  UNL1        0.0094
     12 C          -5.4120  -20.5605   21.2800 C.3     1  UNL1        0.0279
     13 CA         -1.7554  -17.8366   20.3207 C.ar    1  UNL1        0.0952
     14 C          -1.4934  -16.6776   21.2361 C.ar    1  UNL1        0.0203
     15 C          -2.4741  -16.3414   22.3202 C.ar    1  UNL1        0.0031
     16 C          -3.7169  -17.1643   22.4887 C.ar    1  UNL1        0.0188
     17 C          -3.9789  -18.3233   21.5733 C.ar    1  UNL1        0.0770
     18 N          -2.9981  -18.6594   20.4892 N.ar    1  UNL1       -0.2445
     19 O          -1.1018  -17.8610   17.8063 O.co2   1  UNL1       -0.5430
     20 C          -0.7746  -18.1727   19.2366 C.2     1  UNL1        0.0905
     21 OXT         0.5332  -18.8206   19.5829 O.co2   1  UNL1       -0.5430
     22 O          -8.6391  -16.9265   21.2838 O.3     1  UNL1       -0.4706
     23 C         -10.1110  -16.6404   21.2438 C.3     1  UNL1        0.2342
     24 C         -11.0156  -17.2152   22.2933 C.ar    1  UNL1        0.0488
     25 C         -10.4412  -18.0293   23.4144 C.ar    1  UNL1        0.0039
     26 C         -11.3458  -18.6041   24.4640 C.ar    1  UNL1        0.0296
     27 C         -12.8248  -18.3646   24.3923 C.ar    1  UNL1        0.1424
     28 F         -13.7294  -18.9393   25.4418 F       1  UNL1       -0.2041
     29 C         -13.3992  -17.5503   23.2710 C.ar    1  UNL1        0.0590
     30 C         -12.4947  -16.9756   22.2215 C.ar    1  UNL1        0.1418
     31 F         -13.0691  -16.1615   21.1004 F       1  UNL1       -0.2043
@<TRIPOS>UNITY_ATOM_ATTR
19 1
charge -1
@<TRIPOS>BOND
     1    19    20   ar
     2    20    21   ar
     3    20    13    1
     4    13    14   ar
     5    14    15   ar
     6    15    16   ar
     7    16    17   ar
     8    17     8    1
     9     8     9    2
    10     9     1    1
    11     1     2   ar
    12     2     3   ar
    13     3     4    1
    14     3     5   ar
    15     5     6   ar
    16     6     7   ar
    17     7    22    1
    18    22    23    1
    19    23    24    1
    20    24    25   ar
    21    25    26   ar
    22    26    27   ar
    23    27    28    1
    24    27    29   ar
    25    29    30   ar
    26    30    31    1
    27     9    10    1
    28    10    11    1
    29    11    12    1
    30    17    18   ar
    31    18    13   ar
    32    12     8    1
    33     7     1   ar
    34    30    24   ar
