@<TRIPOS>MOLECULE
*****
 33 36 0 0 0
SMALL
GASTEIGER

@<TRIPOS>ATOM
      1 C          -7.3491    5.5855   21.3937 C.3     1  UNL1        0.0952
      2 C          -6.3557    4.7361   20.6576 C.2     1  UNL1        0.2302
      3 O          -6.7032    4.1714   19.3122 O.2     1  UNL1       -0.2745
      4 N          -5.0150    4.4515   21.2670 N.am    1  UNL1       -0.2515
      5 C          -4.6675    5.0163   22.6124 C.2     1  UNL1        0.0695
      6 C          -3.3267    4.7317   23.2218 C.2     1  UNL1        0.0366
      7 C          -2.3334    3.8824   22.4857 C.ar    1  UNL1        0.0993
      8 N          -0.9926    3.5978   23.0951 N.ar    1  UNL1       -0.2267
      9 C           0.0007    2.7484   22.3590 C.ar    1  UNL1        0.1603
     10 C          -0.3467    2.1836   21.0135 C.ar    1  UNL1        0.1630
     11 N          -1.6875    2.4682   20.4041 N.ar    1  UNL1       -0.2289
     12 C          -2.6809    3.3176   21.1403 C.ar    1  UNL1        0.0985
     13 C          -4.0216    3.6022   20.5309 C.3     1  UNL1        0.1454
     14 N           0.6466    1.3342   20.2774 N.pl3   1  UNL1       -0.2908
     15 C           1.6016    1.9662   19.3085 C.3     1  UNL1        0.0960
     16 C           2.5949    1.1168   18.5725 C.3     1  UNL1        0.0650
     17 C           2.6333   -0.3645   18.8052 C.3     1  UNL1        0.1694
     18 C           1.6784   -0.9965   19.7740 C.3     1  UNL1        0.0650
     19 C           0.6850   -0.1471   20.5102 C.3     1  UNL1        0.0960
     20 O           3.6266   -1.2139   18.0692 O.3     1  UNL1       -0.4768
     21 C           4.6432   -2.0106   18.8320 C.ar    1  UNL1        0.1657
     22 C           5.9285   -1.3692   19.2639 C.ar    1  UNL1        0.0415
     23 C           6.9450   -2.1658   20.0267 C.ar    1  UNL1        0.0329
     24 C           6.6763   -3.6040   20.3576 C.ar    1  UNL1        0.1426
     25 F           7.6929   -4.4007   21.1204 F       1  UNL1       -0.2041
     26 C           5.3910   -4.2454   19.9256 C.ar    1  UNL1        0.0624
     27 C           4.3745   -3.4488   19.1628 C.ar    1  UNL1        0.1760
     28 F           3.0892   -4.0902   18.7309 F       1  UNL1       -0.2009
     29 N           1.3415    2.4638   22.9684 N.pl3   1  UNL1       -0.3175
     30 H           2.1084    3.0465   22.7647 H       1  UNL1        0.1482
     31 C           1.5137    1.2915   23.8881 C.3     1  UNL1        0.0706
     32 C           2.6157    0.3032   23.6452 C.3     1  UNL1        0.0212
     33 C           0.5839    1.1074   25.0507 C.3     1  UNL1        0.0212
@<TRIPOS>BOND
     1     1     2    1
     2     2     3    2
     3     2     4   am
     4     4     5    1
     5     5     6    2
     6     6     7    1
     7     7     8   ar
     8     8     9   ar
     9     9    29    1
    10    29    31    1
    11    31    32    1
    12    31    33    1
    13     9    10   ar
    14    10    14    1
    15    14    15    1
    16    15    16    1
    17    16    17    1
    18    17    20    1
    19    20    21    1
    20    21    22   ar
    21    22    23   ar
    22    23    24   ar
    23    24    25    1
    24    24    26   ar
    25    26    27   ar
    26    27    28    1
    27    17    18    1
    28    18    19    1
    29    10    11   ar
    30    11    12   ar
    31    12    13    1
    32    13     4    1
    33    12     7   ar
    34    19    14    1
    35    27    21   ar
    36    29    30    1
@<TRIPOS>MOLECULE
*****
 33 36 0 0 0
SMALL
GASTEIGER

@<TRIPOS>ATOM
      1 C           2.5930   -1.1764   19.4073 C.3     1  UNL1        0.0952
      2 C           2.8846   -1.1359   20.8781 C.2     1  UNL1        0.2302
      3 O           2.1109   -0.2116   21.7708 O.2     1  UNL1       -0.2745
      4 N           3.9498   -2.0198   21.4562 N.am    1  UNL1       -0.2515
      5 C           4.7234   -2.9441   20.5634 C.2     1  UNL1        0.0695
      6 C           5.7886   -3.8280   21.1415 C.2     1  UNL1        0.0366
      7 C           6.0801   -3.7875   22.6123 C.ar    1  UNL1        0.0993
      8 N           7.1453   -4.6714   23.1903 N.ar    1  UNL1       -0.2267
      9 C           7.4369   -4.6309   24.6611 C.ar    1  UNL1        0.1603
     10 C           6.6632   -3.7065   25.5540 C.ar    1  UNL1        0.1630
     11 N           5.5980   -2.8227   24.9759 N.ar    1  UNL1       -0.2289
     12 C           5.3065   -2.8632   23.5050 C.ar    1  UNL1        0.0985
     13 C           4.2413   -1.9793   22.9270 C.3     1  UNL1        0.1454
     14 N           6.9548   -3.6661   27.0248 N.pl3   1  UNL1       -0.2908
     15 C           6.4003   -4.7270   27.9288 C.3     1  UNL1        0.0960
     16 C           6.6918   -4.6865   29.3996 C.3     1  UNL1        0.0650
     17 C           7.5379   -3.5852   29.9665 C.3     1  UNL1        0.1694
     18 C           8.0924   -2.5243   29.0625 C.3     1  UNL1        0.0650
     19 C           7.8008   -2.5648   27.5916 C.3     1  UNL1        0.0960
     20 O           7.8294   -3.5447   31.4373 O.3     1  UNL1       -0.4768
     21 C           6.9954   -2.6889   32.3440 C.ar    1  UNL1        0.1657
     22 C           5.5645   -3.0515   32.6108 C.ar    1  UNL1        0.0415
     23 C           4.7305   -2.1958   33.5174 C.ar    1  UNL1        0.0329
     24 C           5.3273   -0.9774   34.1572 C.ar    1  UNL1        0.1426
     25 F           4.4932   -0.1216   35.0639 F       1  UNL1       -0.2041
     26 C           6.7581   -0.6148   33.8904 C.ar    1  UNL1        0.0624
     27 C           7.5922   -1.4706   32.9838 C.ar    1  UNL1        0.1760
     28 F           9.0230   -1.1080   32.7170 F       1  UNL1       -0.2009
     29 N           8.5021   -5.5148   25.2392 N.pl3   1  UNL1       -0.3175
     30 H           9.2727   -5.1168   25.7051 H       1  UNL1        0.1482
     31 C           8.3932   -7.0050   25.1074 C.3     1  UNL1        0.0706
     32 C           7.4199   -7.7642   25.9597 C.3     1  UNL1        0.0212
     33 C           9.2576   -7.7360   24.1234 C.3     1  UNL1        0.0212
@<TRIPOS>BOND
     1     1     2    1
     2     2     3    2
     3     2     4   am
     4     4     5    1
     5     5     6    2
     6     6     7    1
     7     7     8   ar
     8     8     9   ar
     9     9    29    1
    10    29    31    1
    11    31    32    1
    12    31    33    1
    13     9    10   ar
    14    10    14    1
    15    14    15    1
    16    15    16    1
    17    16    17    1
    18    17    20    1
    19    20    21    1
    20    21    22   ar
    21    22    23   ar
    22    23    24   ar
    23    24    25    1
    24    24    26   ar
    25    26    27   ar
    26    27    28    1
    27    17    18    1
    28    18    19    1
    29    10    11   ar
    30    11    12   ar
    31    12    13    1
    32    13     4    1
    33    12     7   ar
    34    19    14    1
    35    27    21   ar
    36    29    30    1
@<TRIPOS>MOLECULE
*****
 33 36 0 0 0
SMALL
GASTEIGER

@<TRIPOS>ATOM
      1 C           8.7010   -8.0081   26.1229 C.3     1  UNL1        0.0952
      2 C           8.4457   -7.4446   27.4893 C.2     1  UNL1        0.2302
      3 O           8.8672   -8.2116   28.7075 O.2     1  UNL1       -0.2745
      4 N           7.7691   -6.1141   27.6376 N.am    1  UNL1       -0.2515
      5 C           7.3477   -5.3471   26.4194 C.2     1  UNL1        0.0695
      6 C           6.6710   -4.0167   26.5676 C.2     1  UNL1        0.0366
      7 C           6.4158   -3.4532   27.9341 C.ar    1  UNL1        0.0993
      8 N           5.7391   -2.1227   28.0824 N.ar    1  UNL1       -0.2267
      9 C           5.4839   -1.5592   29.4488 C.ar    1  UNL1        0.1603
     10 C           5.9053   -2.3262   30.6671 C.ar    1  UNL1        0.1630
     11 N           6.5819   -3.6567   30.5189 N.ar    1  UNL1       -0.2289
     12 C           6.8372   -4.2201   29.1523 C.ar    1  UNL1        0.0985
     13 C           7.5138   -5.5506   29.0041 C.3     1  UNL1        0.1454
     14 N           5.6500   -1.7627   32.0336 N.pl3   1  UNL1       -0.2908
     15 C           6.5740   -0.7269   32.6023 C.3     1  UNL1        0.0960
     16 C           6.3188   -0.1634   33.9688 C.3     1  UNL1        0.0650
     17 C           5.1396   -0.6357   34.7666 C.3     1  UNL1        0.1694
     18 C           4.2157   -1.6715   34.1979 C.3     1  UNL1        0.0650
     19 C           4.4709   -2.2350   32.8314 C.3     1  UNL1        0.0960
     20 O           4.8843   -0.0722   36.1331 O.3     1  UNL1       -0.4768
     21 C           3.9607    1.0977   36.3014 C.ar    1  UNL1        0.1657
     22 C           3.5137    1.8791   35.1016 C.ar    1  UNL1        0.0415
     23 C           2.5902    3.0490   35.2699 C.ar    1  UNL1        0.0329
     24 C           2.1136    3.4375   36.6380 C.ar    1  UNL1        0.1426
     25 F           1.1900    4.6074   36.8064 F       1  UNL1       -0.2041
     26 C           2.5606    2.6561   37.8379 C.ar    1  UNL1        0.0624
     27 C           3.4841    1.4862   37.6696 C.ar    1  UNL1        0.1760
     28 F           3.9311    0.7049   38.8694 F       1  UNL1       -0.2009
     29 N           4.8072   -0.2287   29.5971 N.pl3   1  UNL1       -0.3175
     30 H           5.3427    0.5973   29.6080 H       1  UNL1        0.1482
     31 C           3.3147   -0.1569   29.7287 C.3     1  UNL1        0.0706
     32 C           2.6977    0.3755   30.9880 C.3     1  UNL1        0.0212
     33 C           2.4394   -0.6174   28.6011 C.3     1  UNL1        0.0212
@<TRIPOS>BOND
     1     1     2    1
     2     2     3    2
     3     2     4   am
     4     4     5    1
     5     5     6    2
     6     6     7    1
     7     7     8   ar
     8     8     9   ar
     9     9    29    1
    10    29    31    1
    11    31    32    1
    12    31    33    1
    13     9    10   ar
    14    10    14    1
    15    14    15    1
    16    15    16    1
    17    16    17    1
    18    17    20    1
    19    20    21    1
    20    21    22   ar
    21    22    23   ar
    22    23    24   ar
    23    24    25    1
    24    24    26   ar
    25    26    27   ar
    26    27    28    1
    27    17    18    1
    28    18    19    1
    29    10    11   ar
    30    11    12   ar
    31    12    13    1
    32    13     4    1
    33    12     7   ar
    34    19    14    1
    35    27    21   ar
    36    29    30    1
@<TRIPOS>MOLECULE
*****
 33 36 0 0 0
SMALL
GASTEIGER

@<TRIPOS>ATOM
      1 C           7.8227   -0.5470   33.8602 C.3     1  UNL1        0.0952
      2 C           7.9403   -0.5200   32.3651 C.2     1  UNL1        0.2302
      3 O           8.3755    0.7357   31.6696 O.2     1  UNL1       -0.2745
      4 N           7.6227   -1.7488   31.5655 N.am    1  UNL1       -0.2515
      5 C           7.1875   -3.0045   32.2610 C.2     1  UNL1        0.0695
      6 C           6.8699   -4.2332   31.4614 C.2     1  UNL1        0.0366
      7 C           6.9875   -4.2062   29.9663 C.ar    1  UNL1        0.0993
      8 N           6.6699   -5.4349   29.1667 N.ar    1  UNL1       -0.2267
      9 C           6.7876   -5.4079   27.6715 C.ar    1  UNL1        0.1603
     10 C           7.2228   -4.1522   26.9760 C.ar    1  UNL1        0.1630
     11 N           7.5404   -2.9235   27.7756 N.ar    1  UNL1       -0.2289
     12 C           7.4227   -2.9505   29.2708 C.ar    1  UNL1        0.0985
     13 C           7.7403   -1.7218   30.0704 C.3     1  UNL1        0.1454
     14 N           7.3404   -4.1252   25.4809 N.pl3   1  UNL1       -0.2908
     15 C           8.6790   -4.3126   24.8303 C.3     1  UNL1        0.0960
     16 C           8.7966   -4.2856   23.3352 C.3     1  UNL1        0.0650
     17 C           7.5757   -4.0712   22.4906 C.3     1  UNL1        0.1694
     18 C           6.2372   -3.8838   23.1410 C.3     1  UNL1        0.0650
     19 C           6.1195   -3.9108   24.6362 C.3     1  UNL1        0.0960
     20 O           7.6933   -4.0443   20.9955 O.3     1  UNL1       -0.4768
     21 C           6.6505   -3.3462   20.1736 C.ar    1  UNL1        0.1657
     22 C           5.5534   -4.1372   19.5250 C.ar    1  UNL1        0.0415
     23 C           4.5107   -3.4392   18.7031 C.ar    1  UNL1        0.0329
     24 C           4.5651   -1.9503   18.5298 C.ar    1  UNL1        0.1426
     25 F           3.5223   -1.2523   17.7079 F       1  UNL1       -0.2041
     26 C           5.6622   -1.1593   19.1784 C.ar    1  UNL1        0.0624
     27 C           6.7049   -1.8573   20.0003 C.ar    1  UNL1        0.1760
     28 F           7.8021   -1.0663   20.6489 F       1  UNL1       -0.2009
     29 N           6.4700   -6.6367   26.8719 N.pl3   1  UNL1       -0.3175
     30 H           5.5400   -6.8275   26.6111 H       1  UNL1        0.1482
     31 C           7.5692   -7.5746   26.4697 C.3     1  UNL1        0.0706
     32 C           8.2709   -8.3975   27.5091 C.3     1  UNL1        0.0212
     33 C           7.9668   -7.6896   25.0279 C.3     1  UNL1        0.0212
@<TRIPOS>BOND
     1     1     2    1
     2     2     3    2
     3     2     4   am
     4     4     5    1
     5     5     6    2
     6     6     7    1
     7     7     8   ar
     8     8     9   ar
     9     9    29    1
    10    29    31    1
    11    31    32    1
    12    31    33    1
    13     9    10   ar
    14    10    14    1
    15    14    15    1
    16    15    16    1
    17    16    17    1
    18    17    20    1
    19    20    21    1
    20    21    22   ar
    21    22    23   ar
    22    23    24   ar
    23    24    25    1
    24    24    26   ar
    25    26    27   ar
    26    27    28    1
    27    17    18    1
    28    18    19    1
    29    10    11   ar
    30    11    12   ar
    31    12    13    1
    32    13     4    1
    33    12     7   ar
    34    19    14    1
    35    27    21   ar
    36    29    30    1
@<TRIPOS>MOLECULE
*****
 33 36 0 0 0
SMALL
GASTEIGER

@<TRIPOS>ATOM
      1 C           4.9925   -1.6798   33.6072 C.3     1  UNL1        0.0952
      2 C           5.0278   -1.4717   32.1222 C.2     1  UNL1        0.2302
      3 O           4.3008   -0.3112   31.5101 O.2     1  UNL1       -0.2745
      4 N           5.7901   -2.4239   31.2492 N.am    1  UNL1       -0.2515
      5 C           6.5171   -3.5844   31.8613 C.2     1  UNL1        0.0695
      6 C           7.2794   -4.5367   30.9884 C.2     1  UNL1        0.0366
      7 C           7.3147   -4.3285   29.5034 C.ar    1  UNL1        0.0993
      8 N           8.0770   -5.2808   28.6304 N.ar    1  UNL1       -0.2267
      9 C           8.1123   -5.0726   27.1454 C.ar    1  UNL1        0.1603
     10 C           7.3853   -3.9121   26.5332 C.ar    1  UNL1        0.1630
     11 N           6.6230   -2.9598   27.4062 N.ar    1  UNL1       -0.2289
     12 C           6.5877   -3.1681   28.8913 C.ar    1  UNL1        0.0985
     13 C           5.8254   -2.2158   29.7642 C.3     1  UNL1        0.1454
     14 N           7.4207   -3.7039   25.0482 N.pl3   1  UNL1       -0.2908
     15 C           6.2223   -4.0475   24.2139 C.3     1  UNL1        0.0960
     16 C           6.2576   -3.8393   22.7289 C.3     1  UNL1        0.0650
     17 C           7.4913   -3.2875   22.0780 C.3     1  UNL1        0.1694
     18 C           8.6896   -2.9440   22.9122 C.3     1  UNL1        0.0650
     19 C           8.6543   -3.1522   24.3973 C.3     1  UNL1        0.0960
     20 O           7.5266   -3.0793   20.5930 O.3     1  UNL1       -0.4768
     21 C           6.3977   -2.3671   19.9084 C.ar    1  UNL1        0.1657
     22 C           6.3675   -0.8678   19.8748 C.ar    1  UNL1        0.0415
     23 C           5.2388   -0.1556   19.1902 C.ar    1  UNL1        0.0329
     24 C           4.1403   -0.9427   18.5394 C.ar    1  UNL1        0.1426
     25 F           3.0114   -0.2304   17.8548 F       1  UNL1       -0.2041
     26 C           4.1705   -2.4420   18.5730 C.ar    1  UNL1        0.0624
     27 C           5.2992   -3.1542   19.2576 C.ar    1  UNL1        0.1760
     28 F           5.3294   -4.6535   19.2912 F       1  UNL1       -0.2009
     29 N           8.8746   -6.0249   26.2725 N.pl3   1  UNL1       -0.3175
     30 H           9.8526   -5.9441   26.1924 H       1  UNL1        0.1482
     31 C           8.1470   -7.1003   25.5214 C.3     1  UNL1        0.0706
     32 C           7.1990   -8.0103   26.2449 C.3     1  UNL1        0.0212
     33 C           8.3674   -7.2658   24.0470 C.3     1  UNL1        0.0212
@<TRIPOS>BOND
     1     1     2    1
     2     2     3    2
     3     2     4   am
     4     4     5    1
     5     5     6    2
     6     6     7    1
     7     7     8   ar
     8     8     9   ar
     9     9    29    1
    10    29    31    1
    11    31    32    1
    12    31    33    1
    13     9    10   ar
    14    10    14    1
    15    14    15    1
    16    15    16    1
    17    16    17    1
    18    17    20    1
    19    20    21    1
    20    21    22   ar
    21    22    23   ar
    22    23    24   ar
    23    24    25    1
    24    24    26   ar
    25    26    27   ar
    26    27    28    1
    27    17    18    1
    28    18    19    1
    29    10    11   ar
    30    11    12   ar
    31    12    13    1
    32    13     4    1
    33    12     7   ar
    34    19    14    1
    35    27    21   ar
    36    29    30    1
@<TRIPOS>MOLECULE
*****
 33 36 0 0 0
SMALL
GASTEIGER

@<TRIPOS>ATOM
      1 C           7.4927   -0.1790   34.4736 C.3     1  UNL1        0.0952
      2 C           7.4000    0.0107   32.9885 C.2     1  UNL1        0.2302
      3 O           8.6337    0.3206   32.1936 O.2     1  UNL1       -0.2745
      4 N           6.0737   -0.1096   32.2984 N.am    1  UNL1       -0.2515
      5 C           4.8400   -0.4196   33.0933 C.2     1  UNL1        0.0695
      6 C           3.5136   -0.5398   32.4032 C.2     1  UNL1        0.0366
      7 C           3.4209   -0.3502   30.9182 C.ar    1  UNL1        0.0993
      8 N           2.0945   -0.4704   30.2280 N.ar    1  UNL1       -0.2267
      9 C           2.0018   -0.2808   28.7430 C.ar    1  UNL1        0.1603
     10 C           3.2356    0.0292   27.9480 C.ar    1  UNL1        0.1630
     11 N           4.5619    0.1495   28.6381 N.ar    1  UNL1       -0.2289
     12 C           4.6546   -0.0402   30.1232 C.ar    1  UNL1        0.0985
     13 C           5.9810    0.0801   30.8134 C.3     1  UNL1        0.1454
     14 N           3.1429    0.2189   26.4630 N.pl3   1  UNL1       -0.2908
     15 C           2.7206    1.5440   25.9010 C.3     1  UNL1        0.0960
     16 C           2.6279    1.7337   24.4160 C.3     1  UNL1        0.0650
     17 C           2.9574    0.5983   23.4928 C.3     1  UNL1        0.1694
     18 C           3.3796   -0.7268   24.0547 C.3     1  UNL1        0.0650
     19 C           3.4724   -0.9166   25.5398 C.3     1  UNL1        0.0960
     20 O           2.8647    0.7880   22.0078 O.3     1  UNL1       -0.4768
     21 C           3.4943   -0.2116   21.0832 C.ar    1  UNL1        0.1657
     22 C           4.9840   -0.2382   20.9096 C.ar    1  UNL1        0.0415
     23 C           5.6135   -1.2376   19.9851 C.ar    1  UNL1        0.0329
     24 C           4.7534   -2.2105   19.2343 C.ar    1  UNL1        0.1426
     25 F           5.3830   -3.2100   18.3097 F       1  UNL1       -0.2041
     26 C           3.2637   -2.1839   19.4080 C.ar    1  UNL1        0.0624
     27 C           2.6342   -1.1844   20.3324 C.ar    1  UNL1        0.1760
     28 F           1.1445   -1.1578   20.5061 F       1  UNL1       -0.2009
     29 N           0.6755   -0.4011   28.0529 N.pl3   1  UNL1       -0.3175
     30 H           0.5452   -1.0797   27.3516 H       1  UNL1        0.1482
     31 C          -0.4524    0.5126   28.4311 C.3     1  UNL1        0.0706
     32 C          -1.6351   -0.0261   29.1801 C.3     1  UNL1        0.0212
     33 C          -0.3975    1.9650   28.0604 C.3     1  UNL1        0.0212
@<TRIPOS>BOND
     1     1     2    1
     2     2     3    2
     3     2     4   am
     4     4     5    1
     5     5     6    2
     6     6     7    1
     7     7     8   ar
     8     8     9   ar
     9     9    29    1
    10    29    31    1
    11    31    32    1
    12    31    33    1
    13     9    10   ar
    14    10    14    1
    15    14    15    1
    16    15    16    1
    17    16    17    1
    18    17    20    1
    19    20    21    1
    20    21    22   ar
    21    22    23   ar
    22    23    24   ar
    23    24    25    1
    24    24    26   ar
    25    26    27   ar
    26    27    28    1
    27    17    18    1
    28    18    19    1
    29    10    11   ar
    30    11    12   ar
    31    12    13    1
    32    13     4    1
    33    12     7   ar
    34    19    14    1
    35    27    21   ar
    36    29    30    1
@<TRIPOS>MOLECULE
*****
 33 36 0 0 0
SMALL
GASTEIGER

@<TRIPOS>ATOM
      1 C          -6.9232    5.5140   25.1757 C.3     1  UNL1        0.0952
      2 C          -5.6356    4.7448   25.1543 C.2     1  UNL1        0.2302
      3 O          -5.1079    4.1306   26.4170 O.2     1  UNL1       -0.2745
      4 N          -4.8758    4.5897   23.8703 N.am    1  UNL1       -0.2515
      5 C          -5.4036    5.2039   22.6077 C.2     1  UNL1        0.0695
      6 C          -4.6438    5.0489   21.3237 C.2     1  UNL1        0.0366
      7 C          -3.3562    4.2797   21.3023 C.ar    1  UNL1        0.0993
      8 N          -2.5964    4.1246   20.0183 N.ar    1  UNL1       -0.2267
      9 C          -1.3089    3.3554   19.9969 C.ar    1  UNL1        0.1603
     10 C          -0.7810    2.7412   21.2596 C.ar    1  UNL1        0.1630
     11 N          -1.5408    2.8962   22.5436 N.ar    1  UNL1       -0.2289
     12 C          -2.8285    3.6655   22.5649 C.ar    1  UNL1        0.0985
     13 C          -3.5883    3.8205   23.8489 C.3     1  UNL1        0.1454
     14 N           0.5065    1.9720   21.2382 N.pl3   1  UNL1       -0.2908
     15 C           1.7640    2.5997   21.7625 C.3     1  UNL1        0.0960
     16 C           3.0515    1.8305   21.7411 C.3     1  UNL1        0.0650
     17 C           3.0817    0.4336   21.1954 C.3     1  UNL1        0.1694
     18 C           1.8243   -0.1941   20.6711 C.3     1  UNL1        0.0650
     19 C           0.5367    0.5751   20.6925 C.3     1  UNL1        0.0960
     20 O           4.3693   -0.3356   21.1740 O.3     1  UNL1       -0.4768
     21 C           4.4508   -1.6413   20.4401 C.ar    1  UNL1        0.1657
     22 C           4.2718   -2.9318   21.1833 C.ar    1  UNL1        0.0415
     23 C           4.3534   -4.2375   20.4495 C.ar    1  UNL1        0.0329
     24 C           4.6139   -4.2526   18.9724 C.ar    1  UNL1        0.1426
     25 F           4.6954   -5.5583   18.2385 F       1  UNL1       -0.2041
     26 C           4.7928   -2.9620   18.2292 C.ar    1  UNL1        0.0624
     27 C           4.7113   -1.6564   18.9630 C.ar    1  UNL1        0.1760
     28 F           4.8902   -0.3658   18.2198 F       1  UNL1       -0.2009
     29 N          -0.5491    3.2004   18.7129 N.pl3   1  UNL1       -0.3175
     30 H          -0.8511    2.5509   18.0375 H       1  UNL1        0.1482
     31 C           0.6710    4.0349   18.4579 C.3     1  UNL1        0.0706
     32 C           1.9984    3.3736   18.2328 C.3     1  UNL1        0.0212
     33 C           0.5636    5.5307   18.4281 C.3     1  UNL1        0.0212
@<TRIPOS>BOND
     1     1     2    1
     2     2     3    2
     3     2     4   am
     4     4     5    1
     5     5     6    2
     6     6     7    1
     7     7     8   ar
     8     8     9   ar
     9     9    29    1
    10    29    31    1
    11    31    32    1
    12    31    33    1
    13     9    10   ar
    14    10    14    1
    15    14    15    1
    16    15    16    1
    17    16    17    1
    18    17    20    1
    19    20    21    1
    20    21    22   ar
    21    22    23   ar
    22    23    24   ar
    23    24    25    1
    24    24    26   ar
    25    26    27   ar
    26    27    28    1
    27    17    18    1
    28    18    19    1
    29    10    11   ar
    30    11    12   ar
    31    12    13    1
    32    13     4    1
    33    12     7   ar
    34    19    14    1
    35    27    21   ar
    36    29    30    1
@<TRIPOS>MOLECULE
*****
 33 36 0 0 0
SMALL
GASTEIGER

@<TRIPOS>ATOM
      1 C           1.4538    5.0933   35.9231 C.3     1  UNL1        0.0952
      2 C           1.2038    5.1642   34.4458 C.2     1  UNL1        0.2302
      3 O           0.6667    6.4248   33.8357 O.2     1  UNL1       -0.2745
      4 N           1.4910    3.9744   33.5786 N.am    1  UNL1       -0.2515
      5 C           2.0282    2.7138   34.1886 C.2     1  UNL1        0.0695
      6 C           2.3154    1.5241   33.3214 C.2     1  UNL1        0.0366
      7 C           2.0654    1.5950   31.8441 C.ar    1  UNL1        0.0993
      8 N           2.3526    0.4053   30.9769 N.ar    1  UNL1       -0.2267
      9 C           2.1026    0.4762   29.4996 C.ar    1  UNL1        0.1603
     10 C           1.5654    1.7369   28.8894 C.ar    1  UNL1        0.1630
     11 N           1.2782    2.9266   29.7567 N.ar    1  UNL1       -0.2289
     12 C           1.5282    2.8556   31.2340 C.ar    1  UNL1        0.0985
     13 C           1.2411    4.0454   32.1013 C.3     1  UNL1        0.1454
     14 N           1.3154    1.8078   27.4122 N.pl3   1  UNL1       -0.2908
     15 C           0.0741    1.1979   26.8314 C.3     1  UNL1        0.0960
     16 C          -0.1759    1.2688   25.3541 C.3     1  UNL1        0.0650
     17 C           0.8154    1.9496   24.4575 C.3     1  UNL1        0.1694
     18 C           2.0567    2.5594   25.0382 C.3     1  UNL1        0.0650
     19 C           2.3067    2.4885   26.5156 C.3     1  UNL1        0.0960
     20 O           0.5655    2.0205   22.9802 O.3     1  UNL1       -0.4768
     21 C           1.1375    0.9729   22.0716 C.ar    1  UNL1        0.1657
     22 C           2.2704    0.1096   22.5420 C.ar    1  UNL1        0.0415
     23 C           2.8424   -0.9379   21.6335 C.ar    1  UNL1        0.0329
     24 C           2.2816   -1.1220   20.2545 C.ar    1  UNL1        0.1426
     25 F           2.8537   -2.1696   19.3459 F       1  UNL1       -0.2041
     26 C           1.1488   -0.2587   19.7841 C.ar    1  UNL1        0.0624
     27 C           0.5767    0.7888   20.6926 C.ar    1  UNL1        0.1760
     28 F          -0.5561    1.6521   20.2222 F       1  UNL1       -0.2009
     29 N           2.3898   -0.7135   28.6324 N.pl3   1  UNL1       -0.3175
     30 H           1.7467   -1.4577   28.5888 H       1  UNL1        0.1482
     31 C           3.6568   -0.7695   27.8315 C.3     1  UNL1        0.0706
     32 C           3.5967   -0.9644   26.3454 C.3     1  UNL1        0.0212
     33 C           4.9839   -0.6305   28.5166 C.3     1  UNL1        0.0212
@<TRIPOS>BOND
     1     1     2    1
     2     2     3    2
     3     2     4   am
     4     4     5    1
     5     5     6    2
     6     6     7    1
     7     7     8   ar
     8     8     9   ar
     9     9    29    1
    10    29    31    1
    11    31    32    1
    12    31    33    1
    13     9    10   ar
    14    10    14    1
    15    14    15    1
    16    15    16    1
    17    16    17    1
    18    17    20    1
    19    20    21    1
    20    21    22   ar
    21    22    23   ar
    22    23    24   ar
    23    24    25    1
    24    24    26   ar
    25    26    27   ar
    26    27    28    1
    27    17    18    1
    28    18    19    1
    29    10    11   ar
    30    11    12   ar
    31    12    13    1
    32    13     4    1
    33    12     7   ar
    34    19    14    1
    35    27    21   ar
    36    29    30    1
@<TRIPOS>MOLECULE
*****
 33 36 0 0 0
SMALL
GASTEIGER

@<TRIPOS>ATOM
      1 C           3.8814   -1.6893   18.2811 C.3     1  UNL1        0.0952
      2 C           3.8134   -1.7927   19.7760 C.2     1  UNL1        0.2302
      3 O           2.6443   -1.2126   20.5154 O.2     1  UNL1       -0.2745
      4 N           4.9144   -2.4761   20.5314 N.am    1  UNL1       -0.2515
      5 C           6.0834   -3.0562   19.7920 C.2     1  UNL1        0.0695
      6 C           7.1845   -3.7396   20.5474 C.2     1  UNL1        0.0366
      7 C           7.1164   -3.8429   22.0422 C.ar    1  UNL1        0.0993
      8 N           8.2175   -4.5264   22.7977 N.ar    1  UNL1       -0.2267
      9 C           8.1495   -4.6297   24.2925 C.ar    1  UNL1        0.1603
     10 C           6.9804   -4.0496   25.0320 C.ar    1  UNL1        0.1630
     11 N           5.8794   -3.3662   24.2766 N.ar    1  UNL1       -0.2289
     12 C           5.9474   -3.2629   22.7817 C.ar    1  UNL1        0.0985
     13 C           4.8464   -2.5794   22.0262 C.3     1  UNL1        0.1454
     14 N           6.9124   -4.1530   26.5269 N.pl3   1  UNL1       -0.2908
     15 C           6.5197   -5.4490   27.1720 C.3     1  UNL1        0.0960
     16 C           6.4517   -5.5524   28.6669 C.3     1  UNL1        0.0650
     17 C           6.7763   -4.3597   29.5167 C.3     1  UNL1        0.1694
     18 C           7.1690   -3.0637   28.8716 C.3     1  UNL1        0.0650
     19 C           7.2370   -2.9603   27.3767 C.3     1  UNL1        0.0960
     20 O           6.7083   -4.4630   31.0115 O.3     1  UNL1       -0.4768
     21 C           7.1605   -3.3146   31.8641 C.ar    1  UNL1        0.1657
     22 C           8.6183   -3.1343   32.1677 C.ar    1  UNL1        0.0415
     23 C           9.0705   -1.9860   33.0202 C.ar    1  UNL1        0.0329
     24 C           8.0648   -1.0180   33.5691 C.ar    1  UNL1        0.1426
     25 F           8.5169    0.1305   34.4217 F       1  UNL1       -0.2041
     26 C           6.6069   -1.1982   33.2656 C.ar    1  UNL1        0.0624
     27 C           6.1548   -2.3466   32.4131 C.ar    1  UNL1        0.1760
     28 F           4.6969   -2.5268   32.1095 F       1  UNL1       -0.2009
     29 N           9.2505   -5.3132   25.0479 N.pl3   1  UNL1       -0.3175
     30 H           9.9333   -4.7785   25.5139 H       1  UNL1        0.1482
     31 C           9.3112   -6.8112   25.0934 C.3     1  UNL1        0.0706
     32 C           9.4097   -7.5181   26.4127 C.3     1  UNL1        0.0212
     33 C           9.2734   -7.6023   23.8196 C.3     1  UNL1        0.0212
@<TRIPOS>BOND
     1     1     2    1
     2     2     3    2
     3     2     4   am
     4     4     5    1
     5     5     6    2
     6     6     7    1
     7     7     8   ar
     8     8     9   ar
     9     9    29    1
    10    29    31    1
    11    31    32    1
    12    31    33    1
    13     9    10   ar
    14    10    14    1
    15    14    15    1
    16    15    16    1
    17    16    17    1
    18    17    20    1
    19    20    21    1
    20    21    22   ar
    21    22    23   ar
    22    23    24   ar
    23    24    25    1
    24    24    26   ar
    25    26    27   ar
    26    27    28    1
    27    17    18    1
    28    18    19    1
    29    10    11   ar
    30    11    12   ar
    31    12    13    1
    32    13     4    1
    33    12     7   ar
    34    19    14    1
    35    27    21   ar
    36    29    30    1
