@<TRIPOS>MOLECULE
*****
 35 40 0 0 0
SMALL
GASTEIGER

@<TRIPOS>ATOM
      1 N          -4.0001    4.0123   19.7241 N.3     1  UNL1       -0.1568
      2 C          -5.0320    4.0564   18.6363 C.3     1  UNL1        0.0958
      3 C          -4.3178    4.0162   17.3179 C.3     1  UNL1        0.0206
      4 C          -2.8444    3.9471   17.5908 C.3     1  UNL1        0.0192
      5 C          -2.6482    3.9447   19.0779 C.3     1  UNL1        0.0810
      6 O          -4.4497    2.5427   21.1864 O.2     1  UNL1       -0.1527
      7 S          -4.2725    4.0322   21.1990 S.O2    1  UNL1        0.0647
      8 O          -4.0952    5.5216   21.2117 O.2     1  UNL1       -0.1527
      9 C          -4.5448    4.0521   22.6740 C.ar    1  UNL1        0.1412
     10 C          -5.9332    4.3153   23.1768 C.ar    1  UNL1        0.1187
     11 N          -6.2055    4.3352   24.6518 N.ar    1  UNL1       -0.2409
     12 C          -5.0894    4.0919   25.6239 C.ar    1  UNL1        0.0989
     13 C          -3.7008    3.8286   25.1210 C.ar    1  UNL1        0.0205
     14 C          -2.5847    3.5853   26.0931 C.ar    1  UNL1        0.0016
     15 C          -1.1963    3.3220   25.5902 C.ar    1  UNL1        0.0001
     16 C          -0.9240    3.3021   24.1153 C.ar    1  UNL1        0.0000
     17 C          -2.0401    3.5455   23.1432 C.ar    1  UNL1        0.0014
     18 C          -3.4285    3.8087   23.6461 C.ar    1  UNL1        0.0217
     19 C          -1.3310    3.8852   19.7933 C.3     1  UNL1        0.0350
     20 C          -0.0630    3.6932   19.0154 C.3     1  UNL1        0.0736
     21 N           0.7389    2.4372   19.1863 N.3     1  UNL1       -0.2697
     22 C           0.1603    1.2743   19.9365 C.3     1  UNL1        0.0939
     23 C           0.9622    0.0182   20.1074 C.3     1  UNL1        0.1095
     24 N           2.3426   -0.0750   19.5279 N.pl3   1  UNL1       -0.2899
     25 C           2.9212    1.0879   18.7776 C.3     1  UNL1        0.1095
     26 C           2.1193    2.3439   18.6068 C.3     1  UNL1        0.0939
     27 C           3.1445   -1.3312   19.6988 C.ar    1  UNL1        0.1400
     28 N           3.5365   -2.2823   18.6073 N.ar    1  UNL1       -0.1943
     29 S           4.3293   -3.3957   19.2252 S.2     1  UNL1        0.0144
     30 C           4.4273   -3.1326   20.6986 C.ar    1  UNL1        0.0502
     31 C           5.0888   -3.8901   21.8117 C.ar    1  UNL1        0.0080
     32 C           5.0179   -3.3716   23.2174 C.ar    1  UNL1        0.0006
     33 C           4.2856   -2.0956   23.5101 C.ar    1  UNL1        0.0001
     34 C           3.6242   -1.3382   22.3971 C.ar    1  UNL1        0.0033
     35 C           3.6950   -1.8567   20.9914 C.ar    1  UNL1        0.0396
@<TRIPOS>BOND
     1     6     7    2
     2     7     8    2
     3     7     9    1
     4     9    10   ar
     5    10    11   ar
     6    11    12   ar
     7    12    13   ar
     8    13    14   ar
     9    14    15   ar
    10    15    16   ar
    11    16    17   ar
    12    17    18   ar
    13     7     1    1
    14     1     2    1
    15     2     3    1
    16     3     4    1
    17     4     5    1
    18     5    19    1
    19    19    20    1
    20    20    21    1
    21    21    22    1
    22    22    23    1
    23    23    24    1
    24    24    27    1
    25    27    28   ar
    26    28    29   ar
    27    29    30   ar
    28    30    31   ar
    29    31    32   ar
    30    32    33   ar
    31    33    34   ar
    32    34    35   ar
    33    24    25    1
    34    25    26    1
    35    18     9   ar
    36     5     1    1
    37    26    21    1
    38    18    13   ar
    39    35    27   ar
    40    35    30   ar
@<TRIPOS>MOLECULE
*****
 35 40 0 0 0
SMALL
GASTEIGER

@<TRIPOS>ATOM
      1 N         -12.1795   -5.3203   18.8140 N.3     1  UNL1       -0.1568
      2 C         -11.1110   -6.3176   18.4769 C.3     1  UNL1        0.0958
      3 C          -9.7963   -5.5961   18.4464 C.3     1  UNL1        0.0206
      4 C         -10.0523   -4.1527   18.7647 C.3     1  UNL1        0.0192
      5 C         -11.5251   -3.9823   18.9919 C.3     1  UNL1        0.0810
      6 O         -13.8059   -5.4911   17.4629 O.2     1  UNL1       -0.1527
      7 S         -13.6450   -5.6101   18.9495 S.O2    1  UNL1        0.0647
      8 O         -13.4841   -5.7290   20.4360 O.2     1  UNL1       -0.1527
      9 C         -15.1105   -5.8998   19.0849 C.ar    1  UNL1        0.1412
     10 C         -16.0610   -4.8009   19.4573 C.ar    1  UNL1        0.1187
     11 N         -17.5265   -5.0906   19.5927 N.ar    1  UNL1       -0.2409
     12 C         -18.0415   -6.4794   19.3558 C.ar    1  UNL1        0.0989
     13 C         -17.0909   -7.5784   18.9835 C.ar    1  UNL1        0.0205
     14 C         -17.6059   -8.9672   18.7466 C.ar    1  UNL1        0.0016
     15 C         -16.6554  -10.0661   18.3742 C.ar    1  UNL1        0.0001
     16 C         -15.1899   -9.7764   18.2388 C.ar    1  UNL1        0.0000
     17 C         -14.6749   -8.3876   18.4756 C.ar    1  UNL1        0.0014
     18 C         -15.6254   -7.2887   18.8480 C.ar    1  UNL1        0.0217
     19 C         -12.2214   -2.6992   19.3365 C.3     1  UNL1        0.0350
     20 C         -12.8906   -1.8964   18.2605 C.3     1  UNL1        0.0736
     21 N         -13.9134   -0.8611   18.6234 N.3     1  UNL1       -0.2697
     22 C         -15.1629   -1.2632   19.3493 C.3     1  UNL1        0.0939
     23 C         -16.1857   -0.2278   19.7122 C.3     1  UNL1        0.1095
     24 N         -15.9590    1.2098   19.3492 N.pl3   1  UNL1       -0.2899
     25 C         -14.7095    1.6120   18.6233 C.3     1  UNL1        0.1095
     26 C         -13.6867    0.5767   18.2604 C.3     1  UNL1        0.0939
     27 C         -16.9819    2.2453   19.7122 C.ar    1  UNL1        0.1400
     28 N         -17.6761    3.1712   18.7580 N.ar    1  UNL1       -0.1943
     29 S         -18.6134    4.0347   19.5493 S.2     1  UNL1        0.0144
     30 C         -18.4983    3.6423   20.9924 C.ar    1  UNL1        0.0502
     31 C         -19.1815    4.1492   22.2280 C.ar    1  UNL1        0.0080
     32 C         -18.8563    3.5502   23.5641 C.ar    1  UNL1        0.0006
     33 C         -17.8480    2.4442   23.6648 C.ar    1  UNL1        0.0001
     34 C         -17.1648    1.9373   22.4293 C.ar    1  UNL1        0.0033
     35 C         -17.4900    2.5364   21.0931 C.ar    1  UNL1        0.0396
@<TRIPOS>BOND
     1     6     7    2
     2     7     8    2
     3     7     9    1
     4     9    10   ar
     5    10    11   ar
     6    11    12   ar
     7    12    13   ar
     8    13    14   ar
     9    14    15   ar
    10    15    16   ar
    11    16    17   ar
    12    17    18   ar
    13     7     1    1
    14     1     2    1
    15     2     3    1
    16     3     4    1
    17     4     5    1
    18     5    19    1
    19    19    20    1
    20    20    21    1
    21    21    22    1
    22    22    23    1
    23    23    24    1
    24    24    27    1
    25    27    28   ar
    26    28    29   ar
    27    29    30   ar
    28    30    31   ar
    29    31    32   ar
    30    32    33   ar
    31    33    34   ar
    32    34    35   ar
    33    24    25    1
    34    25    26    1
    35    18     9   ar
    36     5     1    1
    37    26    21    1
    38    18    13   ar
    39    35    27   ar
    40    35    30   ar
@<TRIPOS>MOLECULE
*****
 35 40 0 0 0
SMALL
GASTEIGER

@<TRIPOS>ATOM
      1 N           7.2218   -4.5035   29.8088 N.3     1  UNL1       -0.1568
      2 C           6.9183   -5.1090   31.1472 C.3     1  UNL1        0.0958
      3 C           6.7643   -3.9924   32.1370 C.3     1  UNL1        0.0206
      4 C           6.9728   -2.6968   31.4103 C.3     1  UNL1        0.0192
      5 C           7.2555   -3.0127   29.9715 C.3     1  UNL1        0.0810
      6 O           8.9333   -5.1703   28.7476 O.2     1  UNL1       -0.1527
      7 S           7.4514   -5.2565   28.5321 S.O2    1  UNL1        0.0647
      8 O           5.9695   -5.3428   28.3165 O.2     1  UNL1       -0.1527
      9 C           7.6810   -6.0096   27.2553 C.ar    1  UNL1        0.1412
     10 C           7.9216   -7.4897   27.2904 C.ar    1  UNL1        0.1187
     11 N           8.1512   -8.2428   26.0136 N.ar    1  UNL1       -0.2409
     12 C           8.1402   -7.5157   24.7017 C.ar    1  UNL1        0.0989
     13 C           7.8996   -6.0355   24.6665 C.ar    1  UNL1        0.0205
     14 C           7.8885   -5.3084   23.3546 C.ar    1  UNL1        0.0016
     15 C           7.6479   -3.8283   23.3194 C.ar    1  UNL1        0.0001
     16 C           7.4184   -3.0752   24.5962 C.ar    1  UNL1        0.0000
     17 C           7.4294   -3.8023   25.9082 C.ar    1  UNL1        0.0014
     18 C           7.6700   -5.2824   25.9433 C.ar    1  UNL1        0.0217
     19 C           7.5247   -2.0132   28.8859 C.3     1  UNL1        0.0350
     20 C           6.5652   -0.8846   28.6506 C.3     1  UNL1        0.0736
     21 N           5.8500   -0.7695   27.3371 N.3     1  UNL1       -0.2697
     22 C           6.3957    0.1224   26.2617 C.3     1  UNL1        0.0939
     23 C           5.6805    0.2374   24.9482 C.3     1  UNL1        0.1095
     24 N           4.4196   -0.5395   24.7102 N.pl3   1  UNL1       -0.2899
     25 C           3.8740   -1.4314   25.7856 C.3     1  UNL1        0.1095
     26 C           4.5891   -1.5465   27.0991 C.3     1  UNL1        0.0939
     27 C           3.7045   -0.4244   23.3966 C.ar    1  UNL1        0.1400
     28 N           2.8139    0.7060   22.9736 N.ar    1  UNL1       -0.1943
     29 S           2.3134    0.4094   21.5911 S.2     1  UNL1        0.0144
     30 C           2.8947   -0.9043   21.1596 C.ar    1  UNL1        0.0502
     31 C           2.7522   -1.6979   19.8946 C.ar    1  UNL1        0.0080
     32 C           3.4695   -3.0068   19.7456 C.ar    1  UNL1        0.0006
     33 C           4.3293   -3.5222   20.8616 C.ar    1  UNL1        0.0001
     34 C           4.4717   -2.7286   22.1265 C.ar    1  UNL1        0.0033
     35 C           3.7544   -1.4196   22.2755 C.ar    1  UNL1        0.0396
@<TRIPOS>BOND
     1     6     7    2
     2     7     8    2
     3     7     9    1
     4     9    10   ar
     5    10    11   ar
     6    11    12   ar
     7    12    13   ar
     8    13    14   ar
     9    14    15   ar
    10    15    16   ar
    11    16    17   ar
    12    17    18   ar
    13     7     1    1
    14     1     2    1
    15     2     3    1
    16     3     4    1
    17     4     5    1
    18     5    19    1
    19    19    20    1
    20    20    21    1
    21    21    22    1
    22    22    23    1
    23    23    24    1
    24    24    27    1
    25    27    28   ar
    26    28    29   ar
    27    29    30   ar
    28    30    31   ar
    29    31    32   ar
    30    32    33   ar
    31    33    34   ar
    32    34    35   ar
    33    24    25    1
    34    25    26    1
    35    18     9   ar
    36     5     1    1
    37    26    21    1
    38    18    13   ar
    39    35    27   ar
    40    35    30   ar
@<TRIPOS>MOLECULE
*****
 35 40 0 0 0
SMALL
GASTEIGER

@<TRIPOS>ATOM
      1 N           7.6026   -6.2422   27.2276 N.3     1  UNL1       -0.1568
      2 C           8.1270   -7.5642   27.7042 C.3     1  UNL1        0.0958
      3 C           8.4808   -8.3843   26.4990 C.3     1  UNL1        0.0206
      4 C           8.1750   -7.5690   25.2776 C.3     1  UNL1        0.0192
      5 C           7.6322   -6.2452   25.7279 C.3     1  UNL1        0.0810
      6 O           5.7431   -5.6831   28.0818 O.2     1  UNL1       -0.1527
      7 S           7.1312   -5.1150   28.0979 S.O2    1  UNL1        0.0647
      8 O           8.5194   -4.5470   28.1140 O.2     1  UNL1       -0.1527
      9 C           6.6599   -3.9879   28.9682 C.ar    1  UNL1        0.1412
     10 C           6.7154   -4.1195   30.4614 C.ar    1  UNL1        0.1187
     11 N           6.2441   -2.9924   31.3317 N.ar    1  UNL1       -0.2409
     12 C           5.7172   -1.7337   30.7088 C.ar    1  UNL1        0.0989
     13 C           5.6617   -1.6020   29.2156 C.ar    1  UNL1        0.0205
     14 C           5.1348   -0.3433   28.5928 C.ar    1  UNL1        0.0016
     15 C           5.0793   -0.2117   27.0996 C.ar    1  UNL1        0.0001
     16 C           5.5506   -1.3388   26.2293 C.ar    1  UNL1        0.0000
     17 C           6.0775   -2.5975   26.8521 C.ar    1  UNL1        0.0014
     18 C           6.1330   -2.7291   28.3453 C.ar    1  UNL1        0.0217
     19 C           7.1958   -5.1215   24.8352 C.3     1  UNL1        0.0350
     20 C           7.6844   -5.0558   23.4185 C.3     1  UNL1        0.0736
     21 N           6.9226   -4.2630   22.3983 N.3     1  UNL1       -0.2697
     22 C           7.5897   -3.8470   21.1208 C.3     1  UNL1        0.0939
     23 C           6.8278   -3.0542   20.1006 C.3     1  UNL1        0.1095
     24 N           5.3989   -2.6772   20.3578 N.pl3   1  UNL1       -0.2899
     25 C           4.7319   -3.0931   21.6353 C.3     1  UNL1        0.1095
     26 C           5.4937   -3.8860   22.6555 C.3     1  UNL1        0.0939
     27 C           4.6371   -1.8843   19.3375 C.ar    1  UNL1        0.1400
     28 N           4.9995   -1.7307   17.8901 N.ar    1  UNL1       -0.1943
     29 S           3.9655   -0.8572   17.2436 S.2     1  UNL1        0.0144
     30 C           2.9641   -0.4711   18.2914 C.ar    1  UNL1        0.0502
     31 C           1.7278    0.3767   18.2345 C.ar    1  UNL1        0.0080
     32 C           0.9067    0.5896   19.4715 C.ar    1  UNL1        0.0006
     33 C           1.3219   -0.0452   20.7657 C.ar    1  UNL1        0.0001
     34 C           2.5581   -0.8929   20.8227 C.ar    1  UNL1        0.0033
     35 C           3.3792   -1.1058   19.5856 C.ar    1  UNL1        0.0396
@<TRIPOS>BOND
     1     6     7    2
     2     7     8    2
     3     7     9    1
     4     9    10   ar
     5    10    11   ar
     6    11    12   ar
     7    12    13   ar
     8    13    14   ar
     9    14    15   ar
    10    15    16   ar
    11    16    17   ar
    12    17    18   ar
    13     7     1    1
    14     1     2    1
    15     2     3    1
    16     3     4    1
    17     4     5    1
    18     5    19    1
    19    19    20    1
    20    20    21    1
    21    21    22    1
    22    22    23    1
    23    23    24    1
    24    24    27    1
    25    27    28   ar
    26    28    29   ar
    27    29    30   ar
    28    30    31   ar
    29    31    32   ar
    30    32    33   ar
    31    33    34   ar
    32    34    35   ar
    33    24    25    1
    34    25    26    1
    35    18     9   ar
    36     5     1    1
    37    26    21    1
    38    18    13   ar
    39    35    27   ar
    40    35    30   ar
@<TRIPOS>MOLECULE
*****
 35 40 0 0 0
SMALL
GASTEIGER

@<TRIPOS>ATOM
      1 N          -4.1158    3.9005   23.4193 N.3     1  UNL1       -0.1568
      2 C          -4.9342    3.9073   24.6763 C.3     1  UNL1        0.0958
      3 C          -4.0019    3.7275   25.8375 C.3     1  UNL1        0.0206
      4 C          -2.6072    3.6095   25.2982 C.3     1  UNL1        0.0192
      5 C          -2.6776    3.7165   23.8036 C.3     1  UNL1        0.0810
      6 O          -4.7438    2.5597   21.9001 O.2     1  UNL1       -0.1527
      7 S          -4.6429    4.0512   22.0231 S.O2    1  UNL1        0.0647
      8 O          -4.5420    5.5428   22.1460 O.2     1  UNL1       -0.1527
      9 C          -5.1701    4.2020   20.6268 C.ar    1  UNL1        0.1412
     10 C          -6.6396    4.3958   20.3968 C.ar    1  UNL1        0.1187
     11 N          -7.1667    4.5465   19.0006 N.ar    1  UNL1       -0.2409
     12 C          -6.2244    4.5035   17.8344 C.ar    1  UNL1        0.0989
     13 C          -4.7548    4.3096   18.0644 C.ar    1  UNL1        0.0205
     14 C          -3.8124    4.2666   16.8982 C.ar    1  UNL1        0.0016
     15 C          -2.3429    4.0728   17.1282 C.ar    1  UNL1        0.0001
     16 C          -1.8158    3.9220   18.5244 C.ar    1  UNL1        0.0000
     17 C          -2.7581    3.9651   19.6906 C.ar    1  UNL1        0.0014
     18 C          -4.2276    4.1589   19.4606 C.ar    1  UNL1        0.0217
     19 C          -1.5140    3.6509   22.8593 C.3     1  UNL1        0.0350
     20 C          -0.2486    2.9610   23.2749 C.3     1  UNL1        0.0736
     21 N           0.5407    2.1735   22.2716 N.3     1  UNL1       -0.2697
     22 C           1.9868    1.8682   22.5276 C.3     1  UNL1        0.0939
     23 C           2.7761    1.0806   21.5242 C.3     1  UNL1        0.1095
     24 N           2.1192    0.5983   20.2649 N.pl3   1  UNL1       -0.2899
     25 C           0.6731    0.9035   20.0089 C.3     1  UNL1        0.1095
     26 C          -0.1161    1.6911   21.0122 C.3     1  UNL1        0.0939
     27 C           2.9086   -0.1894   19.2615 C.ar    1  UNL1        0.1400
     28 N           3.0998    0.1640   17.8164 N.ar    1  UNL1       -0.1943
     29 S           3.9547   -0.8969   17.1890 S.2     1  UNL1        0.0144
     30 C           4.2918   -1.9059   18.2464 C.ar    1  UNL1        0.0502
     31 C           5.1041   -3.1665   18.2084 C.ar    1  UNL1        0.0080
     32 C           5.2698   -3.9897   19.4513 C.ar    1  UNL1        0.0006
     33 C           4.6232   -3.5524   20.7323 C.ar    1  UNL1        0.0001
     34 C           3.8110   -2.2919   20.7703 C.ar    1  UNL1        0.0033
     35 C           3.6453   -1.4686   19.5273 C.ar    1  UNL1        0.0396
@<TRIPOS>BOND
     1     6     7    2
     2     7     8    2
     3     7     9    1
     4     9    10   ar
     5    10    11   ar
     6    11    12   ar
     7    12    13   ar
     8    13    14   ar
     9    14    15   ar
    10    15    16   ar
    11    16    17   ar
    12    17    18   ar
    13     7     1    1
    14     1     2    1
    15     2     3    1
    16     3     4    1
    17     4     5    1
    18     5    19    1
    19    19    20    1
    20    20    21    1
    21    21    22    1
    22    22    23    1
    23    23    24    1
    24    24    27    1
    25    27    28   ar
    26    28    29   ar
    27    29    30   ar
    28    30    31   ar
    29    31    32   ar
    30    32    33   ar
    31    33    34   ar
    32    34    35   ar
    33    24    25    1
    34    25    26    1
    35    18     9   ar
    36     5     1    1
    37    26    21    1
    38    18    13   ar
    39    35    27   ar
    40    35    30   ar
@<TRIPOS>MOLECULE
*****
 35 40 0 0 0
SMALL
GASTEIGER

@<TRIPOS>ATOM
      1 N           7.2237   -4.2801   21.6105 N.3     1  UNL1       -0.1568
      2 C           8.3674   -5.1709   21.2254 C.3     1  UNL1        0.0958
      3 C           8.9199   -5.7837   22.4781 C.3     1  UNL1        0.0206
      4 C           8.1176   -5.2716   23.6374 C.3     1  UNL1        0.0192
      5 C           7.0693   -4.3423   23.1012 C.3     1  UNL1        0.0810
      6 O           5.4716   -4.6447   20.4716 O.2     1  UNL1       -0.1527
      7 S           6.3821   -3.4693   20.6700 S.O2    1  UNL1        0.0647
      8 O           7.2926   -2.2939   20.8685 O.2     1  UNL1       -0.1527
      9 C           5.5405   -2.6586   19.7296 C.ar    1  UNL1        0.1412
     10 C           5.8520   -2.6496   18.2624 C.ar    1  UNL1        0.1187
     11 N           5.0104   -1.8389   17.3219 N.ar    1  UNL1       -0.2409
     12 C           3.8573   -1.0372   17.8487 C.ar    1  UNL1        0.0989
     13 C           3.5458   -1.0461   19.3160 C.ar    1  UNL1        0.0205
     14 C           2.3927   -0.2444   19.8428 C.ar    1  UNL1        0.0016
     15 C           2.0812   -0.2534   21.3100 C.ar    1  UNL1        0.0001
     16 C           2.9227   -1.0641   22.2505 C.ar    1  UNL1        0.0000
     17 C           4.0758   -1.8658   21.7237 C.ar    1  UNL1        0.0014
     18 C           4.3874   -1.8568   20.2564 C.ar    1  UNL1        0.0217
     19 C           6.0463   -3.6048   23.9133 C.3     1  UNL1        0.0350
     20 C           6.4747   -2.5080   24.8425 C.3     1  UNL1        0.0736
     21 N           5.4480   -1.6111   25.4680 N.3     1  UNL1       -0.2697
     22 C           4.6506   -2.0902   26.6447 C.3     1  UNL1        0.0939
     23 C           3.6239   -1.1932   27.2702 C.3     1  UNL1        0.1095
     24 N           3.3945    0.1829   26.7190 N.pl3   1  UNL1       -0.2899
     25 C           4.1919    0.6619   25.5423 C.3     1  UNL1        0.1095
     26 C           5.2185   -0.2349   24.9168 C.3     1  UNL1        0.0939
     27 C           2.3677    1.0798   27.3446 C.ar    1  UNL1        0.1400
     28 N           2.3924    1.6020   28.7504 N.ar    1  UNL1       -0.1943
     29 S           1.1759    2.4569   28.9487 S.2     1  UNL1        0.0144
     30 C           0.3994    2.4630   27.6655 C.ar    1  UNL1        0.0502
     31 C          -0.8833    3.1336   27.2715 C.ar    1  UNL1        0.0080
     32 C          -1.4293    2.9531   25.8862 C.ar    1  UNL1        0.0006
     33 C          -0.6927    2.1019   24.8947 C.ar    1  UNL1        0.0001
     34 C           0.5899    1.4313   25.2886 C.ar    1  UNL1        0.0033
     35 C           1.1360    1.6119   26.6740 C.ar    1  UNL1        0.0396
@<TRIPOS>BOND
     1     6     7    2
     2     7     8    2
     3     7     9    1
     4     9    10   ar
     5    10    11   ar
     6    11    12   ar
     7    12    13   ar
     8    13    14   ar
     9    14    15   ar
    10    15    16   ar
    11    16    17   ar
    12    17    18   ar
    13     7     1    1
    14     1     2    1
    15     2     3    1
    16     3     4    1
    17     4     5    1
    18     5    19    1
    19    19    20    1
    20    20    21    1
    21    21    22    1
    22    22    23    1
    23    23    24    1
    24    24    27    1
    25    27    28   ar
    26    28    29   ar
    27    29    30   ar
    28    30    31   ar
    29    31    32   ar
    30    32    33   ar
    31    33    34   ar
    32    34    35   ar
    33    24    25    1
    34    25    26    1
    35    18     9   ar
    36     5     1    1
    37    26    21    1
    38    18    13   ar
    39    35    27   ar
    40    35    30   ar
@<TRIPOS>MOLECULE
*****
 35 40 0 0 0
SMALL
GASTEIGER

@<TRIPOS>ATOM
      1 N           7.1229   -4.1940   21.5809 N.3     1  UNL1       -0.1568
      2 C           8.3033   -5.0552   21.2419 C.3     1  UNL1        0.0958
      3 C           8.8125   -5.6655   22.5140 C.3     1  UNL1        0.0206
      4 C           7.9468   -5.1814   23.6393 C.3     1  UNL1        0.0192
      5 C           6.9026   -4.2720   23.0626 C.3     1  UNL1        0.0810
      6 O           7.2054   -2.2139   20.8244 O.2     1  UNL1       -0.1527
      7 S           6.3062   -3.3950   20.6090 S.O2    1  UNL1        0.0647
      8 O           5.4071   -4.5762   20.3936 O.2     1  UNL1       -0.1527
      9 C           5.4895   -2.5961   19.6370 C.ar    1  UNL1        0.1412
     10 C           5.8460   -2.5961   18.1800 C.ar    1  UNL1        0.1187
     11 N           5.0294   -1.7971   17.2081 N.ar    1  UNL1       -0.2409
     12 C           3.8562   -0.9982   17.6931 C.ar    1  UNL1        0.0989
     13 C           3.4996   -0.9982   19.1501 C.ar    1  UNL1        0.0205
     14 C           2.3264   -0.1993   19.6351 C.ar    1  UNL1        0.0016
     15 C           1.9699   -0.1993   21.0921 C.ar    1  UNL1        0.0001
     16 C           2.7866   -0.9983   22.0641 C.ar    1  UNL1        0.0000
     17 C           3.9598   -1.7972   21.5791 C.ar    1  UNL1        0.0014
     18 C           4.3163   -1.7972   20.1221 C.ar    1  UNL1        0.0217
     19 C           5.8269   -3.5647   23.8325 C.3     1  UNL1        0.0350
     20 C           6.0476   -2.1609   24.3128 C.3     1  UNL1        0.0736
     21 N           5.5271   -1.7364   25.6539 N.3     1  UNL1       -0.2697
     22 C           6.4567   -1.6567   26.8283 C.3     1  UNL1        0.0939
     23 C           5.9361   -1.2322   28.1695 C.3     1  UNL1        0.1095
     24 N           4.4858   -0.8874   28.3362 N.pl3   1  UNL1       -0.2899
     25 C           3.5562   -0.9672   27.1618 C.3     1  UNL1        0.1095
     26 C           4.0767   -1.3917   25.8207 C.3     1  UNL1        0.0939
     27 C           3.9653   -0.4629   29.6775 C.ar    1  UNL1        0.1400
     28 N           2.8840    0.5468   29.9243 N.ar    1  UNL1       -0.1943
     29 S           2.6852    0.6601   31.4067 S.2     1  UNL1        0.0144
     30 C           3.6436   -0.2796   32.0761 C.ar    1  UNL1        0.0502
     31 C           3.8983   -0.5931   33.5208 C.ar    1  UNL1        0.0080
     32 C           4.9440   -1.6005   33.8967 C.ar    1  UNL1        0.0006
     33 C           5.7352   -2.2946   32.8279 C.ar    1  UNL1        0.0001
     34 C           5.4806   -1.9812   31.3832 C.ar    1  UNL1        0.0033
     35 C           4.4348   -0.9737   31.0073 C.ar    1  UNL1        0.0396
@<TRIPOS>BOND
     1     6     7    2
     2     7     8    2
     3     7     9    1
     4     9    10   ar
     5    10    11   ar
     6    11    12   ar
     7    12    13   ar
     8    13    14   ar
     9    14    15   ar
    10    15    16   ar
    11    16    17   ar
    12    17    18   ar
    13     7     1    1
    14     1     2    1
    15     2     3    1
    16     3     4    1
    17     4     5    1
    18     5    19    1
    19    19    20    1
    20    20    21    1
    21    21    22    1
    22    22    23    1
    23    23    24    1
    24    24    27    1
    25    27    28   ar
    26    28    29   ar
    27    29    30   ar
    28    30    31   ar
    29    31    32   ar
    30    32    33   ar
    31    33    34   ar
    32    34    35   ar
    33    24    25    1
    34    25    26    1
    35    18     9   ar
    36     5     1    1
    37    26    21    1
    38    18    13   ar
    39    35    27   ar
    40    35    30   ar
@<TRIPOS>MOLECULE
*****
 35 40 0 0 0
SMALL
GASTEIGER

@<TRIPOS>ATOM
      1 N         -12.1869   -5.6585   18.9267 N.3     1  UNL1       -0.1568
      2 C         -11.5137   -6.9883   18.7582 C.3     1  UNL1        0.0958
      3 C         -10.0347   -6.7521   18.6761 C.3     1  UNL1        0.0206
      4 C          -9.7938   -5.2763   18.7938 C.3     1  UNL1        0.0192
      5 C         -11.1239   -4.6004   18.9486 C.3     1  UNL1        0.0810
      6 O         -13.7921   -5.4419   17.5568 O.2     1  UNL1       -0.1527
      7 S         -13.6637   -5.4274   19.0513 S.O2    1  UNL1        0.0647
      8 O         -13.5354   -5.4128   20.5457 O.2     1  UNL1       -0.1527
      9 C         -15.1406   -5.1962   19.1759 C.ar    1  UNL1        0.1412
     10 C         -15.6895   -3.8018   19.1118 C.ar    1  UNL1        0.1187
     11 N         -17.1663   -3.5707   19.2364 N.ar    1  UNL1       -0.2409
     12 C         -18.0942   -4.7340   19.4251 C.ar    1  UNL1        0.0989
     13 C         -17.5453   -6.1285   19.4891 C.ar    1  UNL1        0.0205
     14 C         -18.4732   -7.2918   19.6778 C.ar    1  UNL1        0.0016
     15 C         -17.9243   -8.6863   19.7419 C.ar    1  UNL1        0.0001
     16 C         -16.4475   -8.9174   19.6173 C.ar    1  UNL1        0.0000
     17 C         -15.5196   -7.7541   19.4286 C.ar    1  UNL1        0.0014
     18 C         -16.0685   -6.3597   19.3645 C.ar    1  UNL1        0.0217
     19 C         -11.3511   -3.1254   19.0990 C.3     1  UNL1        0.0350
     20 C         -11.1577   -2.2129   17.9243 C.3     1  UNL1        0.0736
     21 N         -12.0208   -0.9960   17.7695 N.3     1  UNL1       -0.2697
     22 C         -11.4689    0.2369   17.1174 C.3     1  UNL1        0.0939
     23 C         -12.3321    1.4539   16.9627 C.3     1  UNL1        0.1095
     24 N         -13.7472    1.4379   17.4601 N.pl3   1  UNL1       -0.2899
     25 C         -14.2990    0.2049   18.1122 C.3     1  UNL1        0.1095
     26 C         -13.4359   -1.0120   18.2669 C.3     1  UNL1        0.0939
     27 C         -14.6103    2.6549   17.3053 C.ar    1  UNL1        0.1400
     28 N         -14.8722    3.3932   16.0262 N.ar    1  UNL1       -0.1943
     29 S         -15.7868    4.5418   16.3329 S.2     1  UNL1        0.0144
     30 C         -16.0902    4.5134   17.8016 C.ar    1  UNL1        0.0502
     31 C         -16.9347    5.3987   18.6695 C.ar    1  UNL1        0.0080
     32 C         -17.0521    5.1179   20.1382 C.ar    1  UNL1        0.0006
     33 C         -16.3249    3.9516   20.7392 C.ar    1  UNL1        0.0001
     34 C         -15.4804    3.0663   19.8714 C.ar    1  UNL1        0.0033
     35 C         -15.3631    3.3471   18.4026 C.ar    1  UNL1        0.0396
@<TRIPOS>BOND
     1     6     7    2
     2     7     8    2
     3     7     9    1
     4     9    10   ar
     5    10    11   ar
     6    11    12   ar
     7    12    13   ar
     8    13    14   ar
     9    14    15   ar
    10    15    16   ar
    11    16    17   ar
    12    17    18   ar
    13     7     1    1
    14     1     2    1
    15     2     3    1
    16     3     4    1
    17     4     5    1
    18     5    19    1
    19    19    20    1
    20    20    21    1
    21    21    22    1
    22    22    23    1
    23    23    24    1
    24    24    27    1
    25    27    28   ar
    26    28    29   ar
    27    29    30   ar
    28    30    31   ar
    29    31    32   ar
    30    32    33   ar
    31    33    34   ar
    32    34    35   ar
    33    24    25    1
    34    25    26    1
    35    18     9   ar
    36     5     1    1
    37    26    21    1
    38    18    13   ar
    39    35    27   ar
    40    35    30   ar
@<TRIPOS>MOLECULE
*****
 35 40 0 0 0
SMALL
GASTEIGER

@<TRIPOS>ATOM
      1 N          -3.7043    4.1724   20.0634 N.3     1  UNL1       -0.1568
      2 C          -4.3844    4.0510   18.7319 C.3     1  UNL1        0.0958
      3 C          -3.3230    3.9506   17.6767 C.3     1  UNL1        0.0206
      4 C          -1.9869    4.0098   18.3561 C.3     1  UNL1        0.0192
      5 C          -2.2227    4.1469   19.8311 C.3     1  UNL1        0.0810
      6 O          -4.2066    5.7857   21.3459 O.2     1  UNL1       -0.1527
      7 S          -4.3862    4.2973   21.3936 S.O2    1  UNL1        0.0647
      8 O          -4.5659    2.8089   21.4412 O.2     1  UNL1       -0.1527
      9 C          -5.0682    4.4222   22.7238 C.ar    1  UNL1        0.1412
     10 C          -6.5251    4.7726   22.7897 C.ar    1  UNL1        0.1187
     11 N          -7.2070    4.8975   24.1199 N.ar    1  UNL1       -0.2409
     12 C          -6.4320    4.6720   25.3841 C.ar    1  UNL1        0.0989
     13 C          -4.9749    4.3216   25.3183 C.ar    1  UNL1        0.0205
     14 C          -4.1999    4.0960   26.5825 C.ar    1  UNL1        0.0016
     15 C          -2.7429    3.7456   26.5166 C.ar    1  UNL1        0.0001
     16 C          -2.0610    3.6207   25.1864 C.ar    1  UNL1        0.0000
     17 C          -2.8360    3.8462   23.9221 C.ar    1  UNL1        0.0014
     18 C          -4.2930    4.1967   23.9881 C.ar    1  UNL1        0.0217
     19 C          -1.1627    4.2419   20.8882 C.3     1  UNL1        0.0350
     20 C          -0.6509    2.9975   21.5513 C.3     1  UNL1        0.0736
     21 N           0.4736    2.2242   20.9289 N.3     1  UNL1       -0.2697
     22 C           0.2090    1.3304   19.7538 C.3     1  UNL1        0.0939
     23 C           1.3336    0.5571   19.1315 C.3     1  UNL1        0.1095
     24 N           2.7228    0.6777   19.6843 N.pl3   1  UNL1       -0.2899
     25 C           2.9874    1.5716   20.8594 C.3     1  UNL1        0.1095
     26 C           1.8629    2.3448   21.4817 C.3     1  UNL1        0.0939
     27 C           3.8474   -0.0957   19.0619 C.ar    1  UNL1        0.1400
     28 N           5.0184    0.4875   18.3282 N.ar    1  UNL1       -0.1943
     29 S           5.8930   -0.6444   17.8768 S.2     1  UNL1        0.0144
     30 C           5.2625   -1.9271   18.3315 C.ar    1  UNL1        0.0502
     31 C           5.6763   -3.3603   18.1733 C.ar    1  UNL1        0.0080
     32 C           4.8258   -4.4543   18.7475 C.ar    1  UNL1        0.0006
     33 C           3.5614   -4.1151   19.4800 C.ar    1  UNL1        0.0001
     34 C           3.1476   -2.6820   19.6382 C.ar    1  UNL1        0.0033
     35 C           3.9982   -1.5880   19.0640 C.ar    1  UNL1        0.0396
@<TRIPOS>BOND
     1     6     7    2
     2     7     8    2
     3     7     9    1
     4     9    10   ar
     5    10    11   ar
     6    11    12   ar
     7    12    13   ar
     8    13    14   ar
     9    14    15   ar
    10    15    16   ar
    11    16    17   ar
    12    17    18   ar
    13     7     1    1
    14     1     2    1
    15     2     3    1
    16     3     4    1
    17     4     5    1
    18     5    19    1
    19    19    20    1
    20    20    21    1
    21    21    22    1
    22    22    23    1
    23    23    24    1
    24    24    27    1
    25    27    28   ar
    26    28    29   ar
    27    29    30   ar
    28    30    31   ar
    29    31    32   ar
    30    32    33   ar
    31    33    34   ar
    32    34    35   ar
    33    24    25    1
    34    25    26    1
    35    18     9   ar
    36     5     1    1
    37    26    21    1
    38    18    13   ar
    39    35    27   ar
    40    35    30   ar
