@<TRIPOS>MOLECULE
*****
 31 35 0 0 0
SMALL
GASTEIGER

@<TRIPOS>ATOM
      1 N          -8.0935  -19.5040   21.4604 N.3     1  UNL1       -0.2679
      2 C          -8.6793  -19.1160   22.7857 C.3     1  UNL1        0.0978
      3 C          -9.5158  -20.0972   23.5520 C.3     1  UNL1        0.0224
      4 C         -10.1017  -19.7092   24.8772 C.3     1  UNL1        0.0065
      5 C          -9.8510  -18.3400   25.4361 C.3     1  UNL1        0.0277
      6 C          -9.0145  -17.3588   24.6698 C.ar    1  UNL1       -0.0073
      7 C          -8.7637  -15.9895   25.2286 C.ar    1  UNL1       -0.0015
      8 C          -7.9272  -15.0083   24.4623 C.ar    1  UNL1        0.0203
      9 C          -7.3413  -15.3963   23.1370 C.ar    1  UNL1        0.0985
     10 N          -7.5920  -16.7655   22.5782 N.ar    1  UNL1       -0.2471
     11 C          -8.4286  -17.7468   23.3445 C.ar    1  UNL1        0.0695
     12 C          -8.8201  -19.1680   20.1919 C.3     1  UNL1        0.0724
     13 C         -11.0940  -17.3757   20.0738 C.3     1  UNL1        0.0169
     14 C         -11.6579  -18.6886   20.5300 C.3     1  UNL1        0.0028
     15 C         -10.1898  -18.5593   20.2509 C.3     1  UNL1        0.0174
     16 N         -12.5321  -15.5069   18.9832 N.3     1  UNL1       -0.3211
     17 C         -11.2904  -15.9342   19.7081 C.3     1  UNL1        0.0651
     18 H         -12.4994  -14.5011   18.8165 H       1  UNL1        0.1189
     19 H         -13.3505  -15.7313   19.5491 H       1  UNL1        0.1189
     20 C          -6.7810  -20.2279   21.4037 C.3     1  UNL1        0.0886
     21 C          -5.4961  -19.4541   21.4241 C.3     1  UNL1        0.0748
     22 C          -4.6317  -19.4032   20.1992 C.3     1  UNL1        0.0432
     23 C          -3.3469  -18.6294   20.2197 C.ar    1  UNL1       -0.0234
     24 C          -2.4824  -18.5784   18.9949 C.ar    1  UNL1       -0.0045
     25 C          -1.1976  -17.8046   19.0154 C.ar    1  UNL1       -0.0003
     26 C          -0.7772  -17.0818   20.2607 C.ar    1  UNL1       -0.0003
     27 C          -1.6416  -17.1327   21.4855 C.ar    1  UNL1       -0.0032
     28 C          -2.9265  -17.9065   21.4651 C.ar    1  UNL1       -0.0103
     29 C          -3.7909  -17.9575   22.6898 C.3     1  UNL1        0.0953
     30 N          -5.0757  -18.7313   22.6694 N.3     1  UNL1       -0.2934
     31 H          -5.8206  -18.0711   22.8923 H       1  UNL1        0.1236
@<TRIPOS>BOND
     1    16    17    1
     2    17    13    1
     3    13    14    1
     4    14    15    1
     5    15    12    1
     6    12     1    1
     7     1    20    1
     8    21    20    1
     9    21    22    1
    10    22    23    1
    11    23    24   ar
    12    24    25   ar
    13    25    26   ar
    14    26    27   ar
    15    27    28   ar
    16    28    29    1
    17    29    30    1
    18     2     1    1
    19     2     3    1
    20     3     4    1
    21     4     5    1
    22     5     6    1
    23     6     7   ar
    24     7     8   ar
    25     8     9   ar
    26     9    10   ar
    27    10    11   ar
    28    15    13    1
    29    30    21    1
    30    11     2    1
    31    28    23   ar
    32    11     6   ar
    33    16    18    1
    34    16    19    1
    35    30    31    1
@<TRIPOS>MOLECULE
*****
 31 35 0 0 0
SMALL
GASTEIGER

@<TRIPOS>ATOM
      1 N          -8.0476  -17.7345   22.9592 N.3     1  UNL1       -0.2679
      2 C          -9.5176  -17.9158   23.1968 C.3     1  UNL1        0.0978
      3 C          -9.9954  -18.6532   24.4124 C.3     1  UNL1        0.0224
      4 C         -11.4653  -18.8346   24.6501 C.3     1  UNL1        0.0065
      5 C         -12.4574  -18.2785   23.6720 C.3     1  UNL1        0.0277
      6 C         -11.9795  -17.5411   22.4564 C.ar    1  UNL1       -0.0073
      7 C         -12.9716  -16.9850   21.4783 C.ar    1  UNL1       -0.0015
      8 C         -12.4937  -16.2476   20.2627 C.ar    1  UNL1        0.0203
      9 C         -11.0238  -16.0662   20.0250 C.ar    1  UNL1        0.0985
     10 N         -10.0318  -16.6223   21.0031 N.ar    1  UNL1       -0.2471
     11 C         -10.5096  -17.3598   22.2188 C.ar    1  UNL1        0.0695
     12 C          -7.4536  -16.3572   22.9506 C.3     1  UNL1        0.0724
     13 C          -6.2363  -15.6175   25.4741 C.3     1  UNL1        0.0169
     14 C          -5.1218  -15.5542   24.4722 C.3     1  UNL1        0.0028
     15 C          -6.5026  -15.9438   24.0345 C.3     1  UNL1        0.0174
     16 N          -8.1449  -15.0551   27.1447 N.3     1  UNL1       -0.3211
     17 C          -6.7260  -15.4655   26.8838 C.3     1  UNL1        0.0651
     18 H          -8.3038  -15.0015   28.1508 H       1  UNL1        0.1189
     19 H          -8.7783  -15.7426   26.7365 H       1  UNL1        0.1189
     20 C          -7.1718  -18.9305   22.7301 C.3     1  UNL1        0.0886
     21 C          -5.9897  -18.8297   21.8122 C.3     1  UNL1        0.0748
     22 C          -4.6165  -18.6191   22.3781 C.3     1  UNL1        0.0432
     23 C          -3.4345  -18.5183   21.4602 C.ar    1  UNL1       -0.0234
     24 C          -2.0614  -18.3077   22.0260 C.ar    1  UNL1       -0.0045
     25 C          -0.8793  -18.2069   21.1081 C.ar    1  UNL1       -0.0003
     26 C          -1.0703  -18.3167   19.6244 C.ar    1  UNL1       -0.0003
     27 C          -2.4435  -18.5272   19.0585 C.ar    1  UNL1       -0.0032
     28 C          -3.6256  -18.6280   19.9764 C.ar    1  UNL1       -0.0103
     29 C          -4.9987  -18.8386   19.4106 C.3     1  UNL1        0.0953
     30 N          -6.1808  -18.9394   20.3285 N.3     1  UNL1       -0.2934
     31 H          -6.6129  -19.8467   20.1536 H       1  UNL1        0.1236
@<TRIPOS>BOND
     1    16    17    1
     2    17    13    1
     3    13    14    1
     4    14    15    1
     5    15    12    1
     6    12     1    1
     7     1    20    1
     8    21    20    1
     9    21    22    1
    10    22    23    1
    11    23    24   ar
    12    24    25   ar
    13    25    26   ar
    14    26    27   ar
    15    27    28   ar
    16    28    29    1
    17    29    30    1
    18     2     1    1
    19     2     3    1
    20     3     4    1
    21     4     5    1
    22     5     6    1
    23     6     7   ar
    24     7     8   ar
    25     8     9   ar
    26     9    10   ar
    27    10    11   ar
    28    15    13    1
    29    30    21    1
    30    11     2    1
    31    28    23   ar
    32    11     6   ar
    33    16    18    1
    34    16    19    1
    35    30    31    1
@<TRIPOS>MOLECULE
*****
 31 35 0 0 0
SMALL
GASTEIGER

@<TRIPOS>ATOM
      1 N          -6.1991  -19.0975   21.3502 N.3     1  UNL1       -0.2679
      2 C          -5.5073  -18.3206   22.4309 C.3     1  UNL1        0.0978
      3 C          -4.1497  -18.7444   22.9074 C.3     1  UNL1        0.0224
      4 C          -3.4579  -17.9675   23.9881 C.3     1  UNL1        0.0065
      5 C          -4.1237  -16.7669   24.5922 C.3     1  UNL1        0.0277
      6 C          -5.4814  -16.3431   24.1157 C.ar    1  UNL1       -0.0073
      7 C          -6.1473  -15.1424   24.7198 C.ar    1  UNL1       -0.0015
      8 C          -7.5050  -14.7186   24.2433 C.ar    1  UNL1        0.0203
      9 C          -8.1968  -15.4955   23.1626 C.ar    1  UNL1        0.0985
     10 N          -7.5309  -16.6961   22.5585 N.ar    1  UNL1       -0.2471
     11 C          -6.1732  -17.1200   23.0350 C.ar    1  UNL1        0.0695
     12 C          -5.7291  -18.9885   19.9299 C.3     1  UNL1        0.0724
     13 C          -2.9409  -18.7055   19.1927 C.3     1  UNL1        0.0169
     14 C          -3.1343  -20.1750   19.4231 C.3     1  UNL1        0.0028
     15 C          -4.2867  -19.2306   19.5966 C.3     1  UNL1        0.0174
     16 N          -0.6300  -17.8036   18.4207 N.3     1  UNL1       -0.3211
     17 C          -2.0523  -17.5539   18.8266 C.3     1  UNL1        0.0651
     18 H          -0.1762  -16.9152   18.2079 H       1  UNL1        0.1189
     19 H          -0.6122  -18.4011   17.5942 H       1  UNL1        0.1189
     20 C          -7.3610  -19.9833   21.6897 C.3     1  UNL1        0.0886
     21 C          -8.7328  -19.3959   21.8413 C.3     1  UNL1        0.0748
     22 C          -9.4931  -19.5865   23.1203 C.3     1  UNL1        0.0432
     23 C         -10.8650  -18.9991   23.2719 C.ar    1  UNL1       -0.0234
     24 C         -11.6253  -19.1897   24.5508 C.ar    1  UNL1       -0.0045
     25 C         -12.9972  -18.6022   24.7024 C.ar    1  UNL1       -0.0003
     26 C         -13.6087  -17.8243   23.5751 C.ar    1  UNL1       -0.0003
     27 C         -12.8484  -17.6337   22.2962 C.ar    1  UNL1       -0.0032
     28 C         -11.4765  -18.2211   22.1446 C.ar    1  UNL1       -0.0103
     29 C         -10.7162  -18.0305   20.8657 C.3     1  UNL1        0.0953
     30 N          -9.3443  -18.6180   20.7141 N.3     1  UNL1       -0.2934
     31 H          -8.7124  -17.8425   20.5146 H       1  UNL1        0.1236
@<TRIPOS>BOND
     1    16    17    1
     2    17    13    1
     3    13    14    1
     4    14    15    1
     5    15    12    1
     6    12     1    1
     7     1    20    1
     8    21    20    1
     9    21    22    1
    10    22    23    1
    11    23    24   ar
    12    24    25   ar
    13    25    26   ar
    14    26    27   ar
    15    27    28   ar
    16    28    29    1
    17    29    30    1
    18     2     1    1
    19     2     3    1
    20     3     4    1
    21     4     5    1
    22     5     6    1
    23     6     7   ar
    24     7     8   ar
    25     8     9   ar
    26     9    10   ar
    27    10    11   ar
    28    15    13    1
    29    30    21    1
    30    11     2    1
    31    28    23   ar
    32    11     6   ar
    33    16    18    1
    34    16    19    1
    35    30    31    1
@<TRIPOS>MOLECULE
*****
 31 35 0 0 0
SMALL
GASTEIGER

@<TRIPOS>ATOM
      1 N          -9.4298  -18.7389   22.9377 N.3     1  UNL1       -0.2679
      2 C          -8.8413  -17.4000   23.2708 C.3     1  UNL1        0.0978
      3 C          -8.3967  -16.4816   22.1714 C.3     1  UNL1        0.0224
      4 C          -7.8082  -15.1427   22.5045 C.3     1  UNL1        0.0065
      5 C          -7.6643  -14.7221   23.9371 C.3     1  UNL1        0.0277
      6 C          -8.1089  -15.6405   25.0366 C.ar    1  UNL1       -0.0073
      7 C          -7.9650  -15.2200   26.4693 C.ar    1  UNL1       -0.0015
      8 C          -8.4096  -16.1383   27.5687 C.ar    1  UNL1        0.0203
      9 C          -8.9981  -17.4773   27.2356 C.ar    1  UNL1        0.0985
     10 N          -9.1420  -17.8978   25.8030 N.ar    1  UNL1       -0.2471
     11 C          -8.6974  -16.9794   24.7034 C.ar    1  UNL1        0.0695
     12 C         -10.9188  -18.9187   22.9136 C.3     1  UNL1        0.0724
     13 C         -12.0164  -16.9043   21.1431 C.3     1  UNL1        0.0169
     14 C         -13.0629  -17.1050   22.1988 C.3     1  UNL1        0.0028
     15 C         -11.7874  -17.8929   22.2477 C.3     1  UNL1        0.0174
     16 N         -12.5257  -15.4977   19.0189 N.3     1  UNL1       -0.3211
     17 C         -11.5445  -16.2176   19.8959 C.3     1  UNL1        0.0651
     18 H         -12.0355  -15.0927   18.2214 H       1  UNL1        0.1189
     19 H         -12.9780  -14.7555   19.5527 H       1  UNL1        0.1189
     20 C          -8.5294  -19.8980   22.6287 C.3     1  UNL1        0.0886
     21 C          -7.2867  -19.6865   21.8156 C.3     1  UNL1        0.0748
     22 C          -5.9573  -19.5549   22.4980 C.3     1  UNL1        0.0432
     23 C          -4.7147  -19.3433   21.6850 C.ar    1  UNL1       -0.0234
     24 C          -3.3854  -19.2117   22.3673 C.ar    1  UNL1       -0.0045
     25 C          -2.1427  -19.0002   21.5542 C.ar    1  UNL1       -0.0003
     26 C          -2.2293  -18.9202   20.0589 C.ar    1  UNL1       -0.0003
     27 C          -3.5587  -19.0518   19.3765 C.ar    1  UNL1       -0.0032
     28 C          -4.8014  -19.2633   20.1896 C.ar    1  UNL1       -0.0103
     29 C          -6.1307  -19.3949   19.5073 C.3     1  UNL1        0.0953
     30 N          -7.3733  -19.6065   20.3203 N.3     1  UNL1       -0.2934
     31 H          -7.7878  -20.4825   20.0021 H       1  UNL1        0.1236
@<TRIPOS>BOND
     1    16    17    1
     2    17    13    1
     3    13    14    1
     4    14    15    1
     5    15    12    1
     6    12     1    1
     7     1    20    1
     8    21    20    1
     9    21    22    1
    10    22    23    1
    11    23    24   ar
    12    24    25   ar
    13    25    26   ar
    14    26    27   ar
    15    27    28   ar
    16    28    29    1
    17    29    30    1
    18     2     1    1
    19     2     3    1
    20     3     4    1
    21     4     5    1
    22     5     6    1
    23     6     7   ar
    24     7     8   ar
    25     8     9   ar
    26     9    10   ar
    27    10    11   ar
    28    15    13    1
    29    30    21    1
    30    11     2    1
    31    28    23   ar
    32    11     6   ar
    33    16    18    1
    34    16    19    1
    35    30    31    1
@<TRIPOS>MOLECULE
*****
 31 35 0 0 0
SMALL
GASTEIGER

@<TRIPOS>ATOM
      1 N          -6.7678  -19.4079   21.4933 N.3     1  UNL1       -0.2679
      2 C          -5.7391  -18.6106   22.2391 C.3     1  UNL1        0.0978
      3 C          -4.3039  -19.0464   22.2339 C.3     1  UNL1        0.0224
      4 C          -3.2752  -18.2492   22.9797 C.3     1  UNL1        0.0065
      5 C          -3.6818  -17.0161   23.7307 C.3     1  UNL1        0.0277
      6 C          -5.1170  -16.5802   23.7359 C.ar    1  UNL1       -0.0073
      7 C          -5.5237  -15.3470   24.4869 C.ar    1  UNL1       -0.0015
      8 C          -6.9589  -14.9112   24.4921 C.ar    1  UNL1        0.0203
      9 C          -7.9876  -15.7084   23.7463 C.ar    1  UNL1        0.0985
     10 N          -7.5810  -16.9416   22.9953 N.ar    1  UNL1       -0.2471
     11 C          -6.1457  -17.3775   22.9901 C.ar    1  UNL1        0.0695
     12 C          -6.9562  -19.1977   20.0201 C.3     1  UNL1        0.0724
     13 C          -8.9241  -20.5628   18.3888 C.3     1  UNL1        0.0169
     14 C          -9.7026  -19.5393   19.1609 C.3     1  UNL1        0.0028
     15 C          -8.2194  -19.6550   19.3527 C.3     1  UNL1        0.0174
     16 N          -9.5477  -21.5134   16.0527 N.3     1  UNL1       -0.3211
     17 C          -8.8814  -21.6780   17.3865 C.3     1  UNL1        0.0651
     18 H          -9.4205  -22.3626   15.5021 H       1  UNL1        0.1189
     19 H          -9.1315  -20.7232   15.5600 H       1  UNL1        0.1189
     20 C          -7.6080  -20.4153   22.2206 C.3     1  UNL1        0.0886
     21 C          -8.8853  -19.9894   22.8817 C.3     1  UNL1        0.0748
     22 C          -9.9035  -19.2035   22.1099 C.3     1  UNL1        0.0432
     23 C         -11.1808  -18.7775   22.7710 C.ar    1  UNL1       -0.0234
     24 C         -12.1990  -17.9917   21.9993 C.ar    1  UNL1       -0.0045
     25 C         -13.4763  -17.5658   22.6604 C.ar    1  UNL1       -0.0003
     26 C         -13.7354  -17.9257   24.0933 C.ar    1  UNL1       -0.0003
     27 C         -12.7172  -18.7116   24.8652 C.ar    1  UNL1       -0.0032
     28 C         -11.4399  -19.1375   24.2040 C.ar    1  UNL1       -0.0103
     29 C         -10.4217  -19.9234   24.9758 C.3     1  UNL1        0.0953
     30 N          -9.1444  -20.3493   24.3146 N.3     1  UNL1       -0.2934
     31 H          -9.1072  -21.3669   24.3740 H       1  UNL1        0.1236
@<TRIPOS>BOND
     1    16    17    1
     2    17    13    1
     3    13    14    1
     4    14    15    1
     5    15    12    1
     6    12     1    1
     7     1    20    1
     8    21    20    1
     9    21    22    1
    10    22    23    1
    11    23    24   ar
    12    24    25   ar
    13    25    26   ar
    14    26    27   ar
    15    27    28   ar
    16    28    29    1
    17    29    30    1
    18     2     1    1
    19     2     3    1
    20     3     4    1
    21     4     5    1
    22     5     6    1
    23     6     7   ar
    24     7     8   ar
    25     8     9   ar
    26     9    10   ar
    27    10    11   ar
    28    15    13    1
    29    30    21    1
    30    11     2    1
    31    28    23   ar
    32    11     6   ar
    33    16    18    1
    34    16    19    1
    35    30    31    1
@<TRIPOS>MOLECULE
*****
 31 35 0 0 0
SMALL
GASTEIGER

@<TRIPOS>ATOM
      1 N          -6.8900  -19.2939   21.5060 N.3     1  UNL1       -0.2679
      2 C          -5.9758  -18.3537   22.2342 C.3     1  UNL1        0.0978
      3 C          -6.5484  -17.2429   23.0637 C.3     1  UNL1        0.0224
      4 C          -5.6342  -16.3026   23.7918 C.3     1  UNL1        0.0065
      5 C          -4.1474  -16.4733   23.6905 C.3     1  UNL1        0.0277
      6 C          -3.5748  -17.5841   22.8610 C.ar    1  UNL1       -0.0073
      7 C          -2.0879  -17.7548   22.7596 C.ar    1  UNL1       -0.0015
      8 C          -1.5154  -18.8656   21.9301 C.ar    1  UNL1        0.0203
      9 C          -2.4296  -19.8059   21.2019 C.ar    1  UNL1        0.0985
     10 N          -3.9163  -19.6352   21.3033 N.ar    1  UNL1       -0.2471
     11 C          -4.4890  -18.5243   22.1328 C.ar    1  UNL1        0.0695
     12 C          -7.0148  -19.2131   20.0134 C.3     1  UNL1        0.0724
     13 C          -8.9676  -20.5789   18.3646 C.3     1  UNL1        0.0169
     14 C          -9.7571  -19.5729   19.1485 C.3     1  UNL1        0.0028
     15 C          -8.2729  -19.6755   19.3399 C.3     1  UNL1        0.0174
     16 N          -9.6044  -21.5190   16.0279 N.3     1  UNL1       -0.3211
     17 C          -8.9129  -21.6814   17.3490 C.3     1  UNL1        0.0651
     18 H          -9.4647  -22.3585   15.4655 H       1  UNL1        0.1189
     19 H          -9.2164  -20.7130   15.5378 H       1  UNL1        0.1189
     20 C          -7.6793  -20.3150   22.2704 C.3     1  UNL1        0.0886
     21 C          -8.9700  -19.9262   22.9286 C.3     1  UNL1        0.0748
     22 C          -9.9504  -19.0549   22.2008 C.3     1  UNL1        0.0432
     23 C         -11.2410  -18.6662   22.8590 C.ar    1  UNL1       -0.0234
     24 C         -12.2214  -17.7949   22.1312 C.ar    1  UNL1       -0.0045
     25 C         -13.5120  -17.4062   22.7894 C.ar    1  UNL1       -0.0003
     26 C         -13.8222  -17.8888   24.1753 C.ar    1  UNL1       -0.0003
     27 C         -12.8418  -18.7601   24.9032 C.ar    1  UNL1       -0.0032
     28 C         -11.5512  -19.1488   24.2450 C.ar    1  UNL1       -0.0103
     29 C         -10.5708  -20.0201   24.9727 C.3     1  UNL1        0.0953
     30 N          -9.2802  -20.4088   24.3145 N.3     1  UNL1       -0.2934
     31 H          -9.2613  -21.4281   24.2825 H       1  UNL1        0.1236
@<TRIPOS>BOND
     1    16    17    1
     2    17    13    1
     3    13    14    1
     4    14    15    1
     5    15    12    1
     6    12     1    1
     7     1    20    1
     8    21    20    1
     9    21    22    1
    10    22    23    1
    11    23    24   ar
    12    24    25   ar
    13    25    26   ar
    14    26    27   ar
    15    27    28   ar
    16    28    29    1
    17    29    30    1
    18     2     1    1
    19     2     3    1
    20     3     4    1
    21     4     5    1
    22     5     6    1
    23     6     7   ar
    24     7     8   ar
    25     8     9   ar
    26     9    10   ar
    27    10    11   ar
    28    15    13    1
    29    30    21    1
    30    11     2    1
    31    28    23   ar
    32    11     6   ar
    33    16    18    1
    34    16    19    1
    35    30    31    1
