@<TRIPOS>MOLECULE
*****
 42 46 0 0 0
SMALL
GASTEIGER

@<TRIPOS>ATOM
      1 C           5.2704   -1.9768   25.6154 C.3     1  UNL1        0.1243
      2 N           6.0032   -3.1053   24.9523 N.3     1  UNL1       -0.2823
      3 C           5.8404   -3.6349   23.5583 C.3     1  UNL1        0.1560
      4 C           4.9048   -3.1670   22.4833 C.2     1  UNL1        0.2457
      5 O           5.1142   -4.0119   21.2617 O.2     1  UNL1       -0.2730
      6 N           3.9009   -2.0537   22.5367 N.am    1  UNL1       -0.2533
      7 C           3.5846   -1.1335   23.6783 C.ar    1  UNL1        0.0518
      8 C           2.5085   -0.1550   23.3114 C.ar    1  UNL1        0.0146
      9 C           2.0420    0.8577   24.3147 C.ar    1  UNL1        0.0013
     10 C           2.6515    0.8919   25.6849 C.ar    1  UNL1       -0.0002
     11 C           3.7275   -0.0866   26.0517 C.ar    1  UNL1       -0.0014
     12 C           4.1941   -1.0993   25.0484 C.ar    1  UNL1        0.0118
     13 H           5.8298   -3.9108   25.5536 H       1  UNL1        0.1243
     14 C           4.9541   -1.0566   26.7570 C.ar    1  UNL1       -0.0019
     15 C           5.6936    0.2404   26.9019 C.ar    1  UNL1       -0.0026
     16 C           5.3774    1.1605   28.0435 C.ar    1  UNL1       -0.0003
     17 C           4.3216    0.7838   29.0401 C.ar    1  UNL1       -0.0000
     18 C           3.5820   -0.5133   28.8953 C.ar    1  UNL1       -0.0003
     19 C           3.8984   -1.4334   27.7536 C.ar    1  UNL1       -0.0026
     20 C           6.2060   -2.4448   26.6904 C.3     1  UNL1        0.2224
     21 C           7.6155   -1.9333   26.7329 C.2     1  UNL1        0.0919
     22 O           8.2885   -1.6982   28.0527 O.co2   1  UNL1       -0.5455
     23 O           8.3518   -1.6569   25.4558 O.co2   1  UNL1       -0.5455
     24 O           5.7321   -3.4242   27.7229 O.3     1  UNL1       -0.4716
     25 C           8.5532   -6.2363   31.0598 C.3     1  UNL1        0.0311
     26 C           7.9575   -6.0524   29.6955 C.ar    1  UNL1       -0.0192
     27 C           8.1767   -7.0906   28.6352 C.ar    1  UNL1       -0.0083
     28 C           7.5810   -6.9067   27.2709 C.ar    1  UNL1       -0.0192
     29 C           7.8001   -7.9450   26.2107 C.3     1  UNL1        0.0311
     30 C           6.7662   -5.6847   26.9668 C.ar    1  UNL1        0.0326
     31 C           6.5470   -4.6464   28.0271 C.ar    1  UNL1        0.1384
     32 C           7.1427   -4.8303   29.3914 C.ar    1  UNL1        0.0326
     33 C           3.1085   -1.8313   21.2827 C.3     1  UNL1        0.1292
     34 C           3.7797   -1.2819   20.0589 C.ar    1  UNL1        0.0531
     35 C           4.3976    0.0845   20.0919 C.ar    1  UNL1        0.1422
     36 F           4.4355    1.0303   21.2556 F       1  UNL1       -0.2043
     37 C           5.0688    0.6339   18.8682 C.ar    1  UNL1        0.0591
     38 C           5.1221   -0.1831   17.6113 C.ar    1  UNL1        0.1446
     39 F           5.7933    0.3663   16.3875 F       1  UNL1       -0.2040
     40 C           4.5042   -1.5494   17.5783 C.ar    1  UNL1        0.0591
     41 C           3.8330   -2.0989   18.8020 C.ar    1  UNL1        0.1422
     42 F           3.2151   -3.4653   18.7690 F       1  UNL1       -0.2043
@<TRIPOS>UNITY_ATOM_ATTR
22 1
charge -1
@<TRIPOS>BOND
     1    25    26    1
     2    26    27   ar
     3    27    28   ar
     4    28    29    1
     5    28    30   ar
     6    30    31   ar
     7    31    24    1
     8    20    24    1
     9    20    21    1
    10    21    22   ar
    11    21    23   ar
    12    20     1    1
    13     1    14    1
    14    14    15   ar
    15    15    16   ar
    16    16    17   ar
    17    17    18   ar
    18    18    19   ar
    19     1     2    1
    20     2     3    1
    21     3     4    1
    22     4     5    2
    23     4     6   am
    24     6    33    1
    25    33    34    1
    26    34    35   ar
    27    35    36    1
    28    35    37   ar
    29    37    38   ar
    30    38    39    1
    31    38    40   ar
    32    40    41   ar
    33    41    42    1
    34     6     7    1
    35     7     8   ar
    36     8     9   ar
    37     9    10   ar
    38    10    11   ar
    39    11    12   ar
    40    31    32   ar
    41    32    26   ar
    42    12     1    1
    43    19    14   ar
    44    41    34   ar
    45    12     7   ar
    46     2    13    1
@<TRIPOS>MOLECULE
*****
 42 46 0 0 0
SMALL
GASTEIGER

@<TRIPOS>ATOM
      1 C           5.2998   -1.9992   25.6389 C.3     1  UNL1        0.1243
      2 N           6.0156   -3.1389   24.9763 N.3     1  UNL1       -0.2823
      3 C           5.8405   -3.6708   23.5848 C.3     1  UNL1        0.1560
      4 C           4.9064   -3.1944   22.5121 C.2     1  UNL1        0.2457
      5 O           5.1001   -4.0458   21.2923 O.2     1  UNL1       -0.2730
      6 N           3.9167   -2.0685   22.5661 N.am    1  UNL1       -0.2533
      7 C           3.6167   -1.1409   23.7060 C.ar    1  UNL1        0.0518
      8 C           2.5515   -0.1501   23.3405 C.ar    1  UNL1        0.0146
      9 C           2.1018    0.8715   24.3425 C.ar    1  UNL1        0.0013
     10 C           2.7173    0.9023   25.7100 C.ar    1  UNL1       -0.0002
     11 C           3.7826   -0.0884   26.0756 C.ar    1  UNL1       -0.0014
     12 C           4.2322   -1.1100   25.0736 C.ar    1  UNL1        0.0118
     13 H           5.8347   -3.9403   25.5809 H       1  UNL1        0.1243
     14 C           4.9998   -1.0716   26.7789 C.ar    1  UNL1       -0.0019
     15 C           3.9422   -1.4312   27.7800 C.ar    1  UNL1       -0.0026
     16 C           3.6422   -0.5036   28.9199 C.ar    1  UNL1       -0.0003
     17 C           4.3997    0.7836   29.0588 C.ar    1  UNL1       -0.0000
     18 C           5.4574    1.1432   28.0576 C.ar    1  UNL1       -0.0003
     19 C           5.7573    0.2156   26.9177 C.ar    1  UNL1       -0.0026
     20 C           6.2339   -2.4756   26.7116 C.3     1  UNL1        0.2224
     21 C           7.6493   -1.9803   26.7477 C.2     1  UNL1        0.0919
     22 O           8.3304   -1.7511   28.0644 O.co2   1  UNL1       -0.5455
     23 O           8.3837   -1.7143   25.4671 O.co2   1  UNL1       -0.5455
     24 O           5.7526   -3.4471   27.7481 O.3     1  UNL1       -0.4716
     25 C           7.8850   -7.9524   26.2800 C.3     1  UNL1        0.0311
     26 C           7.6333   -6.9174   27.3362 C.ar    1  UNL1       -0.0192
     27 C           8.1961   -7.1002   28.7146 C.ar    1  UNL1       -0.0083
     28 C           7.9443   -6.0653   29.7708 C.ar    1  UNL1       -0.0192
     29 C           8.5071   -6.2481   31.1492 C.3     1  UNL1        0.0311
     30 C           7.1298   -4.8476   29.4486 C.ar    1  UNL1        0.0326
     31 C           6.5671   -4.6648   28.0702 C.ar    1  UNL1        0.1384
     32 C           6.8188   -5.6998   27.0141 C.ar    1  UNL1        0.0326
     33 C           3.1220   -1.8401   21.3146 C.3     1  UNL1        0.1292
     34 C           3.7936   -1.2963   20.0884 C.ar    1  UNL1        0.0531
     35 C           4.4327    0.0602   20.1225 C.ar    1  UNL1        0.1422
     36 F           4.4928    1.0008   21.2895 F       1  UNL1       -0.2043
     37 C           5.1042    0.6040   18.8965 C.ar    1  UNL1        0.0591
     38 C           5.1366   -0.2089   17.6362 C.ar    1  UNL1        0.1446
     39 F           5.8082    0.3348   16.4100 F       1  UNL1       -0.2040
     40 C           4.4975   -1.5654   17.6021 C.ar    1  UNL1        0.0591
     41 C           3.8259   -2.1092   18.8282 C.ar    1  UNL1        0.1422
     42 F           3.1867   -3.4658   18.7941 F       1  UNL1       -0.2043
@<TRIPOS>UNITY_ATOM_ATTR
22 1
charge -1
@<TRIPOS>BOND
     1    25    26    1
     2    26    27   ar
     3    27    28   ar
     4    28    29    1
     5    28    30   ar
     6    30    31   ar
     7    31    24    1
     8    20    24    1
     9    20    21    1
    10    21    22   ar
    11    21    23   ar
    12    20     1    1
    13     1    14    1
    14    14    15   ar
    15    15    16   ar
    16    16    17   ar
    17    17    18   ar
    18    18    19   ar
    19     1     2    1
    20     2     3    1
    21     3     4    1
    22     4     5    2
    23     4     6   am
    24     6    33    1
    25    33    34    1
    26    34    35   ar
    27    35    36    1
    28    35    37   ar
    29    37    38   ar
    30    38    39    1
    31    38    40   ar
    32    40    41   ar
    33    41    42    1
    34     6     7    1
    35     7     8   ar
    36     8     9   ar
    37     9    10   ar
    38    10    11   ar
    39    11    12   ar
    40    31    32   ar
    41    32    26   ar
    42    12     1    1
    43    19    14   ar
    44    41    34   ar
    45    12     7   ar
    46     2    13    1
@<TRIPOS>MOLECULE
*****
 42 46 0 0 0
SMALL
GASTEIGER

@<TRIPOS>ATOM
      1 C           5.7359   -1.7891   22.1071 C.3     1  UNL1        0.1243
      2 N           6.7137   -1.3527   23.1576 N.3     1  UNL1       -0.2823
      3 C           6.6117   -0.1963   24.1075 C.3     1  UNL1        0.1560
      4 C           5.5068    0.8093   24.2416 C.2     1  UNL1        0.2457
      5 O           5.8633    1.7733   25.3341 O.2     1  UNL1       -0.2730
      6 N           4.2309    0.9068   23.4589 N.am    1  UNL1       -0.2533
      7 C           3.7448    0.0229   22.3487 C.ar    1  UNL1        0.0518
      8 C           2.4090    0.4722   21.8353 C.ar    1  UNL1        0.0146
      9 C           1.7430   -0.2782   20.7203 C.ar    1  UNL1        0.0013
     10 C           2.4128   -1.4780   20.1187 C.ar    1  UNL1       -0.0002
     11 C           3.7486   -1.9273   20.6321 C.ar    1  UNL1       -0.0014
     12 C           4.4146   -1.1769   21.7471 C.ar    1  UNL1        0.0118
     13 H           7.5810   -1.1880   22.6467 H       1  UNL1        0.1243
     14 C           5.2498   -2.6731   20.9969 C.ar    1  UNL1       -0.0019
     15 C           5.6491   -2.3857   19.5799 C.ar    1  UNL1       -0.0026
     16 C           5.1631   -3.2696   18.4698 C.ar    1  UNL1       -0.0003
     17 C           4.2778   -4.4409   18.7766 C.ar    1  UNL1       -0.0000
     18 C           3.8785   -4.7284   20.1938 C.ar    1  UNL1       -0.0003
     19 C           4.3645   -3.8444   21.3039 C.ar    1  UNL1       -0.0026
     20 C           6.8408   -2.7947   21.9730 C.3     1  UNL1        0.2224
     21 C           8.2021   -2.3572   21.5198 C.2     1  UNL1        0.0919
     22 O           8.3985   -0.9812   20.9556 O.co2   1  UNL1       -0.5455
     23 O           9.3670   -3.2955   21.6308 O.co2   1  UNL1       -0.5455
     24 O           6.5844   -4.2377   22.2921 O.3     1  UNL1       -0.4716
     25 C           6.7076   -4.2769   27.4867 C.3     1  UNL1        0.0311
     26 C           7.1561   -4.8438   26.1723 C.ar    1  UNL1       -0.0192
     27 C           8.1146   -5.9972   26.1409 C.ar    1  UNL1       -0.0083
     28 C           8.5631   -6.5640   24.8265 C.ar    1  UNL1       -0.0192
     29 C           9.5217   -7.7174   24.7950 C.3     1  UNL1        0.0311
     30 C           8.0530   -5.9776   23.5436 C.ar    1  UNL1        0.0326
     31 C           7.0945   -4.8242   23.5751 C.ar    1  UNL1        0.1384
     32 C           6.6460   -4.2573   24.8895 C.ar    1  UNL1        0.0326
     33 C           3.3207    2.0378   23.8361 C.3     1  UNL1        0.1292
     34 C           2.1724    1.7967   24.7707 C.ar    1  UNL1        0.0531
     35 C           2.4059    1.1120   26.0846 C.ar    1  UNL1        0.1422
     36 F           3.7129    0.6065   26.6196 F       1  UNL1       -0.2043
     37 C           1.2577    0.8708   27.0192 C.ar    1  UNL1        0.0591
     38 C          -0.1241    1.3145   26.6397 C.ar    1  UNL1        0.1446
     39 F          -1.2724    1.0733   27.5742 F       1  UNL1       -0.2040
     40 C          -0.3575    1.9992   25.3257 C.ar    1  UNL1        0.0591
     41 C           0.7907    2.2403   24.3912 C.ar    1  UNL1        0.1422
     42 F           0.5573    2.9251   23.0771 F       1  UNL1       -0.2043
@<TRIPOS>UNITY_ATOM_ATTR
22 1
charge -1
@<TRIPOS>BOND
     1    25    26    1
     2    26    27   ar
     3    27    28   ar
     4    28    29    1
     5    28    30   ar
     6    30    31   ar
     7    31    24    1
     8    20    24    1
     9    20    21    1
    10    21    22   ar
    11    21    23   ar
    12    20     1    1
    13     1    14    1
    14    14    15   ar
    15    15    16   ar
    16    16    17   ar
    17    17    18   ar
    18    18    19   ar
    19     1     2    1
    20     2     3    1
    21     3     4    1
    22     4     5    2
    23     4     6   am
    24     6    33    1
    25    33    34    1
    26    34    35   ar
    27    35    36    1
    28    35    37   ar
    29    37    38   ar
    30    38    39    1
    31    38    40   ar
    32    40    41   ar
    33    41    42    1
    34     6     7    1
    35     7     8   ar
    36     8     9   ar
    37     9    10   ar
    38    10    11   ar
    39    11    12   ar
    40    31    32   ar
    41    32    26   ar
    42    12     1    1
    43    19    14   ar
    44    41    34   ar
    45    12     7   ar
    46     2    13    1
@<TRIPOS>MOLECULE
*****
 42 46 0 0 0
SMALL
GASTEIGER

@<TRIPOS>ATOM
      1 C          -0.2298    2.4960   23.0820 C.3     1  UNL1        0.1243
      2 N          -0.7824    2.5673   21.6894 N.3     1  UNL1       -0.2823
      3 C          -0.3801    1.7734   20.4819 C.3     1  UNL1        0.1560
      4 C           0.6741    0.7122   20.3689 C.2     1  UNL1        0.2457
      5 O           0.7034    0.2115   18.9552 O.2     1  UNL1       -0.2730
      6 N           1.5863    0.1829   21.4356 N.am    1  UNL1       -0.2533
      7 C           1.6697    0.5839   22.8786 C.ar    1  UNL1        0.0518
      8 C           2.7244   -0.1975   23.6045 C.ar    1  UNL1        0.0146
      9 C           2.9708    0.0505   25.0631 C.ar    1  UNL1        0.0013
     10 C           2.1625    1.0799   25.7959 C.ar    1  UNL1       -0.0002
     11 C           1.1078    1.8614   25.0700 C.ar    1  UNL1       -0.0014
     12 C           0.8614    1.6134   23.6113 C.ar    1  UNL1        0.0118
     13 H          -0.6502    3.5397   21.4115 H       1  UNL1        0.1243
     14 C          -0.1465    2.8971   24.5251 C.ar    1  UNL1       -0.0019
     15 C           0.7545    4.0223   24.9399 C.ar    1  UNL1       -0.0026
     16 C           0.8378    4.4234   26.3829 C.ar    1  UNL1       -0.0003
     17 C           0.0203    3.6993   27.4110 C.ar    1  UNL1       -0.0000
     18 C          -0.8808    2.5739   26.9962 C.ar    1  UNL1       -0.0003
     19 C          -0.9641    2.1729   25.5532 C.ar    1  UNL1       -0.0026
     20 C          -1.2840    3.5572   23.1950 C.3     1  UNL1        0.2224
     21 C          -0.9836    4.9617   22.7627 C.2     1  UNL1        0.0919
     22 O           0.0619    5.2175   21.7179 O.co2   1  UNL1       -0.5455
     23 O          -1.7288    6.1105   23.3750 O.co2   1  UNL1       -0.5455
     24 O          -2.6385    3.2137   23.7404 O.3     1  UNL1       -0.4716
     25 C          -5.0644    3.5860   19.1604 C.3     1  UNL1        0.0311
     26 C          -5.0828    3.7169   20.6546 C.ar    1  UNL1       -0.0192
     27 C          -6.3325    4.1648   21.3529 C.ar    1  UNL1       -0.0083
     28 C          -6.3508    4.2957   22.8471 C.ar    1  UNL1       -0.0192
     29 C          -7.6005    4.7436   23.5455 C.3     1  UNL1        0.0311
     30 C          -5.1195    3.9787   23.6429 C.ar    1  UNL1        0.0326
     31 C          -3.8698    3.5307   22.9445 C.ar    1  UNL1        0.1384
     32 C          -3.8515    3.3999   21.4503 C.ar    1  UNL1        0.0326
     33 C           2.5414   -0.8893   21.0018 C.3     1  UNL1        0.1292
     34 C           3.5313   -0.6145   19.9087 C.ar    1  UNL1        0.0531
     35 C           4.2065    0.7223   19.8270 C.ar    1  UNL1        0.1422
     36 F           4.0114    1.8901   20.7481 F       1  UNL1       -0.2043
     37 C           5.1963    0.9971   18.7340 C.ar    1  UNL1        0.0591
     38 C           5.5110   -0.0651   17.7227 C.ar    1  UNL1        0.1446
     39 F           6.5008    0.2096   16.6296 F       1  UNL1       -0.2040
     40 C           4.8358   -1.4020   17.8044 C.ar    1  UNL1        0.0591
     41 C           3.8459   -1.6768   18.8974 C.ar    1  UNL1        0.1422
     42 F           3.1707   -3.0137   18.9792 F       1  UNL1       -0.2043
@<TRIPOS>UNITY_ATOM_ATTR
22 1
charge -1
@<TRIPOS>BOND
     1    25    26    1
     2    26    27   ar
     3    27    28   ar
     4    28    29    1
     5    28    30   ar
     6    30    31   ar
     7    31    24    1
     8    20    24    1
     9    20    21    1
    10    21    22   ar
    11    21    23   ar
    12    20     1    1
    13     1    14    1
    14    14    15   ar
    15    15    16   ar
    16    16    17   ar
    17    17    18   ar
    18    18    19   ar
    19     1     2    1
    20     2     3    1
    21     3     4    1
    22     4     5    2
    23     4     6   am
    24     6    33    1
    25    33    34    1
    26    34    35   ar
    27    35    36    1
    28    35    37   ar
    29    37    38   ar
    30    38    39    1
    31    38    40   ar
    32    40    41   ar
    33    41    42    1
    34     6     7    1
    35     7     8   ar
    36     8     9   ar
    37     9    10   ar
    38    10    11   ar
    39    11    12   ar
    40    31    32   ar
    41    32    26   ar
    42    12     1    1
    43    19    14   ar
    44    41    34   ar
    45    12     7   ar
    46     2    13    1
@<TRIPOS>MOLECULE
*****
 42 46 0 0 0
SMALL
GASTEIGER

@<TRIPOS>ATOM
      1 C          -0.2525    2.5441   23.0290 C.3     1  UNL1        0.1243
      2 N          -0.7843    2.5785   21.6269 N.3     1  UNL1       -0.2823
      3 C          -0.3609    1.7565   20.4457 C.3     1  UNL1        0.1560
      4 C           0.6988    0.6972   20.3750 C.2     1  UNL1        0.2457
      5 O           0.7513    0.1616   18.9748 O.2     1  UNL1       -0.2730
      6 N           1.5969    0.1983   21.4680 N.am    1  UNL1       -0.2533
      7 C           1.6571    0.6355   22.9016 C.ar    1  UNL1        0.0518
      8 C           2.7036   -0.1233   23.6624 C.ar    1  UNL1        0.0146
      9 C           2.9272    0.1619   25.1180 C.ar    1  UNL1        0.0013
     10 C           2.1041    1.2059   25.8127 C.ar    1  UNL1       -0.0002
     11 C           1.0575    1.9647   25.0519 C.ar    1  UNL1       -0.0014
     12 C           0.8340    1.6795   23.5964 C.ar    1  UNL1        0.0118
     13 H          -0.6516    3.5443   21.3268 H       1  UNL1        0.1243
     14 C          -0.1923    2.9813   24.4627 C.ar    1  UNL1       -0.0019
     15 C          -1.0408    2.2955   25.4921 C.ar    1  UNL1       -0.0026
     16 C          -0.9807    2.7326   26.9257 C.ar    1  UNL1       -0.0003
     17 C          -0.0721    3.8556   27.3299 C.ar    1  UNL1       -0.0000
     18 C           0.7765    4.5415   26.3004 C.ar    1  UNL1       -0.0003
     19 C           0.7163    4.1043   24.8668 C.ar    1  UNL1       -0.0026
     20 C          -1.3122    3.6034   23.0997 C.3     1  UNL1        0.2224
     21 C          -1.0173    4.9927   22.6172 C.2     1  UNL1        0.0919
     22 O           0.0819    5.2238   21.6229 O.co2   1  UNL1       -0.5455
     23 O          -1.8214    6.1509   23.1289 O.co2   1  UNL1       -0.5455
     24 O          -2.6667    3.2734   23.6530 O.3     1  UNL1       -0.4716
     25 C          -7.6850    4.5959   23.3906 C.3     1  UNL1        0.0311
     26 C          -6.4057    4.2107   22.7086 C.ar    1  UNL1       -0.0192
     27 C          -6.3563    4.1016   21.2134 C.ar    1  UNL1       -0.0083
     28 C          -5.0770    3.7164   20.5314 C.ar    1  UNL1       -0.0192
     29 C          -5.0276    3.6072   19.0361 C.3     1  UNL1        0.0311
     30 C          -3.8472    3.4403   21.3446 C.ar    1  UNL1        0.0326
     31 C          -3.8967    3.5495   22.8398 C.ar    1  UNL1        0.1384
     32 C          -5.1759    3.9346   23.5218 C.ar    1  UNL1        0.0326
     33 C           2.5625   -0.8803   21.0754 C.3     1  UNL1        0.1292
     34 C           3.5461   -0.6400   19.9687 C.ar    1  UNL1        0.0531
     35 C           3.8126   -1.7138   18.9559 C.ar    1  UNL1        0.1422
     36 F           3.1888   -3.0767   18.8997 F       1  UNL1       -0.2043
     37 C           4.7962   -1.4735   17.8492 C.ar    1  UNL1        0.0591
     38 C           5.5134   -0.1594   17.7554 C.ar    1  UNL1        0.1446
     39 F           6.4971    0.0809   16.6488 F       1  UNL1       -0.2040
     40 C           5.2469    0.9143   18.7683 C.ar    1  UNL1        0.0591
     41 C           4.2633    0.6741   19.8750 C.ar    1  UNL1        0.1422
     42 F           3.9968    1.7479   20.8879 F       1  UNL1       -0.2043
@<TRIPOS>UNITY_ATOM_ATTR
22 1
charge -1
@<TRIPOS>BOND
     1    25    26    1
     2    26    27   ar
     3    27    28   ar
     4    28    29    1
     5    28    30   ar
     6    30    31   ar
     7    31    24    1
     8    20    24    1
     9    20    21    1
    10    21    22   ar
    11    21    23   ar
    12    20     1    1
    13     1    14    1
    14    14    15   ar
    15    15    16   ar
    16    16    17   ar
    17    17    18   ar
    18    18    19   ar
    19     1     2    1
    20     2     3    1
    21     3     4    1
    22     4     5    2
    23     4     6   am
    24     6    33    1
    25    33    34    1
    26    34    35   ar
    27    35    36    1
    28    35    37   ar
    29    37    38   ar
    30    38    39    1
    31    38    40   ar
    32    40    41   ar
    33    41    42    1
    34     6     7    1
    35     7     8   ar
    36     8     9   ar
    37     9    10   ar
    38    10    11   ar
    39    11    12   ar
    40    31    32   ar
    41    32    26   ar
    42    12     1    1
    43    19    14   ar
    44    41    34   ar
    45    12     7   ar
    46     2    13    1
@<TRIPOS>MOLECULE
*****
 42 46 0 0 0
SMALL
GASTEIGER

@<TRIPOS>ATOM
      1 C           6.6413   -3.4198   27.6971 C.3     1  UNL1        0.1243
      2 N           5.9297   -2.1045   27.5807 N.3     1  UNL1       -0.2823
      3 C           5.3612   -1.2488   28.6737 C.3     1  UNL1        0.1560
      4 C           5.3640   -1.4970   30.1531 C.2     1  UNL1        0.2457
      5 O           4.6742   -0.3525   30.8344 O.2     1  UNL1       -0.2730
      6 N           5.9360   -2.6623   30.9047 N.am    1  UNL1       -0.2533
      7 C           6.6464   -3.8671   30.3627 C.ar    1  UNL1        0.0518
      8 C           7.0596   -4.8003   31.4620 C.ar    1  UNL1        0.0146
      9 C           7.7867   -6.0705   31.1338 C.ar    1  UNL1        0.0013
     10 C           8.1005   -6.4077   29.7063 C.ar    1  UNL1       -0.0002
     11 C           7.6874   -5.4745   28.6070 C.ar    1  UNL1       -0.0014
     12 C           6.9603   -4.2043   28.9352 C.ar    1  UNL1        0.0118
     13 H           5.1371   -2.2962   26.9679 H       1  UNL1        0.1243
     14 C           7.3517   -4.6247   27.1551 C.ar    1  UNL1       -0.0019
     15 C           6.5888   -5.8882   26.8882 C.ar    1  UNL1       -0.0026
     16 C           7.2991   -7.0930   26.3462 C.ar    1  UNL1       -0.0003
     17 C           8.7725   -7.0343   26.0711 C.ar    1  UNL1       -0.0000
     18 C           9.5356   -5.7707   26.3380 C.ar    1  UNL1       -0.0003
     19 C           8.8251   -4.5659   26.8800 C.ar    1  UNL1       -0.0026
     20 C           6.6385   -3.1716   26.2178 C.3     1  UNL1        0.2224
     21 C           7.1332   -1.8633   25.6759 C.2     1  UNL1        0.0919
     22 O           6.1700   -0.8982   25.0506 O.co2   1  UNL1       -0.5455
     23 O           8.5909   -1.5201   25.7593 O.co2   1  UNL1       -0.5455
     24 O           6.1410   -4.2317   25.2804 O.3     1  UNL1       -0.4716
     25 C           9.0172   -4.6332   20.9715 C.3     1  UNL1        0.0311
     26 C           7.7311   -4.2547   21.6443 C.ar    1  UNL1       -0.0192
     27 C           6.5969   -3.6985   20.8354 C.ar    1  UNL1       -0.0083
     28 C           5.3108   -3.3199   21.5082 C.ar    1  UNL1       -0.0192
     29 C           4.1766   -2.7637   20.6993 C.3     1  UNL1        0.0311
     30 C           5.1588   -3.4977   22.9898 C.ar    1  UNL1        0.0326
     31 C           6.2930   -4.0539   23.7987 C.ar    1  UNL1        0.1384
     32 C           7.5791   -4.4325   23.1259 C.ar    1  UNL1        0.0326
     33 C           5.7765   -2.6167   32.3955 C.3     1  UNL1        0.1292
     34 C           6.4943   -1.5699   33.1949 C.ar    1  UNL1        0.0531
     35 C           7.9564   -1.3242   32.9675 C.ar    1  UNL1        0.1422
     36 F           8.8487   -2.0282   31.9886 F       1  UNL1       -0.2043
     37 C           8.6743   -0.2775   33.7669 C.ar    1  UNL1        0.0591
     38 C           7.9300    0.5235   34.7938 C.ar    1  UNL1        0.1446
     39 F           8.6478    1.5702   35.5932 F       1  UNL1       -0.2040
     40 C           6.4679    0.2777   35.0212 C.ar    1  UNL1        0.0591
     41 C           5.7500   -0.7690   34.2218 C.ar    1  UNL1        0.1422
     42 F           4.2878   -1.0148   34.4492 F       1  UNL1       -0.2043
@<TRIPOS>UNITY_ATOM_ATTR
22 1
charge -1
@<TRIPOS>BOND
     1    25    26    1
     2    26    27   ar
     3    27    28   ar
     4    28    29    1
     5    28    30   ar
     6    30    31   ar
     7    31    24    1
     8    20    24    1
     9    20    21    1
    10    21    22   ar
    11    21    23   ar
    12    20     1    1
    13     1    14    1
    14    14    15   ar
    15    15    16   ar
    16    16    17   ar
    17    17    18   ar
    18    18    19   ar
    19     1     2    1
    20     2     3    1
    21     3     4    1
    22     4     5    2
    23     4     6   am
    24     6    33    1
    25    33    34    1
    26    34    35   ar
    27    35    36    1
    28    35    37   ar
    29    37    38   ar
    30    38    39    1
    31    38    40   ar
    32    40    41   ar
    33    41    42    1
    34     6     7    1
    35     7     8   ar
    36     8     9   ar
    37     9    10   ar
    38    10    11   ar
    39    11    12   ar
    40    31    32   ar
    41    32    26   ar
    42    12     1    1
    43    19    14   ar
    44    41    34   ar
    45    12     7   ar
    46     2    13    1
@<TRIPOS>MOLECULE
*****
 42 46 0 0 0
SMALL
GASTEIGER

@<TRIPOS>ATOM
      1 C           6.6749   -3.4912   27.6203 C.3     1  UNL1        0.1243
      2 N           5.9809   -2.1662   27.5076 N.3     1  UNL1       -0.2823
      3 C           5.4263   -1.3048   28.6033 C.3     1  UNL1        0.1560
      4 C           5.4288   -1.5556   30.0822 C.2     1  UNL1        0.2457
      5 O           4.7559   -0.4031   30.7669 O.2     1  UNL1       -0.2730
      6 N           5.9865   -2.7299   30.8306 N.am    1  UNL1       -0.2533
      7 C           6.6794   -3.9433   30.2851 C.ar    1  UNL1        0.0518
      8 C           7.0821   -4.8839   31.3819 C.ar    1  UNL1        0.0146
      9 C           7.7912   -6.1633   31.0500 C.ar    1  UNL1        0.0013
     10 C           8.0976   -6.5021   29.6212 C.ar    1  UNL1       -0.0002
     11 C           7.6949   -5.5615   28.5244 C.ar    1  UNL1       -0.0014
     12 C           6.9858   -4.2821   28.8564 C.ar    1  UNL1        0.0118
     13 H           5.1846   -2.3460   26.8961 H       1  UNL1        0.1243
     14 C           7.3678   -4.7046   27.0747 C.ar    1  UNL1       -0.0019
     15 C           6.5897   -5.9614   26.8194 C.ar    1  UNL1       -0.0026
     16 C           7.2826   -7.1747   26.2739 C.ar    1  UNL1       -0.0003
     17 C           8.7535   -7.1314   25.9836 C.ar    1  UNL1       -0.0000
     18 C           9.5317   -5.8746   26.2389 C.ar    1  UNL1       -0.0003
     19 C           8.8388   -4.6612   26.7844 C.ar    1  UNL1       -0.0026
     20 C           6.6724   -3.2404   26.1414 C.3     1  UNL1        0.2224
     21 C           7.1715   -1.9329   25.6016 C.2     1  UNL1        0.0919
     22 O           6.2101   -0.9591   24.9871 O.co2   1  UNL1       -0.5455
     23 O           8.6319   -1.5991   25.6764 O.co2   1  UNL1       -0.5455
     24 O           6.1708   -4.2970   25.2023 O.3     1  UNL1       -0.4716
     25 C           4.1875   -2.8426   20.6251 C.3     1  UNL1        0.0311
     26 C           5.3280   -3.3884   21.4322 C.ar    1  UNL1       -0.0192
     27 C           6.6174   -3.7526   20.7577 C.ar    1  UNL1       -0.0083
     28 C           7.7579   -4.2984   21.5648 C.ar    1  UNL1       -0.0192
     29 C           9.0473   -4.6626   20.8903 C.3     1  UNL1        0.0311
     30 C           7.6091   -4.4798   23.0463 C.ar    1  UNL1        0.0326
     31 C           6.3197   -4.1155   23.7207 C.ar    1  UNL1        0.1384
     32 C           5.1791   -3.5698   22.9136 C.ar    1  UNL1        0.0326
     33 C           5.8307   -2.6848   32.3218 C.3     1  UNL1        0.1292
     34 C           6.4964   -1.5981   33.1130 C.ar    1  UNL1        0.0531
     35 C           5.7116   -0.8208   34.1277 C.ar    1  UNL1        0.1422
     36 F           4.2634   -0.9968   34.4769 F       1  UNL1       -0.2043
     37 C           6.3773    0.2659   34.9189 C.ar    1  UNL1        0.0591
     38 C           7.8279    0.5753   34.6952 C.ar    1  UNL1        0.1446
     39 F           8.4936    1.6620   35.4863 F       1  UNL1       -0.2040
     40 C           8.6127   -0.2019   33.6804 C.ar    1  UNL1        0.0591
     41 C           7.9470   -1.2886   32.8893 C.ar    1  UNL1        0.1422
     42 F           8.7319   -2.0659   31.8744 F       1  UNL1       -0.2043
@<TRIPOS>UNITY_ATOM_ATTR
22 1
charge -1
@<TRIPOS>BOND
     1    25    26    1
     2    26    27   ar
     3    27    28   ar
     4    28    29    1
     5    28    30   ar
     6    30    31   ar
     7    31    24    1
     8    20    24    1
     9    20    21    1
    10    21    22   ar
    11    21    23   ar
    12    20     1    1
    13     1    14    1
    14    14    15   ar
    15    15    16   ar
    16    16    17   ar
    17    17    18   ar
    18    18    19   ar
    19     1     2    1
    20     2     3    1
    21     3     4    1
    22     4     5    2
    23     4     6   am
    24     6    33    1
    25    33    34    1
    26    34    35   ar
    27    35    36    1
    28    35    37   ar
    29    37    38   ar
    30    38    39    1
    31    38    40   ar
    32    40    41   ar
    33    41    42    1
    34     6     7    1
    35     7     8   ar
    36     8     9   ar
    37     9    10   ar
    38    10    11   ar
    39    11    12   ar
    40    31    32   ar
    41    32    26   ar
    42    12     1    1
    43    19    14   ar
    44    41    34   ar
    45    12     7   ar
    46     2    13    1
@<TRIPOS>MOLECULE
*****
 42 46 0 0 0
SMALL
GASTEIGER

@<TRIPOS>ATOM
      1 C           4.1864    0.7184   18.8309 C.3     1  UNL1        0.1243
      2 N           3.2190   -0.3493   19.2481 N.3     1  UNL1       -0.2823
      3 C           1.8318   -0.1918   19.7968 C.3     1  UNL1        0.1560
      4 C           1.0695    1.0722   20.0636 C.2     1  UNL1        0.2457
      5 O          -0.2798    0.7138   20.6123 O.2     1  UNL1       -0.2730
      6 N           1.5062    2.4909   19.8478 N.am    1  UNL1       -0.2533
      7 C           2.8129    2.9961   19.3118 C.ar    1  UNL1        0.0518
      8 C           2.8401    4.4948   19.2569 C.ar    1  UNL1        0.0146
      9 C           4.0601    5.2047   18.7494 C.ar    1  UNL1        0.0013
     10 C           5.2530    4.4158   18.2969 C.ar    1  UNL1       -0.0002
     11 C           5.2258    2.9171   18.3518 C.ar    1  UNL1       -0.0014
     12 C           4.0057    2.2073   18.8592 C.ar    1  UNL1        0.0118
     13 H           3.7173   -0.8808   19.9620 H       1  UNL1        0.1243
     14 C           5.4932    1.2236   18.2949 C.ar    1  UNL1       -0.0019
     15 C           5.7114    1.3145   16.8136 C.ar    1  UNL1       -0.0026
     16 C           7.0181    1.8196   16.2776 C.ar    1  UNL1       -0.0003
     17 C           8.1066    2.2337   17.2228 C.ar    1  UNL1       -0.0000
     18 C           7.8885    2.1428   18.7042 C.ar    1  UNL1       -0.0003
     19 C           6.5818    1.6377   19.2401 C.ar    1  UNL1       -0.0026
     20 C           4.9488   -0.5456   18.5640 C.3     1  UNL1        0.2224
     21 C           4.3790   -1.5852   17.6450 C.2     1  UNL1        0.0919
     22 O           4.3608   -3.0260   18.0620 O.co2   1  UNL1       -0.5455
     23 O           3.8273   -1.1840   16.3091 O.co2   1  UNL1       -0.5455
     24 O           6.2808   -0.7699   19.2161 O.3     1  UNL1       -0.4716
     25 C           8.5819   -5.0486   21.0595 C.3     1  UNL1        0.0311
     26 C           7.5754   -3.9468   21.2114 C.ar    1  UNL1       -0.0192
     27 C           6.7130   -3.8826   22.4371 C.ar    1  UNL1       -0.0083
     28 C           5.7066   -2.7808   22.5891 C.ar    1  UNL1       -0.0192
     29 C           4.8442   -2.7166   23.8148 C.3     1  UNL1        0.0311
     30 C           5.5625   -1.7433   21.5155 C.ar    1  UNL1        0.0326
     31 C           6.4249   -1.8075   20.2898 C.ar    1  UNL1        0.1384
     32 C           7.4314   -2.9093   20.1378 C.ar    1  UNL1        0.0326
     33 C           0.5034    3.5438   20.2168 C.3     1  UNL1        0.1292
     34 C          -0.7631    3.6835   19.4253 C.ar    1  UNL1        0.0531
     35 C          -0.7004    3.9608   17.9525 C.ar    1  UNL1        0.1422
     36 F           0.5342    4.1267   17.1169 F       1  UNL1       -0.2043
     37 C          -1.9668    4.1005   17.1610 C.ar    1  UNL1        0.0591
     38 C          -3.2961    3.9629   17.8423 C.ar    1  UNL1        0.1446
     39 F          -4.5626    4.1026   17.0508 F       1  UNL1       -0.2040
     40 C          -3.3588    3.6856   19.3151 C.ar    1  UNL1        0.0591
     41 C          -2.0923    3.5459   20.1066 C.ar    1  UNL1        0.1422
     42 F          -2.1550    3.2686   21.5794 F       1  UNL1       -0.2043
@<TRIPOS>UNITY_ATOM_ATTR
22 1
charge -1
@<TRIPOS>BOND
     1    25    26    1
     2    26    27   ar
     3    27    28   ar
     4    28    29    1
     5    28    30   ar
     6    30    31   ar
     7    31    24    1
     8    20    24    1
     9    20    21    1
    10    21    22   ar
    11    21    23   ar
    12    20     1    1
    13     1    14    1
    14    14    15   ar
    15    15    16   ar
    16    16    17   ar
    17    17    18   ar
    18    18    19   ar
    19     1     2    1
    20     2     3    1
    21     3     4    1
    22     4     5    2
    23     4     6   am
    24     6    33    1
    25    33    34    1
    26    34    35   ar
    27    35    36    1
    28    35    37   ar
    29    37    38   ar
    30    38    39    1
    31    38    40   ar
    32    40    41   ar
    33    41    42    1
    34     6     7    1
    35     7     8   ar
    36     8     9   ar
    37     9    10   ar
    38    10    11   ar
    39    11    12   ar
    40    31    32   ar
    41    32    26   ar
    42    12     1    1
    43    19    14   ar
    44    41    34   ar
    45    12     7   ar
    46     2    13    1
@<TRIPOS>MOLECULE
*****
 42 46 0 0 0
SMALL
GASTEIGER

@<TRIPOS>ATOM
      1 C           5.1927   -1.7092   26.0750 C.3     1  UNL1        0.1243
      2 N           4.0678   -0.8348   25.6061 N.3     1  UNL1       -0.2823
      3 C           3.4102   -0.7994   24.2584 C.3     1  UNL1        0.1560
      4 C           3.7151   -1.6295   23.0468 C.2     1  UNL1        0.2457
      5 O           2.7859   -1.2258   21.9405 O.2     1  UNL1       -0.2730
      6 N           4.7530   -2.7001   22.8837 N.am    1  UNL1       -0.2533
      7 C           5.7423   -3.2050   23.8918 C.ar    1  UNL1        0.0518
      8 C           6.6050   -4.2893   23.3175 C.ar    1  UNL1        0.0146
      9 C           7.6635   -4.9327   24.1635 C.ar    1  UNL1        0.0013
     10 C           7.8592   -4.4917   25.5838 C.ar    1  UNL1       -0.0002
     11 C           6.9965   -3.4074   26.1581 C.ar    1  UNL1       -0.0014
     12 C           5.9380   -2.7641   25.3121 C.ar    1  UNL1        0.0118
     13 H           4.4063    0.1165   25.7504 H       1  UNL1        0.1243
     14 C           6.1821   -2.2142   27.0832 C.ar    1  UNL1       -0.0019
     15 C           7.5492   -1.6022   27.1641 C.ar    1  UNL1       -0.0026
     16 C           8.5384   -2.1071   28.1722 C.ar    1  UNL1       -0.0003
     17 C           8.1606   -3.2239   29.0995 C.ar    1  UNL1       -0.0000
     18 C           6.7934   -3.8359   29.0187 C.ar    1  UNL1       -0.0003
     19 C           5.8042   -3.3310   28.0105 C.ar    1  UNL1       -0.0026
     20 C           4.8878   -0.8791   27.2866 C.3     1  UNL1        0.2224
     21 C           5.5159    0.4736   27.4464 C.2     1  UNL1        0.0919
     22 O           6.0351    0.9061   28.7856 O.co2   1  UNL1       -0.5455
     23 O           5.6248    1.3940   26.2670 O.co2   1  UNL1       -0.5455
     24 O           3.9549   -1.4018   28.3384 O.3     1  UNL1       -0.4716
     25 C           2.2598    1.5144   32.2910 C.3     1  UNL1        0.0311
     26 C           2.0681    0.9588   30.9109 C.ar    1  UNL1       -0.0192
     27 C           0.8372    1.3059   30.1270 C.ar    1  UNL1       -0.0083
     28 C           0.6456    0.7504   28.7469 C.ar    1  UNL1       -0.0192
     29 C          -0.5853    1.0974   27.9630 C.3     1  UNL1        0.0311
     30 C           1.6847   -0.1521   28.1508 C.ar    1  UNL1        0.0326
     31 C           2.9156   -0.4992   28.9347 C.ar    1  UNL1        0.1384
     32 C           3.1073    0.0563   30.3148 C.ar    1  UNL1        0.0326
     33 C           4.8090   -3.3520   21.5339 C.3     1  UNL1        0.1292
     34 C           5.2280   -2.5561   20.3334 C.ar    1  UNL1        0.0531
     35 C           6.4708   -1.7180   20.3857 C.ar    1  UNL1        0.1422
     36 F           7.4056   -1.5610   21.5483 F       1  UNL1       -0.2043
     37 C           6.8898   -0.9221   19.1853 C.ar    1  UNL1        0.0591
     38 C           6.0658   -0.9644   17.9326 C.ar    1  UNL1        0.1446
     39 F           6.4848   -0.1685   16.7321 F       1  UNL1       -0.2040
     40 C           4.8230   -1.8025   17.8803 C.ar    1  UNL1        0.0591
     41 C           4.4040   -2.5984   19.0807 C.ar    1  UNL1        0.1422
     42 F           3.1611   -3.4365   19.0285 F       1  UNL1       -0.2043
@<TRIPOS>UNITY_ATOM_ATTR
22 1
charge -1
@<TRIPOS>BOND
     1    25    26    1
     2    26    27   ar
     3    27    28   ar
     4    28    29    1
     5    28    30   ar
     6    30    31   ar
     7    31    24    1
     8    20    24    1
     9    20    21    1
    10    21    22   ar
    11    21    23   ar
    12    20     1    1
    13     1    14    1
    14    14    15   ar
    15    15    16   ar
    16    16    17   ar
    17    17    18   ar
    18    18    19   ar
    19     1     2    1
    20     2     3    1
    21     3     4    1
    22     4     5    2
    23     4     6   am
    24     6    33    1
    25    33    34    1
    26    34    35   ar
    27    35    36    1
    28    35    37   ar
    29    37    38   ar
    30    38    39    1
    31    38    40   ar
    32    40    41   ar
    33    41    42    1
    34     6     7    1
    35     7     8   ar
    36     8     9   ar
    37     9    10   ar
    38    10    11   ar
    39    11    12   ar
    40    31    32   ar
    41    32    26   ar
    42    12     1    1
    43    19    14   ar
    44    41    34   ar
    45    12     7   ar
    46     2    13    1
