@<TRIPOS>MOLECULE
*****
 24 26 0 0 0
SMALL
GASTEIGER

@<TRIPOS>ATOM
      1 C         -10.2446  -17.5564   23.3678 C.ar    1  UNL1        0.1721
      2 C          -9.2147  -16.6235   23.9327 C.ar    1  UNL1        0.0356
      3 C          -7.7654  -16.8140   23.5966 C.ar    1  UNL1       -0.0203
      4 C          -7.3458  -17.9375   22.6957 C.ar    1  UNL1       -0.0084
      5 C          -8.3756  -18.8704   22.1308 C.ar    1  UNL1        0.0368
      6 C          -9.8250  -18.6798   22.4669 C.ar    1  UNL1        0.1721
      7 C          -5.8964  -18.1281   22.3596 C.3     1  UNL1        0.0823
      8 C          -5.4768  -19.2516   21.4587 C.3     1  UNL1        0.0497
      9 C          -4.0274  -19.4421   21.1226 C.3     1  UNL1        0.1135
     10 O          -3.6079  -20.5657   20.2216 O.3     1  UNL1       -0.3844
     11 C          -2.9976  -18.5092   21.6874 C.3     1  UNL1        0.0429
     12 C          -3.4172  -17.3858   22.5884 C.3     1  UNL1        0.0747
     13 N          -4.8666  -17.1952   22.9245 N.3     1  UNL1       -0.2699
     14 C          -5.2861  -16.0717   23.8255 C.3     1  UNL1        0.0770
     15 C          -6.7355  -15.8811   24.1615 C.3     1  UNL1        0.0435
     16 H          -4.3902  -21.0691   19.9468 H       1  UNL1        0.2103
     17 C         -12.6058  -16.6801   22.7301 C.3     1  UNL1        0.2526
     18 O         -11.6940  -17.3658   23.7039 O.3     1  UNL1       -0.4684
     19 O         -10.8549  -19.6128   21.9020 O.3     1  UNL1       -0.4684
     20 C         -11.0717  -19.6816   20.4194 C.3     1  UNL1        0.2526
     21 C          -1.5482  -18.6998   21.3514 C.3     1  UNL1        0.0038
     22 C          -0.9669  -18.0395   20.1365 C.3     1  UNL1        0.0001
     23 C          -1.8423  -17.7351   18.9570 C.3     1  UNL1        0.0000
     24 C           0.4899  -17.6835   20.1010 C.3     1  UNL1        0.0000
@<TRIPOS>BOND
     1    17    18    1
     2    18     1    1
     3     1     2   ar
     4     2     3   ar
     5     3     4   ar
     6     4     5   ar
     7     5     6   ar
     8     6    19    1
     9    19    20    1
    10     4     7    1
    11     7     8    1
    12     8     9    1
    13     9    10    1
    14     9    11    1
    15    11    21    1
    16    21    22    1
    17    22    23    1
    18    22    24    1
    19    11    12    1
    20    12    13    1
    21    13    14    1
    22    14    15    1
    23     6     1   ar
    24    13     7    1
    25    15     3    1
    26    10    16    1
@<TRIPOS>MOLECULE
*****
 24 26 0 0 0
SMALL
GASTEIGER

@<TRIPOS>ATOM
      1 C          -2.9006  -19.2690   21.0208 C.ar    1  UNL1        0.1721
      2 C          -3.9285  -20.1352   20.3551 C.ar    1  UNL1        0.0356
      3 C          -5.3884  -19.8777   20.5843 C.ar    1  UNL1       -0.0203
      4 C          -5.8203  -18.7541   21.4792 C.ar    1  UNL1       -0.0084
      5 C          -4.7924  -17.8879   22.1448 C.ar    1  UNL1        0.0368
      6 C          -3.3326  -18.1453   21.9156 C.ar    1  UNL1        0.1721
      7 C          -7.2802  -18.4966   21.7084 C.3     1  UNL1        0.0823
      8 C          -7.7122  -17.3730   22.6033 C.3     1  UNL1        0.0497
      9 C          -9.1720  -17.1155   22.8325 C.3     1  UNL1        0.1135
     10 O          -9.6040  -15.9918   23.7274 O.3     1  UNL1       -0.3844
     11 C         -10.1999  -17.9817   22.1668 C.3     1  UNL1        0.0429
     12 C          -9.7679  -19.1053   21.2720 C.3     1  UNL1        0.0747
     13 N          -8.3081  -19.3628   21.0428 N.3     1  UNL1       -0.2699
     14 C          -7.8762  -20.4865   20.1479 C.3     1  UNL1        0.0770
     15 C          -6.4163  -20.7440   19.9186 C.3     1  UNL1        0.0435
     16 H          -8.8214  -15.5353   24.0739 H       1  UNL1        0.2103
     17 C          -0.6512  -18.6202   19.8942 C.3     1  UNL1        0.2526
     18 O          -1.4408  -19.5264   20.7915 O.3     1  UNL1       -0.4684
     19 O          -2.3047  -17.2791   22.5813 O.3     1  UNL1       -0.4684
     20 C          -1.8826  -15.9897   21.9416 C.3     1  UNL1        0.2526
     21 C         -11.6598  -17.7242   22.3960 C.3     1  UNL1        0.0038
     22 C         -12.3273  -18.2427   23.6352 C.3     1  UNL1        0.0001
     23 C         -13.7759  -17.9461   23.8869 C.3     1  UNL1        0.0000
     24 C         -11.5461  -19.0579   24.6228 C.3     1  UNL1        0.0000
@<TRIPOS>BOND
     1    17    18    1
     2    18     1    1
     3     1     2   ar
     4     2     3   ar
     5     3     4   ar
     6     4     5   ar
     7     5     6   ar
     8     6    19    1
     9    19    20    1
    10     4     7    1
    11     7     8    1
    12     8     9    1
    13     9    10    1
    14     9    11    1
    15    11    21    1
    16    21    22    1
    17    22    23    1
    18    22    24    1
    19    11    12    1
    20    12    13    1
    21    13    14    1
    22    14    15    1
    23     6     1   ar
    24    13     7    1
    25    15     3    1
    26    10    16    1
@<TRIPOS>MOLECULE
*****
 24 26 0 0 0
SMALL
GASTEIGER

@<TRIPOS>ATOM
      1 C         -18.8042   -8.3464   18.9358 C.ar    1  UNL1        0.1721
      2 C         -17.6444   -9.0746   18.3239 C.ar    1  UNL1        0.0356
      3 C         -16.2777   -8.4566   18.3403 C.ar    1  UNL1       -0.0203
      4 C         -16.0709   -7.1103   18.9685 C.ar    1  UNL1       -0.0084
      5 C         -17.2307   -6.3821   19.5804 C.ar    1  UNL1        0.0368
      6 C         -18.5974   -7.0001   19.5641 C.ar    1  UNL1        0.1721
      7 C         -14.7042   -6.4922   18.9849 C.3     1  UNL1        0.0823
      8 C         -14.4974   -5.1460   19.6131 C.3     1  UNL1        0.0497
      9 C         -13.1307   -4.5279   19.6295 C.3     1  UNL1        0.1135
     10 O         -12.9240   -3.1816   20.2578 O.3     1  UNL1       -0.3844
     11 C         -11.9709   -5.2561   19.0176 C.3     1  UNL1        0.0429
     12 C         -12.1778   -6.6024   18.3893 C.3     1  UNL1        0.0747
     13 N         -13.5444   -7.2205   18.3730 N.3     1  UNL1       -0.2699
     14 C         -13.7512   -8.5668   17.7447 C.3     1  UNL1        0.0770
     15 C         -15.1179   -9.1849   17.7283 C.3     1  UNL1        0.0435
     16 H         -13.7687   -2.8526   20.6028 H       1  UNL1        0.2103
     17 C         -20.4129  -10.2291   18.1501 C.3     1  UNL1        0.2526
     18 O         -20.1708   -8.9645   18.9195 O.3     1  UNL1       -0.4684
     19 O         -19.7572   -6.2719   20.1760 O.3     1  UNL1       -0.4684
     20 C         -20.3708   -5.1042   19.4619 C.3     1  UNL1        0.2526
     21 C         -10.6043   -4.6381   19.0339 C.3     1  UNL1        0.0038
     22 C         -10.1081   -3.8832   17.8365 C.3     1  UNL1        0.0001
     23 C          -9.0690   -4.4931   16.9430 C.3     1  UNL1        0.0000
     24 C         -10.6512   -2.5183   17.5324 C.3     1  UNL1        0.0000
@<TRIPOS>BOND
     1    17    18    1
     2    18     1    1
     3     1     2   ar
     4     2     3   ar
     5     3     4   ar
     6     4     5   ar
     7     5     6   ar
     8     6    19    1
     9    19    20    1
    10     4     7    1
    11     7     8    1
    12     8     9    1
    13     9    10    1
    14     9    11    1
    15    11    21    1
    16    21    22    1
    17    22    23    1
    18    22    24    1
    19    11    12    1
    20    12    13    1
    21    13    14    1
    22    14    15    1
    23     6     1   ar
    24    13     7    1
    25    15     3    1
    26    10    16    1
@<TRIPOS>MOLECULE
*****
 24 26 0 0 0
SMALL
GASTEIGER

@<TRIPOS>ATOM
      1 C         -11.9629   -2.1602   18.6484 C.ar    1  UNL1        0.1721
      2 C         -13.4085   -1.9392   18.9823 C.ar    1  UNL1        0.0356
      3 C         -14.3268   -3.1130   19.1525 C.ar    1  UNL1       -0.0203
      4 C         -13.7997   -4.5077   18.9887 C.ar    1  UNL1       -0.0084
      5 C         -12.3541   -4.7286   18.6548 C.ar    1  UNL1        0.0368
      6 C         -11.4357   -3.5549   18.4846 C.ar    1  UNL1        0.1721
      7 C         -14.7180   -5.6814   19.1588 C.3     1  UNL1        0.0823
      8 C         -14.1908   -7.0761   18.9950 C.3     1  UNL1        0.0497
      9 C         -15.1092   -8.2498   19.1651 C.3     1  UNL1        0.1135
     10 O         -14.5819   -9.6446   19.0013 O.3     1  UNL1       -0.3844
     11 C         -16.5547   -8.0289   19.4990 C.3     1  UNL1        0.0429
     12 C         -17.0819   -6.6342   19.6628 C.3     1  UNL1        0.0747
     13 N         -16.1636   -5.4605   19.4927 N.3     1  UNL1       -0.2699
     14 C         -16.6908   -4.0657   19.6565 C.3     1  UNL1        0.0770
     15 C         -15.7724   -2.8920   19.4864 C.3     1  UNL1        0.0435
     16 H         -13.6362   -9.6098   18.7886 H       1  UNL1        0.2103
     17 C         -10.6743   -0.5171   17.1026 C.3     1  UNL1        0.2526
     18 O         -11.0446   -0.9864   18.4783 O.3     1  UNL1       -0.4684
     19 O          -9.9901   -3.7759   18.1507 O.3     1  UNL1       -0.4684
     20 C          -9.6104   -4.7288   17.0563 C.3     1  UNL1        0.2526
     21 C         -17.4731   -9.2026   19.6692 C.3     1  UNL1        0.0038
     22 C         -18.7280   -9.2975   18.8530 C.3     1  UNL1        0.0001
     23 C         -18.6694   -9.8085   17.4440 C.3     1  UNL1        0.0000
     24 C         -20.0416   -8.8814   19.4459 C.3     1  UNL1        0.0000
@<TRIPOS>BOND
     1    17    18    1
     2    18     1    1
     3     1     2   ar
     4     2     3   ar
     5     3     4   ar
     6     4     5   ar
     7     5     6   ar
     8     6    19    1
     9    19    20    1
    10     4     7    1
    11     7     8    1
    12     8     9    1
    13     9    10    1
    14     9    11    1
    15    11    21    1
    16    21    22    1
    17    22    23    1
    18    22    24    1
    19    11    12    1
    20    12    13    1
    21    13    14    1
    22    14    15    1
    23     6     1   ar
    24    13     7    1
    25    15     3    1
    26    10    16    1
@<TRIPOS>MOLECULE
*****
 24 26 0 0 0
SMALL
GASTEIGER

@<TRIPOS>ATOM
      1 C         -16.6166    0.9588   19.4440 C.ar    1  UNL1        0.1721
      2 C         -15.2763    1.2699   18.8468 C.ar    1  UNL1        0.0356
      3 C         -14.2294    0.1997   18.7551 C.ar    1  UNL1       -0.0203
      4 C         -14.5227   -1.1817   19.2606 C.ar    1  UNL1       -0.0084
      5 C         -15.8630   -1.4929   19.8578 C.ar    1  UNL1        0.0368
      6 C         -16.9100   -0.4227   19.9495 C.ar    1  UNL1        0.1721
      7 C         -13.4757   -2.2520   19.1689 C.3     1  UNL1        0.0823
      8 C         -13.7691   -3.6334   19.6743 C.3     1  UNL1        0.0497
      9 C         -12.7221   -4.7037   19.5826 C.3     1  UNL1        0.1135
     10 O         -13.0155   -6.0852   20.0882 O.3     1  UNL1       -0.3844
     11 C         -11.3818   -4.3925   18.9854 C.3     1  UNL1        0.0429
     12 C         -11.0885   -3.0111   18.4799 C.3     1  UNL1        0.0747
     13 N         -12.1354   -1.9408   18.5716 N.3     1  UNL1       -0.2699
     14 C         -11.8420   -0.5593   18.0661 C.3     1  UNL1        0.0770
     15 C         -12.8890    0.5109   18.1578 C.3     1  UNL1        0.0435
     16 H         -13.9191   -6.1157   20.4396 H       1  UNL1        0.2103
     17 C         -17.6428    3.0027   20.6765 C.3     1  UNL1        0.2526
     18 O         -17.6636    2.0290   19.5357 O.3     1  UNL1       -0.4684
     19 O         -18.2503   -0.7339   20.5467 O.3     1  UNL1       -0.4684
     20 C         -18.8597   -2.0911   20.3556 C.3     1  UNL1        0.2526
     21 C         -10.3348   -5.4628   18.8937 C.3     1  UNL1        0.0038
     22 C         -10.4824   -6.5728   17.8957 C.3     1  UNL1        0.0001
     23 C          -9.8448   -7.9053   18.1562 C.3     1  UNL1        0.0000
     24 C         -11.2676   -6.3503   16.6371 C.3     1  UNL1        0.0000
@<TRIPOS>BOND
     1    17    18    1
     2    18     1    1
     3     1     2   ar
     4     2     3   ar
     5     3     4   ar
     6     4     5   ar
     7     5     6   ar
     8     6    19    1
     9    19    20    1
    10     4     7    1
    11     7     8    1
    12     8     9    1
    13     9    10    1
    14     9    11    1
    15    11    21    1
    16    21    22    1
    17    22    23    1
    18    22    24    1
    19    11    12    1
    20    12    13    1
    21    13    14    1
    22    14    15    1
    23     6     1   ar
    24    13     7    1
    25    15     3    1
    26    10    16    1
@<TRIPOS>MOLECULE
*****
 24 26 0 0 0
SMALL
GASTEIGER

@<TRIPOS>ATOM
      1 C         -18.2686   -1.2831   20.1229 C.ar    1  UNL1        0.1721
      2 C         -18.1750   -2.7775   20.0339 C.ar    1  UNL1        0.0356
      3 C         -16.8415   -3.4349   19.8349 C.ar    1  UNL1       -0.0203
      4 C         -15.6016   -2.5979   19.7248 C.ar    1  UNL1       -0.0084
      5 C         -15.6953   -1.1035   19.8138 C.ar    1  UNL1        0.0368
      6 C         -17.0288   -0.4461   20.0129 C.ar    1  UNL1        0.1721
      7 C         -14.2681   -3.2552   19.5257 C.3     1  UNL1        0.0823
      8 C         -13.0283   -2.4182   19.4157 C.3     1  UNL1        0.0497
      9 C         -11.6948   -3.0756   19.2166 C.3     1  UNL1        0.1135
     10 O         -10.4549   -2.2385   19.1065 O.3     1  UNL1       -0.3844
     11 C         -11.6012   -4.5700   19.1276 C.3     1  UNL1        0.0429
     12 C         -12.8410   -5.4070   19.2376 C.3     1  UNL1        0.0747
     13 N         -14.1745   -4.7496   19.4367 N.3     1  UNL1       -0.2699
     14 C         -15.4144   -5.5867   19.5468 C.3     1  UNL1        0.0770
     15 C         -16.7479   -4.9293   19.7459 C.3     1  UNL1        0.0435
     16 H         -10.6900   -1.3007   19.1842 H       1  UNL1        0.2103
     17 C         -20.4143   -0.2021   19.1342 C.3     1  UNL1        0.2526
     18 O         -19.6021   -0.6257   20.3220 O.3     1  UNL1       -0.4684
     19 O         -17.1224    1.0484   20.1019 O.3     1  UNL1       -0.4684
     20 C         -17.2495    1.8677   18.8519 C.3     1  UNL1        0.2526
     21 C         -10.2677   -5.2274   18.9285 C.3     1  UNL1        0.0038
     22 C         -10.1698   -6.5032   18.1458 C.3     1  UNL1        0.0001
     23 C          -9.4752   -7.6942   18.7367 C.3     1  UNL1        0.0000
     24 C         -10.7666   -6.5882   16.7722 C.3     1  UNL1        0.0000
@<TRIPOS>BOND
     1    17    18    1
     2    18     1    1
     3     1     2   ar
     4     2     3   ar
     5     3     4   ar
     6     4     5   ar
     7     5     6   ar
     8     6    19    1
     9    19    20    1
    10     4     7    1
    11     7     8    1
    12     8     9    1
    13     9    10    1
    14     9    11    1
    15    11    21    1
    16    21    22    1
    17    22    23    1
    18    22    24    1
    19    11    12    1
    20    12    13    1
    21    13    14    1
    22    14    15    1
    23     6     1   ar
    24    13     7    1
    25    15     3    1
    26    10    16    1
@<TRIPOS>MOLECULE
*****
 24 26 0 0 0
SMALL
GASTEIGER

@<TRIPOS>ATOM
      1 C         -15.5742    0.8155   19.2952 C.ar    1  UNL1        0.1721
      2 C         -15.8141   -0.5749   19.8043 C.ar    1  UNL1        0.0356
      3 C         -14.8137   -1.6578   19.5279 C.ar    1  UNL1       -0.0203
      4 C         -13.5735   -1.3504   18.7422 C.ar    1  UNL1       -0.0084
      5 C         -13.3336    0.0399   18.2331 C.ar    1  UNL1        0.0368
      6 C         -14.3340    1.1229   18.5096 C.ar    1  UNL1        0.1721
      7 C         -12.5731   -2.4334   18.4658 C.3     1  UNL1        0.0823
      8 C         -11.3329   -2.1260   17.6801 C.3     1  UNL1        0.0497
      9 C         -10.3325   -3.2090   17.4036 C.3     1  UNL1        0.1135
     10 O          -9.0922   -2.9015   16.6180 O.3     1  UNL1       -0.3844
     11 C         -10.5724   -4.5993   17.9128 C.3     1  UNL1        0.0429
     12 C         -11.8126   -4.9067   18.6984 C.3     1  UNL1        0.0747
     13 N         -12.8130   -3.8238   18.9749 N.3     1  UNL1       -0.2699
     14 C         -14.0533   -4.1313   19.7606 C.3     1  UNL1        0.0770
     15 C         -15.0536   -3.0483   20.0371 C.3     1  UNL1        0.0435
     16 H          -9.0926   -1.9646   16.3667 H       1  UNL1        0.2103
     17 C         -16.3311    2.8793   20.6801 C.3     1  UNL1        0.2526
     18 O         -16.5746    1.8985   19.5717 O.3     1  UNL1       -0.4684
     19 O         -14.0941    2.5133   18.0004 O.3     1  UNL1       -0.4684
     20 C         -13.1401    2.7423   16.8657 C.3     1  UNL1        0.2526
     21 C          -9.5720   -5.6823   17.6363 C.3     1  UNL1        0.0038
     22 C          -9.8648   -7.0957   18.0442 C.3     1  UNL1        0.0001
     23 C          -9.2213   -7.6709   19.2711 C.3     1  UNL1        0.0000
     24 C         -10.8011   -7.9341   17.2253 C.3     1  UNL1        0.0000
@<TRIPOS>BOND
     1    17    18    1
     2    18     1    1
     3     1     2   ar
     4     2     3   ar
     5     3     4   ar
     6     4     5   ar
     7     5     6   ar
     8     6    19    1
     9    19    20    1
    10     4     7    1
    11     7     8    1
    12     8     9    1
    13     9    10    1
    14     9    11    1
    15    11    21    1
    16    21    22    1
    17    22    23    1
    18    22    24    1
    19    11    12    1
    20    12    13    1
    21    13    14    1
    22    14    15    1
    23     6     1   ar
    24    13     7    1
    25    15     3    1
    26    10    16    1
@<TRIPOS>MOLECULE
*****
 24 26 0 0 0
SMALL
GASTEIGER

@<TRIPOS>ATOM
      1 C          -1.0702    3.6434   19.9272 C.ar    1  UNL1        0.1721
      2 C          -0.5344    2.8354   21.0717 C.ar    1  UNL1        0.0356
      3 C           0.4965    1.7745   20.8230 C.ar    1  UNL1       -0.0203
      4 C           0.9916    1.5216   19.4299 C.ar    1  UNL1       -0.0084
      5 C           0.4558    2.3297   18.2854 C.ar    1  UNL1        0.0368
      6 C          -0.5751    3.3906   18.5341 C.ar    1  UNL1        0.1721
      7 C           2.0224    0.4608   19.1812 C.3     1  UNL1        0.0823
      8 C           2.5175    0.2079   17.7881 C.3     1  UNL1        0.0497
      9 C           3.5484   -0.8530   17.5394 C.3     1  UNL1        0.1135
     10 O           4.0434   -1.1058   16.1462 O.3     1  UNL1       -0.3844
     11 C           4.0842   -1.6610   18.6839 C.3     1  UNL1        0.0429
     12 C           3.5891   -1.4082   20.0771 C.3     1  UNL1        0.0747
     13 N           2.5582   -0.3473   20.3257 N.3     1  UNL1       -0.2699
     14 C           2.0632   -0.0945   21.7190 C.3     1  UNL1        0.0770
     15 C           1.0323    0.9664   21.9676 C.3     1  UNL1        0.0435
     16 H           3.5987   -0.5024   15.5305 H       1  UNL1        0.2103
     17 C          -3.5302    4.3191   20.4186 C.3     1  UNL1        0.2526
     18 O          -2.1010    4.7043   20.1759 O.3     1  UNL1       -0.4684
     19 O          -1.1109    4.1987   17.3895 O.3     1  UNL1       -0.4684
     20 C          -2.4313    3.8426   16.7733 C.3     1  UNL1        0.2526
     21 C           5.1150   -2.7219   18.4353 C.3     1  UNL1        0.0038
     22 C           5.1736   -3.9325   19.3189 C.3     1  UNL1        0.0001
     23 C           6.2302   -4.0372   20.3785 C.3     1  UNL1        0.0000
     24 C           4.1756   -5.0385   19.1431 C.3     1  UNL1        0.0000
@<TRIPOS>BOND
     1    17    18    1
     2    18     1    1
     3     1     2   ar
     4     2     3   ar
     5     3     4   ar
     6     4     5   ar
     7     5     6   ar
     8     6    19    1
     9    19    20    1
    10     4     7    1
    11     7     8    1
    12     8     9    1
    13     9    10    1
    14     9    11    1
    15    11    21    1
    16    21    22    1
    17    22    23    1
    18    22    24    1
    19    11    12    1
    20    12    13    1
    21    13    14    1
    22    14    15    1
    23     6     1   ar
    24    13     7    1
    25    15     3    1
    26    10    16    1
@<TRIPOS>MOLECULE
*****
 24 26 0 0 0
SMALL
GASTEIGER

@<TRIPOS>ATOM
      1 C           4.9501    2.3177   38.9915 C.ar    1  UNL1        0.1721
      2 C           6.2324    2.4613   38.2265 C.ar    1  UNL1        0.0356
      3 C           6.4713    1.6309   37.0005 C.ar    1  UNL1       -0.0203
      4 C           5.4280    0.6568   36.5394 C.ar    1  UNL1       -0.0084
      5 C           4.1458    0.5131   37.3044 C.ar    1  UNL1        0.0368
      6 C           3.9069    1.3436   38.5305 C.ar    1  UNL1        0.1721
      7 C           5.6669   -0.1737   35.3133 C.3     1  UNL1        0.0823
      8 C           4.6237   -1.1478   34.8523 C.3     1  UNL1        0.0497
      9 C           4.8626   -1.9783   33.6262 C.3     1  UNL1        0.1135
     10 O           3.8192   -2.9525   33.1652 O.3     1  UNL1       -0.3844
     11 C           6.1448   -1.8347   32.8612 C.3     1  UNL1        0.0429
     12 C           7.1881   -0.8606   33.3223 C.3     1  UNL1        0.0747
     13 N           6.9492   -0.0301   34.5483 N.3     1  UNL1       -0.2699
     14 C           7.9925    0.9441   35.0094 C.3     1  UNL1        0.0770
     15 C           7.7536    1.7745   36.2355 C.3     1  UNL1        0.0435
     16 H           3.0589   -2.9207   33.7666 H       1  UNL1        0.2103
     17 C           4.0999    4.5122   40.0921 C.3     1  UNL1        0.2526
     18 O           4.7112    3.1482   40.2176 O.3     1  UNL1       -0.4684
     19 O           2.6246    1.1999   39.2955 O.3     1  UNL1       -0.4684
     20 C           1.4684    2.1082   38.9986 C.3     1  UNL1        0.2526
     21 C           6.3837   -2.6652   31.6352 C.3     1  UNL1        0.0038
     22 C           7.3410   -3.8188   31.6856 C.3     1  UNL1        0.0001
     23 C           6.8198   -5.2250   31.7179 C.3     1  UNL1        0.0000
     24 C           8.8196   -3.5664   31.7037 C.3     1  UNL1        0.0000
@<TRIPOS>BOND
     1    17    18    1
     2    18     1    1
     3     1     2   ar
     4     2     3   ar
     5     3     4   ar
     6     4     5   ar
     7     5     6   ar
     8     6    19    1
     9    19    20    1
    10     4     7    1
    11     7     8    1
    12     8     9    1
    13     9    10    1
    14     9    11    1
    15    11    21    1
    16    21    22    1
    17    22    23    1
    18    22    24    1
    19    11    12    1
    20    12    13    1
    21    13    14    1
    22    14    15    1
    23     6     1   ar
    24    13     7    1
    25    15     3    1
    26    10    16    1
