@<TRIPOS>MOLECULE
*****
 28 31 0 0 0
SMALL
GASTEIGER

@<TRIPOS>ATOM
      1 C           4.1776   -0.7804   27.3640 C.ar    1  UNL1        0.1248
      2 N           3.7996   -0.8864   25.9163 N.ar    1  UNL1       -0.2305
      3 C           4.6913   -1.9099   25.2781 C.ar    1  UNL1        0.1014
      4 C           4.7773   -2.4304   23.8740 C.ar    1  UNL1        0.0575
      5 C           5.7924   -3.4775   23.5231 C.ar    1  UNL1        0.1400
      6 C           6.7215   -4.0041   24.5764 C.ar    1  UNL1        0.0385
      7 C           6.6355   -3.4836   25.9806 C.ar    1  UNL1        0.0219
      8 C           5.6204   -2.4365   26.3314 C.ar    1  UNL1        0.0789
      9 N           5.3029   -1.7384   27.6206 N.ar    1  UNL1       -0.3126
     10 C           5.9902   -1.9596   28.9354 C.3     1  UNL1        0.1316
     11 C           3.5419    0.1246   28.3773 C.3     1  UNL1        0.0902
     12 C          -1.5738   -0.5753   28.9605 C.3     1  UNL1        0.0310
     13 C          -0.4236    0.2527   28.4691 C.ar    1  UNL1       -0.0222
     14 C          -0.6811    1.5587   27.7777 C.ar    1  UNL1       -0.0043
     15 C           0.4690    2.3867   27.2863 C.ar    1  UNL1       -0.0006
     16 C           1.8767    1.9087   27.4861 C.ar    1  UNL1       -0.0039
     17 C           2.1342    0.6027   28.1775 C.ar    1  UNL1       -0.0150
     18 C           0.9841   -0.2253   28.6689 C.ar    1  UNL1       -0.0081
     19 O           5.8784   -3.9980   22.1189 O.3     1  UNL1       -0.4791
     20 C           5.3241   -3.1890   20.9839 C.3     1  UNL1        0.1659
     21 C           4.0066   -3.5612   20.3709 C.3     1  UNL1        0.0439
     22 C           3.4523   -2.7522   19.2358 C.3     1  UNL1        0.0092
     23 C           4.2156   -1.5710   18.7139 C.3     1  UNL1        0.0368
     24 C           5.5330   -1.1989   19.3269 C.3     1  UNL1        0.0092
     25 C           6.0873   -2.0079   20.4619 C.3     1  UNL1        0.0439
     26 C           3.6613   -0.7620   17.5788 C.2     1  UNL1        0.0500
     27 O           2.7422    0.3901   17.8577 O.co2   1  UNL1       -0.5492
     28 O           4.0262   -1.1051   16.1649 O.co2   1  UNL1       -0.5492
@<TRIPOS>UNITY_ATOM_ATTR
27 1
charge -1
@<TRIPOS>BOND
     1    12    13    1
     2    13    14   ar
     3    14    15   ar
     4    15    16   ar
     5    16    17   ar
     6    17    11    1
     7    11     1    1
     8     1     2   ar
     9     2     3   ar
    10     3     4   ar
    11     4     5   ar
    12     5    19    1
    13    20    19    1
    14    20    21    1
    15    21    22    1
    16    22    23    1
    17    23    26    1
    18    26    27   ar
    19    26    28   ar
    20    23    24    1
    21    24    25    1
    22     5     6   ar
    23     6     7   ar
    24     7     8   ar
    25     8     9   ar
    26     9    10    1
    27    17    18   ar
    28    18    13   ar
    29     9     1   ar
    30     8     3   ar
    31    25    20    1
@<TRIPOS>MOLECULE
*****
 28 31 0 0 0
SMALL
GASTEIGER

@<TRIPOS>ATOM
      1 C           7.8463   -4.3114   21.0172 C.ar    1  UNL1        0.1248
      2 N           6.4681   -4.4990   20.4556 N.ar    1  UNL1       -0.2305
      3 C           6.0018   -3.1776   19.9203 C.ar    1  UNL1        0.1014
      4 C           4.7256   -2.7591   19.2526 C.ar    1  UNL1        0.0575
      5 C           4.5393   -1.3363   18.8157 C.ar    1  UNL1        0.1400
      6 C           5.6293   -0.3320   19.0465 C.ar    1  UNL1        0.0385
      7 C           6.9056   -0.7505   19.7142 C.ar    1  UNL1        0.0219
      8 C           7.0919   -2.1733   20.1512 C.ar    1  UNL1        0.0789
      9 N           8.2318   -2.8741   20.8291 N.ar    1  UNL1       -0.3126
     10 C           9.5294   -2.2474   21.2456 C.3     1  UNL1        0.1316
     11 C           8.6907   -5.3745   21.6550 C.3     1  UNL1        0.0902
     12 C           6.8045   -4.4031   26.3983 C.3     1  UNL1        0.0310
     13 C           7.4513   -5.3435   25.4250 C.ar    1  UNL1       -0.0222
     14 C           7.8018   -6.7387   25.8501 C.ar    1  UNL1       -0.0043
     15 C           8.4485   -7.6791   24.8768 C.ar    1  UNL1       -0.0006
     16 C           8.7449   -7.2244   23.4785 C.ar    1  UNL1       -0.0039
     17 C           8.3944   -5.8292   23.0534 C.ar    1  UNL1       -0.0150
     18 C           7.7476   -4.8888   24.0266 C.ar    1  UNL1       -0.0081
     19 O           3.2630   -0.9177   18.1479 O.3     1  UNL1       -0.4791
     20 C           2.2786   -0.0577   18.8837 C.3     1  UNL1        0.1659
     21 C           1.4789   -0.6327   20.0150 C.3     1  UNL1        0.0439
     22 C           0.4946    0.2274   20.7508 C.3     1  UNL1        0.0092
     23 C           0.3100    1.6625   20.3553 C.3     1  UNL1        0.0368
     24 C           1.1097    2.2375   19.2240 C.3     1  UNL1        0.0092
     25 C           2.0940    1.3774   18.4882 C.3     1  UNL1        0.0439
     26 C          -0.6743    2.5226   21.0910 C.2     1  UNL1        0.0500
     27 O          -2.1064    2.5709   20.6476 O.co2   1  UNL1       -0.5492
     28 O          -0.2265    3.3344   22.2703 O.co2   1  UNL1       -0.5492
@<TRIPOS>UNITY_ATOM_ATTR
27 1
charge -1
@<TRIPOS>BOND
     1    12    13    1
     2    13    14   ar
     3    14    15   ar
     4    15    16   ar
     5    16    17   ar
     6    17    11    1
     7    11     1    1
     8     1     2   ar
     9     2     3   ar
    10     3     4   ar
    11     4     5   ar
    12     5    19    1
    13    20    19    1
    14    20    21    1
    15    21    22    1
    16    22    23    1
    17    23    26    1
    18    26    27   ar
    19    26    28   ar
    20    23    24    1
    21    24    25    1
    22     5     6   ar
    23     6     7   ar
    24     7     8   ar
    25     8     9   ar
    26     9    10    1
    27    17    18   ar
    28    18    13   ar
    29     9     1   ar
    30     8     3   ar
    31    25    20    1
@<TRIPOS>MOLECULE
*****
 28 31 0 0 0
SMALL
GASTEIGER

@<TRIPOS>ATOM
      1 C          -4.0295    3.4710   20.1909 C.ar    1  UNL1        0.1248
      2 N          -2.9456    2.8010   20.9822 N.ar    1  UNL1       -0.2305
      3 C          -1.6490    3.0023   20.2553 C.ar    1  UNL1        0.1014
      4 C          -0.2476    2.5648   20.5628 C.ar    1  UNL1        0.0575
      5 C           0.8713    2.9218   19.6297 C.ar    1  UNL1        0.1400
      6 C           0.5887    3.7163   18.3892 C.ar    1  UNL1        0.0385
      7 C          -0.8127    4.1538   18.0817 C.ar    1  UNL1        0.0219
      8 C          -1.9316    3.7968   19.0148 C.ar    1  UNL1        0.0789
      9 N          -3.4028    4.0865   18.9750 N.ar    1  UNL1       -0.3126
     10 C          -4.1212    4.8564   17.9067 C.3     1  UNL1        0.1316
     11 C          -5.4847    3.5175   20.5521 C.3     1  UNL1        0.0902
     12 C          -4.7426    3.8225   25.6859 C.3     1  UNL1        0.0310
     13 C          -5.5365    4.1804   24.4646 C.ar    1  UNL1       -0.0222
     14 C          -6.7532    5.0487   24.5889 C.ar    1  UNL1       -0.0043
     15 C          -7.5471    5.4067   23.3676 C.ar    1  UNL1       -0.0006
     16 C          -7.1243    4.8963   22.0220 C.ar    1  UNL1       -0.0039
     17 C          -5.9075    4.0279   21.8976 C.ar    1  UNL1       -0.0150
     18 C          -5.1136    3.6700   23.1189 C.ar    1  UNL1       -0.0081
     19 O           2.2728    2.4843   19.9372 O.3     1  UNL1       -0.4791
     20 C           2.6959    1.0725   19.6587 C.3     1  UNL1        0.1659
     21 C           2.5184    0.0155   20.7082 C.3     1  UNL1        0.0439
     22 C           2.9415   -1.3964   20.4297 C.3     1  UNL1        0.0092
     23 C           3.5420   -1.7513   19.1017 C.3     1  UNL1        0.0368
     24 C           3.7195   -0.6943   18.0523 C.3     1  UNL1        0.0092
     25 C           3.2964    0.7175   18.3308 C.3     1  UNL1        0.0439
     26 C           3.9651   -3.1632   18.8232 C.2     1  UNL1        0.0500
     27 O           5.3140   -3.4383   18.2275 O.co2   1  UNL1       -0.5492
     28 O           3.0392   -4.3000   19.1403 O.co2   1  UNL1       -0.5492
@<TRIPOS>UNITY_ATOM_ATTR
27 1
charge -1
@<TRIPOS>BOND
     1    12    13    1
     2    13    14   ar
     3    14    15   ar
     4    15    16   ar
     5    16    17   ar
     6    17    11    1
     7    11     1    1
     8     1     2   ar
     9     2     3   ar
    10     3     4   ar
    11     4     5   ar
    12     5    19    1
    13    20    19    1
    14    20    21    1
    15    21    22    1
    16    22    23    1
    17    23    26    1
    18    26    27   ar
    19    26    28   ar
    20    23    24    1
    21    24    25    1
    22     5     6   ar
    23     6     7   ar
    24     7     8   ar
    25     8     9   ar
    26     9    10    1
    27    17    18   ar
    28    18    13   ar
    29     9     1   ar
    30     8     3   ar
    31    25    20    1
@<TRIPOS>MOLECULE
*****
 28 31 0 0 0
SMALL
GASTEIGER

@<TRIPOS>ATOM
      1 C           0.0649    3.0838   24.7390 C.ar    1  UNL1        0.1248
      2 N           0.4160    1.7581   24.1314 N.ar    1  UNL1       -0.2305
      3 C           0.3506    1.9000   22.6396 C.ar    1  UNL1        0.1014
      4 C           0.5969    0.9247   21.5269 C.ar    1  UNL1        0.0575
      5 C           0.4518    1.3629   20.0997 C.ar    1  UNL1        0.1400
      6 C           0.0604    2.7764   19.7852 C.ar    1  UNL1        0.0385
      7 C          -0.1860    3.7517   20.8979 C.ar    1  UNL1        0.0219
      8 C          -0.0409    3.3134   22.3251 C.ar    1  UNL1        0.0789
      9 N          -0.2174    4.0451   23.6226 N.ar    1  UNL1       -0.3126
     10 C          -0.6077    5.4852   23.7767 C.3     1  UNL1        0.1316
     11 C           0.0065    3.3939   26.2054 C.3     1  UNL1        0.0902
     12 C          -1.6123   -0.7218   28.9331 C.3     1  UNL1        0.0310
     13 C          -0.5332    0.2567   28.5754 C.ar    1  UNL1       -0.0222
     14 C           0.8156    0.1560   29.2238 C.ar    1  UNL1       -0.0043
     15 C           1.8947    1.1345   28.8662 C.ar    1  UNL1       -0.0006
     16 C           1.6251    2.2138   27.8600 C.ar    1  UNL1       -0.0039
     17 C           0.2762    2.3146   27.2115 C.ar    1  UNL1       -0.0150
     18 C          -0.8029    1.3361   27.5692 C.ar    1  UNL1       -0.0081
     19 O           0.6982    0.3877   18.9869 O.3     1  UNL1       -0.4791
     20 C           2.0161   -0.3220   18.8897 C.3     1  UNL1        0.1659
     21 C           2.9764    0.0266   17.7913 C.3     1  UNL1        0.0439
     22 C           4.2943   -0.6831   17.6941 C.3     1  UNL1        0.0092
     23 C           4.6518   -1.7415   18.6952 C.3     1  UNL1        0.0368
     24 C           3.6915   -2.0901   19.7935 C.3     1  UNL1        0.0092
     25 C           2.3736   -1.3803   19.8907 C.3     1  UNL1        0.0439
     26 C           5.9697   -2.4512   18.5980 C.2     1  UNL1        0.0500
     27 O           6.4136   -3.3634   19.7029 O.co2   1  UNL1       -0.5492
     28 O           6.8438   -2.2486   17.3958 O.co2   1  UNL1       -0.5492
@<TRIPOS>UNITY_ATOM_ATTR
27 1
charge -1
@<TRIPOS>BOND
     1    12    13    1
     2    13    14   ar
     3    14    15   ar
     4    15    16   ar
     5    16    17   ar
     6    17    11    1
     7    11     1    1
     8     1     2   ar
     9     2     3   ar
    10     3     4   ar
    11     4     5   ar
    12     5    19    1
    13    20    19    1
    14    20    21    1
    15    21    22    1
    16    22    23    1
    17    23    26    1
    18    26    27   ar
    19    26    28   ar
    20    23    24    1
    21    24    25    1
    22     5     6   ar
    23     6     7   ar
    24     7     8   ar
    25     8     9   ar
    26     9    10    1
    27    17    18   ar
    28    18    13   ar
    29     9     1   ar
    30     8     3   ar
    31    25    20    1
@<TRIPOS>MOLECULE
*****
 28 31 0 0 0
SMALL
GASTEIGER

@<TRIPOS>ATOM
      1 C           5.0052   -1.5772   18.5003 C.ar    1  UNL1        0.1248
      2 N           4.8407   -2.8875   19.2115 N.ar    1  UNL1       -0.2305
      3 C           6.1734   -3.2778   19.7786 C.ar    1  UNL1        0.1014
      4 C           6.6148   -4.4686   20.5768 C.ar    1  UNL1        0.0575
      5 C           8.0444   -4.5901   21.0142 C.ar    1  UNL1        0.1400
      6 C           9.0326   -3.5210   20.6534 C.ar    1  UNL1        0.0385
      7 C           8.5913   -2.3302   19.8551 C.ar    1  UNL1        0.0219
      8 C           7.1617   -2.2086   19.4177 C.ar    1  UNL1        0.0789
      9 N           6.4397   -1.1576   18.6277 N.ar    1  UNL1       -0.3126
     10 C           7.0458    0.0934   18.0641 C.3     1  UNL1        0.1316
     11 C           3.9250   -0.8195   17.7868 C.3     1  UNL1        0.0902
     12 C           0.3937    2.9088   18.5804 C.3     1  UNL1        0.0310
     13 C           0.9882    1.5826   18.9512 C.ar    1  UNL1       -0.0222
     14 C           0.4117    0.7942   20.0896 C.ar    1  UNL1       -0.0043
     15 C           1.0062   -0.5321   20.4605 C.ar    1  UNL1       -0.0006
     16 C           2.1773   -1.0700   19.6929 C.ar    1  UNL1       -0.0039
     17 C           2.7539   -0.2816   18.5544 C.ar    1  UNL1       -0.0150
     18 C           2.1594    1.0447   18.1836 C.ar    1  UNL1       -0.0081
     19 O           8.4858   -5.7809   21.8125 O.3     1  UNL1       -0.4791
     20 C           8.1486   -5.8728   23.2712 C.3     1  UNL1        0.1659
     21 C           8.3397   -7.1670   24.0051 C.3     1  UNL1        0.0439
     22 C           8.0024   -7.2589   25.4639 C.3     1  UNL1        0.0092
     23 C           7.4741   -6.0565   26.1887 C.3     1  UNL1        0.0368
     24 C           7.2831   -4.7624   25.4547 C.3     1  UNL1        0.0092
     25 C           7.6203   -4.6705   23.9960 C.3     1  UNL1        0.0439
     26 C           7.1369   -6.1483   27.6474 C.2     1  UNL1        0.0500
     27 O           5.9566   -5.4005   28.1928 O.co2   1  UNL1       -0.5492
     28 O           7.9801   -6.9881   28.5606 O.co2   1  UNL1       -0.5492
@<TRIPOS>UNITY_ATOM_ATTR
27 1
charge -1
@<TRIPOS>BOND
     1    12    13    1
     2    13    14   ar
     3    14    15   ar
     4    15    16   ar
     5    16    17   ar
     6    17    11    1
     7    11     1    1
     8     1     2   ar
     9     2     3   ar
    10     3     4   ar
    11     4     5   ar
    12     5    19    1
    13    20    19    1
    14    20    21    1
    15    21    22    1
    16    22    23    1
    17    23    26    1
    18    26    27   ar
    19    26    28   ar
    20    23    24    1
    21    24    25    1
    22     5     6   ar
    23     6     7   ar
    24     7     8   ar
    25     8     9   ar
    26     9    10    1
    27    17    18   ar
    28    18    13   ar
    29     9     1   ar
    30     8     3   ar
    31    25    20    1
@<TRIPOS>MOLECULE
*****
 28 31 0 0 0
SMALL
GASTEIGER

@<TRIPOS>ATOM
      1 C          -0.4504    2.5569   20.4564 C.ar    1  UNL1        0.1248
      2 N          -0.4485    1.0725   20.6728 N.ar    1  UNL1       -0.2305
      3 C           0.8238    0.5222   20.0998 C.ar    1  UNL1        0.1014
      4 C           1.3693   -0.8730   20.0239 C.ar    1  UNL1        0.0575
      5 C           2.6994   -1.1240   19.3775 C.ar    1  UNL1        0.1400
      6 C           3.4839    0.0201   18.8070 C.ar    1  UNL1        0.0385
      7 C           2.9384    1.4153   18.8830 C.ar    1  UNL1        0.0219
      8 C           1.6083    1.6663   19.5294 C.ar    1  UNL1        0.0789
      9 N           0.8208    2.9238   19.7498 N.ar    1  UNL1       -0.3126
     10 C           1.2323    4.3057   19.3361 C.3     1  UNL1        0.1316
     11 C          -1.5333    3.5073   20.8735 C.3     1  UNL1        0.0902
     12 C          -4.1182    4.3541   16.4461 C.3     1  UNL1        0.0310
     13 C          -4.1171    3.9774   17.8980 C.ar    1  UNL1       -0.0222
     14 C          -5.4073    3.6473   18.5882 C.ar    1  UNL1       -0.0043
     15 C          -5.4062    3.2706   20.0401 C.ar    1  UNL1       -0.0006
     16 C          -4.1149    3.2239   20.8019 C.ar    1  UNL1       -0.0039
     17 C          -2.8246    3.5540   20.1117 C.ar    1  UNL1       -0.0150
     18 C          -2.8257    3.9307   18.6598 C.ar    1  UNL1       -0.0081
     19 O           3.2450   -2.5193   19.3015 O.3     1  UNL1       -0.4791
     20 C           4.2902   -2.9701   20.2783 C.3     1  UNL1        0.1659
     21 C           5.6108   -3.4797   19.7818 C.3     1  UNL1        0.0439
     22 C           6.6560   -3.9305   20.7587 C.3     1  UNL1        0.0092
     23 C           6.3807   -3.8716   22.2321 C.3     1  UNL1        0.0368
     24 C           5.0601   -3.3620   22.7285 C.3     1  UNL1        0.0092
     25 C           4.0149   -2.9112   21.7517 C.3     1  UNL1        0.0439
     26 C           7.4259   -4.3224   23.2090 C.2     1  UNL1        0.0500
     27 O           8.2444   -3.3089   23.9525 O.co2   1  UNL1       -0.5492
     28 O           7.6526   -5.7868   23.4423 O.co2   1  UNL1       -0.5492
@<TRIPOS>UNITY_ATOM_ATTR
27 1
charge -1
@<TRIPOS>BOND
     1    12    13    1
     2    13    14   ar
     3    14    15   ar
     4    15    16   ar
     5    16    17   ar
     6    17    11    1
     7    11     1    1
     8     1     2   ar
     9     2     3   ar
    10     3     4   ar
    11     4     5   ar
    12     5    19    1
    13    20    19    1
    14    20    21    1
    15    21    22    1
    16    22    23    1
    17    23    26    1
    18    26    27   ar
    19    26    28   ar
    20    23    24    1
    21    24    25    1
    22     5     6   ar
    23     6     7   ar
    24     7     8   ar
    25     8     9   ar
    26     9    10    1
    27    17    18   ar
    28    18    13   ar
    29     9     1   ar
    30     8     3   ar
    31    25    20    1
@<TRIPOS>MOLECULE
*****
 28 31 0 0 0
SMALL
GASTEIGER

@<TRIPOS>ATOM
      1 C          -1.9309    3.6882   21.6706 C.ar    1  UNL1        0.1248
      2 N          -1.7302    2.5178   20.7542 N.ar    1  UNL1       -0.2305
      3 C          -0.3149    2.5542   20.2589 C.ar    1  UNL1        0.1014
      4 C           0.4472    1.6552   19.3310 C.ar    1  UNL1        0.0575
      5 C           1.8834    1.9491   19.0134 C.ar    1  UNL1        0.1400
      6 C           2.5575    3.1421   19.6237 C.ar    1  UNL1        0.0385
      7 C           1.7954    4.0411   20.5515 C.ar    1  UNL1        0.0219
      8 C           0.3593    3.7471   20.8691 C.ar    1  UNL1        0.0789
      9 N          -0.6395    4.4480   21.7416 N.ar    1  UNL1       -0.3126
     10 C          -0.3906    5.6905   22.5442 C.3     1  UNL1        0.1316
     11 C          -3.2001    4.0376   22.3897 C.3     1  UNL1        0.0902
     12 C          -1.0606    2.5717   26.8924 C.3     1  UNL1        0.0310
     13 C          -2.2122    3.1593   26.1317 C.ar    1  UNL1       -0.0222
     14 C          -3.4456    3.6016   26.8618 C.ar    1  UNL1       -0.0043
     15 C          -4.5972    4.1893   26.1012 C.ar    1  UNL1       -0.0006
     16 C          -4.5154    4.3346   24.6105 C.ar    1  UNL1       -0.0039
     17 C          -3.2819    3.8923   23.8804 C.ar    1  UNL1       -0.0150
     18 C          -2.1303    3.3046   24.6410 C.ar    1  UNL1       -0.0081
     19 O           2.6455    1.0501   18.0855 O.3     1  UNL1       -0.4791
     20 C           3.1525   -0.2747   18.5731 C.3     1  UNL1        0.1659
     21 C           4.0288   -1.1134   17.6905 C.3     1  UNL1        0.0439
     22 C           4.5358   -2.4382   18.1782 C.3     1  UNL1        0.0092
     23 C           4.1664   -2.9245   19.5483 C.3     1  UNL1        0.0368
     24 C           3.2901   -2.0858   20.4308 C.3     1  UNL1        0.0092
     25 C           2.7832   -0.7610   19.9432 C.3     1  UNL1        0.0439
     26 C           4.6733   -4.2493   20.0359 C.2     1  UNL1        0.0500
     27 O           6.0776   -4.3725   20.5484 O.co2   1  UNL1       -0.5492
     28 O           3.7759   -5.4510   20.0109 O.co2   1  UNL1       -0.5492
@<TRIPOS>UNITY_ATOM_ATTR
27 1
charge -1
@<TRIPOS>BOND
     1    12    13    1
     2    13    14   ar
     3    14    15   ar
     4    15    16   ar
     5    16    17   ar
     6    17    11    1
     7    11     1    1
     8     1     2   ar
     9     2     3   ar
    10     3     4   ar
    11     4     5   ar
    12     5    19    1
    13    20    19    1
    14    20    21    1
    15    21    22    1
    16    22    23    1
    17    23    26    1
    18    26    27   ar
    19    26    28   ar
    20    23    24    1
    21    24    25    1
    22     5     6   ar
    23     6     7   ar
    24     7     8   ar
    25     8     9   ar
    26     9    10    1
    27    17    18   ar
    28    18    13   ar
    29     9     1   ar
    30     8     3   ar
    31    25    20    1
@<TRIPOS>MOLECULE
*****
 28 31 0 0 0
SMALL
GASTEIGER

@<TRIPOS>ATOM
      1 C           4.1886   -2.3026   19.9215 C.ar    1  UNL1        0.1248
      2 N           4.6196   -3.3800   20.8719 N.ar    1  UNL1       -0.2305
      3 C           6.1144   -3.4861   20.8054 C.ar    1  UNL1        0.1014
      4 C           7.0904   -4.3734   21.5196 C.ar    1  UNL1        0.0575
      5 C           8.5592   -4.2487   21.2422 C.ar    1  UNL1        0.1400
      6 C           9.0520   -3.2368   20.2506 C.ar    1  UNL1        0.0385
      7 C           8.0760   -2.3496   19.5364 C.ar    1  UNL1        0.0219
      8 C           6.6072   -2.4742   19.8138 C.ar    1  UNL1        0.0789
      9 N           5.4169   -1.7428   19.2676 N.ar    1  UNL1       -0.3126
     10 C           5.4494   -0.6443   18.2466 C.3     1  UNL1        0.1316
     11 C           2.7770   -1.8623   19.6693 C.3     1  UNL1        0.0902
     12 C           2.5847    0.6169   24.2319 C.3     1  UNL1        0.0310
     13 C           2.0371    0.3865   22.8545 C.ar    1  UNL1       -0.0222
     14 C           0.8459    1.1654   22.3810 C.ar    1  UNL1       -0.0043
     15 C           0.2983    0.9351   21.0037 C.ar    1  UNL1       -0.0006
     16 C           0.9420   -0.0741   20.0998 C.ar    1  UNL1       -0.0039
     17 C           2.1333   -0.8531   20.5732 C.ar    1  UNL1       -0.0150
     18 C           2.6809   -0.6228   21.9506 C.ar    1  UNL1       -0.0081
     19 O           9.5354   -5.1360   21.9564 O.3     1  UNL1       -0.4791
     20 C           9.1860   -5.7082   23.2982 C.3     1  UNL1        0.1659
     21 C           9.3177   -4.8638   24.5310 C.3     1  UNL1        0.0439
     22 C           8.9683   -5.4361   25.8728 C.3     1  UNL1        0.0092
     23 C           8.4872   -6.8527   25.9818 C.3     1  UNL1        0.0368
     24 C           8.3555   -7.6970   24.7491 C.3     1  UNL1        0.0092
     25 C           8.7049   -7.1248   23.4073 C.3     1  UNL1        0.0439
     26 C           8.1378   -7.4249   27.3237 C.2     1  UNL1        0.0500
     27 O           7.6409   -6.5254   28.4163 O.co2   1  UNL1       -0.5492
     28 O           8.2852   -8.8968   27.5728 O.co2   1  UNL1       -0.5492
@<TRIPOS>UNITY_ATOM_ATTR
27 1
charge -1
@<TRIPOS>BOND
     1    12    13    1
     2    13    14   ar
     3    14    15   ar
     4    15    16   ar
     5    16    17   ar
     6    17    11    1
     7    11     1    1
     8     1     2   ar
     9     2     3   ar
    10     3     4   ar
    11     4     5   ar
    12     5    19    1
    13    20    19    1
    14    20    21    1
    15    21    22    1
    16    22    23    1
    17    23    26    1
    18    26    27   ar
    19    26    28   ar
    20    23    24    1
    21    24    25    1
    22     5     6   ar
    23     6     7   ar
    24     7     8   ar
    25     8     9   ar
    26     9    10    1
    27    17    18   ar
    28    18    13   ar
    29     9     1   ar
    30     8     3   ar
    31    25    20    1
@<TRIPOS>MOLECULE
*****
 28 31 0 0 0
SMALL
GASTEIGER

@<TRIPOS>ATOM
      1 C           6.2896   -3.4288   23.9559 C.ar    1  UNL1        0.1248
      2 N           4.9834   -3.5301   23.2256 N.ar    1  UNL1       -0.2305
      3 C           5.0242   -2.5766   22.0684 C.ar    1  UNL1        0.1014
      4 C           4.0209   -2.2479   21.0028 C.ar    1  UNL1        0.0575
      5 C           4.3491   -1.2287   19.9525 C.ar    1  UNL1        0.1400
      6 C           5.6806   -0.5380   19.9677 C.ar    1  UNL1        0.0385
      7 C           6.6838   -0.8667   21.0332 C.ar    1  UNL1        0.0219
      8 C           6.3556   -1.8859   22.0836 C.ar    1  UNL1        0.0789
      9 N           7.1377   -2.4127   23.2501 N.ar    1  UNL1       -0.3126
     10 C           8.5244   -1.9963   23.6421 C.3     1  UNL1        0.1316
     11 C           6.6794   -4.2071   25.1776 C.3     1  UNL1        0.0902
     12 C           8.3398   -8.7157   27.1565 C.3     1  UNL1        0.0310
     13 C           8.3019   -7.7275   26.0286 C.ar    1  UNL1       -0.0222
     14 C           9.0563   -8.0055   24.7623 C.ar    1  UNL1       -0.0043
     15 C           9.0184   -7.0173   23.6344 C.ar    1  UNL1       -0.0006
     16 C           8.2261   -5.7512   23.7728 C.ar    1  UNL1       -0.0039
     17 C           7.4717   -5.4732   25.0392 C.ar    1  UNL1       -0.0150
     18 C           7.5096   -6.4613   26.1671 C.ar    1  UNL1       -0.0081
     19 O           3.3458   -0.9000   18.8868 O.3     1  UNL1       -0.4791
     20 C           2.2616    0.0998   19.1603 C.3     1  UNL1        0.1659
     21 C           2.2739    1.4286   18.4644 C.3     1  UNL1        0.0439
     22 C           1.1896    2.4285   18.7378 C.3     1  UNL1        0.0092
     23 C           0.0931    2.0995   19.7072 C.3     1  UNL1        0.0368
     24 C           0.0809    0.7707   20.4030 C.3     1  UNL1        0.0092
     25 C           1.1652   -0.2291   20.1296 C.3     1  UNL1        0.0439
     26 C          -0.9911    3.0993   19.9807 C.2     1  UNL1        0.0500
     27 O          -0.8258    4.5239   19.5412 O.co2   1  UNL1       -0.5492
     28 O          -2.2406    2.6745   20.6936 O.co2   1  UNL1       -0.5492
@<TRIPOS>UNITY_ATOM_ATTR
27 1
charge -1
@<TRIPOS>BOND
     1    12    13    1
     2    13    14   ar
     3    14    15   ar
     4    15    16   ar
     5    16    17   ar
     6    17    11    1
     7    11     1    1
     8     1     2   ar
     9     2     3   ar
    10     3     4   ar
    11     4     5   ar
    12     5    19    1
    13    20    19    1
    14    20    21    1
    15    21    22    1
    16    22    23    1
    17    23    26    1
    18    26    27   ar
    19    26    28   ar
    20    23    24    1
    21    24    25    1
    22     5     6   ar
    23     6     7   ar
    24     7     8   ar
    25     8     9   ar
    26     9    10    1
    27    17    18   ar
    28    18    13   ar
    29     9     1   ar
    30     8     3   ar
    31    25    20    1
