@<TRIPOS>MOLECULE
*****
 28 31 0 0 0
SMALL
GASTEIGER

@<TRIPOS>ATOM
      1 C           9.3051   -2.7172   22.6864 C.3     1  UNL1        0.0264
      2 C           7.8954   -2.8802   22.2005 C.3     1  UNL1        0.0983
      3 C           7.4289   -2.7316   20.7826 C.ar    1  UNL1        0.0003
      4 C           8.1597   -2.4022   19.5148 C.ar    1  UNL1       -0.0025
      5 C           7.4115   -2.3212   18.2173 C.ar    1  UNL1       -0.0001
      6 C           5.9325   -2.5696   18.1876 C.ar    1  UNL1        0.0046
      7 C           5.2017   -2.8990   19.4554 C.ar    1  UNL1        0.0572
      8 C           5.9499   -2.9800   20.7529 C.ar    1  UNL1        0.0555
      9 C           5.5024   -3.2821   22.1524 C.2     1  UNL1        0.2490
     10 O           4.0989   -3.5915   22.5817 O.2     1  UNL1       -0.2699
     11 N           6.7048   -3.2204   23.0470 N.am    1  UNL1       -0.2755
     12 C           6.7148   -3.4574   24.5281 C.3     1  UNL1        0.0786
     13 C           6.9929   -4.8296   25.0663 C.3     1  UNL1        0.0372
     14 C           7.0029   -5.0666   26.5474 C.3     1  UNL1        0.0738
     15 N           6.7348   -3.9313   27.4904 N.3     1  UNL1       -0.2738
     16 C           6.4567   -2.5591   26.9523 C.3     1  UNL1        0.0738
     17 C           6.4467   -2.3221   25.4711 C.3     1  UNL1        0.0372
     18 C           6.7449   -4.1683   28.9715 C.3     1  UNL1        0.0575
     19 C           7.0107   -5.5430   29.5094 C.3     1  UNL1        0.0160
     20 C           7.0207   -5.7800   30.9905 C.3     1  UNL1        0.0014
     21 C           6.7649   -4.6422   31.9338 C.3     1  UNL1        0.0001
     22 C           6.4990   -3.2674   31.3960 C.3     1  UNL1        0.0014
     23 C           6.4890   -3.0305   29.9149 C.3     1  UNL1        0.0160
     24 C           3.7227   -3.1473   19.4256 C.2     1  UNL1        0.2429
     25 N           3.1929   -4.4639   18.9401 N.am    1  UNL1       -0.3253
     26 O           2.7735   -2.0791   19.8814 O.2     1  UNL1       -0.2704
     27 H           3.8159   -5.1651   18.6409 H       1  UNL1        0.1453
     28 H           2.2222   -4.6269   18.9206 H       1  UNL1        0.1453
@<TRIPOS>BOND
     1     1     2    1
     2     2     3    1
     3     3     4   ar
     4     4     5   ar
     5     5     6   ar
     6     6     7   ar
     7     7    24    1
     8    24    25   am
     9    24    26    2
    10     7     8   ar
    11     8     9    1
    12     9    10    2
    13     9    11   am
    14    11    12    1
    15    12    13    1
    16    13    14    1
    17    14    15    1
    18    15    18    1
    19    18    19    1
    20    19    20    1
    21    20    21    1
    22    21    22    1
    23    22    23    1
    24    15    16    1
    25    16    17    1
    26    11     2    1
    27    17    12    1
    28     8     3   ar
    29    23    18    1
    30    25    27    1
    31    25    28    1
@<TRIPOS>MOLECULE
*****
 28 31 0 0 0
SMALL
GASTEIGER

@<TRIPOS>ATOM
      1 C           9.2443   -2.5749   22.6563 C.3     1  UNL1        0.0264
      2 C           7.8397   -2.7793   22.1711 C.3     1  UNL1        0.0983
      3 C           7.3678   -2.6422   20.7539 C.ar    1  UNL1        0.0003
      4 C           8.0875   -2.2887   19.4861 C.ar    1  UNL1       -0.0025
      5 C           7.3362   -2.2279   18.1893 C.ar    1  UNL1       -0.0001
      6 C           5.8653   -2.5206   18.1602 C.ar    1  UNL1        0.0046
      7 C           5.1457   -2.8741   19.4279 C.ar    1  UNL1        0.0572
      8 C           5.8970   -2.9349   20.7247 C.ar    1  UNL1        0.0555
      9 C           5.4598   -3.2529   22.1239 C.2     1  UNL1        0.2490
     10 O           4.0666   -3.6051   22.5538 O.2     1  UNL1       -0.2699
     11 N           6.6605   -3.1567   23.0179 N.am    1  UNL1       -0.2755
     12 C           6.6788   -3.3959   24.4986 C.3     1  UNL1        0.0786
     13 C           6.1998   -2.3281   25.4368 C.3     1  UNL1        0.0372
     14 C           6.2181   -2.5673   26.9175 C.3     1  UNL1        0.0738
     15 N           6.7153   -3.8744   27.4599 N.3     1  UNL1       -0.2738
     16 C           7.1943   -4.9422   26.5217 C.3     1  UNL1        0.0738
     17 C           7.1760   -4.7030   25.0410 C.3     1  UNL1        0.0372
     18 C           6.7336   -4.1136   28.9406 C.3     1  UNL1        0.0575
     19 C           6.5513   -2.9652   29.8882 C.3     1  UNL1        0.0160
     20 C           6.5695   -3.2045   31.3689 C.3     1  UNL1        0.0014
     21 C           6.7701   -4.5921   31.9020 C.3     1  UNL1        0.0001
     22 C           6.9524   -5.7405   30.9544 C.3     1  UNL1        0.0014
     23 C           6.9341   -5.5012   29.4737 C.3     1  UNL1        0.0160
     24 C           3.6748   -3.1668   19.3987 C.2     1  UNL1        0.2429
     25 N           3.1853   -4.5035   18.9262 N.am    1  UNL1       -0.3253
     26 O           2.6934   -2.1226   19.8421 O.2     1  UNL1       -0.2704
     27 H           3.8294   -5.1889   18.6352 H       1  UNL1        0.1453
     28 H           2.2199   -4.6956   18.9071 H       1  UNL1        0.1453
@<TRIPOS>BOND
     1     1     2    1
     2     2     3    1
     3     3     4   ar
     4     4     5   ar
     5     5     6   ar
     6     6     7   ar
     7     7    24    1
     8    24    25   am
     9    24    26    2
    10     7     8   ar
    11     8     9    1
    12     9    10    2
    13     9    11   am
    14    11    12    1
    15    12    13    1
    16    13    14    1
    17    14    15    1
    18    15    18    1
    19    18    19    1
    20    19    20    1
    21    20    21    1
    22    21    22    1
    23    22    23    1
    24    15    16    1
    25    16    17    1
    26    11     2    1
    27    17    12    1
    28     8     3   ar
    29    23    18    1
    30    25    27    1
    31    25    28    1
@<TRIPOS>MOLECULE
*****
 28 31 0 0 0
SMALL
GASTEIGER

@<TRIPOS>ATOM
      1 C           2.8963    2.2016   32.3492 C.3     1  UNL1        0.0264
      2 C           3.1858    1.8784   33.7851 C.3     1  UNL1        0.0983
      3 C           2.7226    2.6637   34.9762 C.ar    1  UNL1        0.0003
      4 C           1.8965    3.9098   35.0974 C.ar    1  UNL1       -0.0025
      5 C           1.5878    4.4761   36.4516 C.ar    1  UNL1       -0.0001
      6 C           2.1052    3.7964   37.6846 C.ar    1  UNL1        0.0046
      7 C           2.9312    2.5503   37.5634 C.ar    1  UNL1        0.0572
      8 C           3.2399    1.9839   36.2092 C.ar    1  UNL1        0.0555
      9 C           4.0229    0.7786   35.7800 C.2     1  UNL1        0.2490
     10 O           4.7174   -0.1913   36.6895 O.2     1  UNL1       -0.2699
     11 N           3.9895    0.7134   34.2818 N.am    1  UNL1       -0.2755
     12 C           4.6447   -0.3331   33.4300 C.3     1  UNL1        0.0786
     13 C           4.3343   -1.7836   33.6525 C.3     1  UNL1        0.0372
     14 C           4.9895   -2.8301   32.8007 C.3     1  UNL1        0.0738
     15 N           5.9551   -2.4260   31.7263 N.3     1  UNL1       -0.2738
     16 C           6.2654   -0.9755   31.5038 C.3     1  UNL1        0.0738
     17 C           5.6103    0.0710   32.3556 C.3     1  UNL1        0.0372
     18 C           6.6102   -3.4725   30.8745 C.3     1  UNL1        0.0575
     19 C           6.8766   -3.1998   29.4237 C.3     1  UNL1        0.0160
     20 C           7.5318   -4.2463   28.5719 C.3     1  UNL1        0.0014
     21 C           7.9206   -5.5654   29.1708 C.3     1  UNL1        0.0001
     22 C           7.6542   -5.8381   30.6215 C.3     1  UNL1        0.0014
     23 C           6.9990   -4.7916   31.4733 C.3     1  UNL1        0.0160
     24 C           3.4486    1.8705   38.7964 C.2     1  UNL1        0.2429
     25 N           2.9279    0.5175   39.1813 N.am    1  UNL1       -0.3253
     26 O           4.4866    2.5438   39.6444 O.2     1  UNL1       -0.2704
     27 H           2.2466    0.0756   38.6248 H       1  UNL1        0.1453
     28 H           3.2675    0.0714   39.9906 H       1  UNL1        0.1453
@<TRIPOS>BOND
     1     1     2    1
     2     2     3    1
     3     3     4   ar
     4     4     5   ar
     5     5     6   ar
     6     6     7   ar
     7     7    24    1
     8    24    25   am
     9    24    26    2
    10     7     8   ar
    11     8     9    1
    12     9    10    2
    13     9    11   am
    14    11    12    1
    15    12    13    1
    16    13    14    1
    17    14    15    1
    18    15    18    1
    19    18    19    1
    20    19    20    1
    21    20    21    1
    22    21    22    1
    23    22    23    1
    24    15    16    1
    25    16    17    1
    26    11     2    1
    27    17    12    1
    28     8     3   ar
    29    23    18    1
    30    25    27    1
    31    25    28    1
@<TRIPOS>MOLECULE
*****
 28 31 0 0 0
SMALL
GASTEIGER

@<TRIPOS>ATOM
      1 C         -11.3585   -1.6639   19.1730 C.3     1  UNL1        0.0264
      2 C         -12.0369   -2.9603   18.8425 C.3     1  UNL1        0.0983
      3 C         -11.3784   -4.3060   18.7682 C.ar    1  UNL1        0.0003
      4 C          -9.9593   -4.7422   18.9820 C.ar    1  UNL1       -0.0025
      5 C          -9.5891   -6.1884   18.8356 C.ar    1  UNL1       -0.0001
      6 C         -10.6380   -7.1983   18.4754 C.ar    1  UNL1        0.0046
      7 C         -12.0571   -6.7622   18.2616 C.ar    1  UNL1        0.0572
      8 C         -12.4273   -5.3160   18.4080 C.ar    1  UNL1        0.0555
      9 C         -13.7340   -4.5944   18.2597 C.2     1  UNL1        0.2490
     10 O         -15.0508   -5.2192   17.9051 O.2     1  UNL1       -0.2699
     11 N         -13.4927   -3.1385   18.5282 N.am    1  UNL1       -0.2755
     12 C         -14.5258   -2.0517   18.4893 C.3     1  UNL1        0.0786
     13 C         -15.2425   -1.6529   19.7452 C.3     1  UNL1        0.0372
     14 C         -16.2757   -0.5661   19.7063 C.3     1  UNL1        0.0738
     15 N         -16.5920    0.1219   18.4115 N.3     1  UNL1       -0.2738
     16 C         -15.8753   -0.2769   17.1557 C.3     1  UNL1        0.0738
     17 C         -14.8422   -1.3637   17.1946 C.3     1  UNL1        0.0372
     18 C         -17.6252    1.2087   18.3726 C.3     1  UNL1        0.0575
     19 C         -17.9424    1.8959   17.0776 C.3     1  UNL1        0.0160
     20 C         -18.9755    2.9827   17.0387 C.3     1  UNL1        0.0014
     21 C         -19.6914    3.3824   18.2948 C.3     1  UNL1        0.0001
     22 C         -19.3741    2.6952   19.5898 C.3     1  UNL1        0.0014
     23 C         -18.3410    1.6084   19.6287 C.3     1  UNL1        0.0160
     24 C         -13.1060   -7.7721   17.9014 C.2     1  UNL1        0.2429
     25 N         -13.8341   -8.5153   18.9820 N.am    1  UNL1       -0.3253
     26 O         -13.4269   -8.0389   16.4607 O.2     1  UNL1       -0.2704
     27 H         -13.6235   -8.3402   19.9276 H       1  UNL1        0.1453
     28 H         -14.5225   -9.1782   18.7455 H       1  UNL1        0.1453
@<TRIPOS>BOND
     1     1     2    1
     2     2     3    1
     3     3     4   ar
     4     4     5   ar
     5     5     6   ar
     6     6     7   ar
     7     7    24    1
     8    24    25   am
     9    24    26    2
    10     7     8   ar
    11     8     9    1
    12     9    10    2
    13     9    11   am
    14    11    12    1
    15    12    13    1
    16    13    14    1
    17    14    15    1
    18    15    18    1
    19    18    19    1
    20    19    20    1
    21    20    21    1
    22    21    22    1
    23    22    23    1
    24    15    16    1
    25    16    17    1
    26    11     2    1
    27    17    12    1
    28     8     3   ar
    29    23    18    1
    30    25    27    1
    31    25    28    1
@<TRIPOS>MOLECULE
*****
 28 31 0 0 0
SMALL
GASTEIGER

@<TRIPOS>ATOM
      1 C           7.7469   -0.0495   27.5925 C.3     1  UNL1        0.0264
      2 C           7.5384   -1.3797   28.2536 C.3     1  UNL1        0.0983
      3 C           7.9838   -1.7570   29.6354 C.ar    1  UNL1        0.0003
      4 C           8.7139   -0.9912   30.6986 C.ar    1  UNL1       -0.0025
      5 C           9.0287   -1.6451   32.0113 C.ar    1  UNL1       -0.0001
      6 C           8.6134   -3.0648   32.2608 C.ar    1  UNL1        0.0046
      7 C           7.8834   -3.8305   31.1975 C.ar    1  UNL1        0.0572
      8 C           7.5686   -3.1766   29.8848 C.ar    1  UNL1        0.0555
      9 C           6.8665   -3.6767   28.6572 C.2     1  UNL1        0.2490
     10 O           6.2852   -5.0468   28.4705 O.2     1  UNL1       -0.2699
     11 N           6.8478   -2.5662   27.6490 N.am    1  UNL1       -0.2755
     12 C           6.2445   -2.6307   26.2772 C.3     1  UNL1        0.0786
     13 C           5.1526   -1.6771   25.8925 C.3     1  UNL1        0.0372
     14 C           4.5493   -1.7417   24.5206 C.3     1  UNL1        0.0738
     15 N           5.0380   -2.7599   23.5336 N.3     1  UNL1       -0.2738
     16 C           6.1300   -3.7135   23.9183 C.3     1  UNL1        0.0738
     17 C           6.7333   -3.6489   25.2901 C.3     1  UNL1        0.0372
     18 C           4.4347   -2.8245   22.1618 C.3     1  UNL1        0.0575
     19 C           3.6490   -1.6615   21.6325 C.3     1  UNL1        0.0160
     20 C           3.0457   -1.7261   20.2606 C.3     1  UNL1        0.0014
     21 C           3.2282   -2.9536   19.4181 C.3     1  UNL1        0.0001
     22 C           4.0139   -4.1165   19.9474 C.3     1  UNL1        0.0014
     23 C           4.6171   -4.0520   21.3192 C.3     1  UNL1        0.0160
     24 C           7.4681   -5.2501   31.4469 C.2     1  UNL1        0.2429
     25 N           6.3535   -5.5481   32.4054 N.am    1  UNL1       -0.3253
     26 O           8.1675   -6.3717   30.7379 O.2     1  UNL1       -0.2704
     27 H           5.8945   -4.8120   32.8709 H       1  UNL1        0.1453
     28 H           6.0810   -6.4799   32.5691 H       1  UNL1        0.1453
@<TRIPOS>BOND
     1     1     2    1
     2     2     3    1
     3     3     4   ar
     4     4     5   ar
     5     5     6   ar
     6     6     7   ar
     7     7    24    1
     8    24    25   am
     9    24    26    2
    10     7     8   ar
    11     8     9    1
    12     9    10    2
    13     9    11   am
    14    11    12    1
    15    12    13    1
    16    13    14    1
    17    14    15    1
    18    15    18    1
    19    18    19    1
    20    19    20    1
    21    20    21    1
    22    21    22    1
    23    22    23    1
    24    15    16    1
    25    16    17    1
    26    11     2    1
    27    17    12    1
    28     8     3   ar
    29    23    18    1
    30    25    27    1
    31    25    28    1
@<TRIPOS>MOLECULE
*****
 28 31 0 0 0
SMALL
GASTEIGER

@<TRIPOS>ATOM
      1 C           8.7747   -7.2976   22.9502 C.3     1  UNL1        0.0264
      2 C           8.3663   -6.5731   24.1986 C.3     1  UNL1        0.0983
      3 C           8.6238   -7.0262   25.6051 C.ar    1  UNL1        0.0003
      4 C           9.3103   -8.2394   26.1590 C.ar    1  UNL1       -0.0025
      5 C           9.4183   -8.4279   27.6432 C.ar    1  UNL1       -0.0001
      6 C           8.8399   -7.4032   28.5734 C.ar    1  UNL1        0.0046
      7 C           8.1534   -6.1900   28.0195 C.ar    1  UNL1        0.0572
      8 C           8.0454   -6.0015   26.5354 C.ar    1  UNL1        0.0555
      9 C           7.4303   -4.9152   25.7037 C.2     1  UNL1        0.2490
     10 O           6.7385   -3.6905   26.2249 O.2     1  UNL1       -0.2699
     11 N           7.6287   -5.2684   24.2595 N.am    1  UNL1       -0.2755
     12 C           7.1699   -4.4591   23.0828 C.3     1  UNL1        0.0786
     13 C           8.1398   -4.0981   21.9970 C.3     1  UNL1        0.0372
     14 C           7.6810   -3.2888   20.8203 C.3     1  UNL1        0.0738
     15 N           6.2525   -2.8406   20.7294 N.3     1  UNL1       -0.2738
     16 C           5.2827   -3.2016   21.8152 C.3     1  UNL1        0.0738
     17 C           5.7414   -4.0109   22.9919 C.3     1  UNL1        0.0372
     18 C           5.7938   -2.0313   19.5527 C.3     1  UNL1        0.0575
     19 C           4.3313   -1.9331   19.2343 C.3     1  UNL1        0.0160
     20 C           3.8726   -1.1238   18.0576 C.3     1  UNL1        0.0014
     21 C           4.8763   -0.4127   17.1993 C.3     1  UNL1        0.0001
     22 C           6.3388   -0.5109   17.5177 C.3     1  UNL1        0.0014
     23 C           6.7975   -1.3202   18.6944 C.3     1  UNL1        0.0160
     24 C           7.5749   -5.1653   28.9498 C.2     1  UNL1        0.2429
     25 N           8.0883   -3.7561   28.9261 N.am    1  UNL1       -0.3253
     26 O           6.4831   -5.5498   29.9037 O.2     1  UNL1       -0.2704
     27 H           8.8050   -3.5037   28.3000 H       1  UNL1        0.1453
     28 H           7.7087   -3.0836   29.5367 H       1  UNL1        0.1453
@<TRIPOS>BOND
     1     1     2    1
     2     2     3    1
     3     3     4   ar
     4     4     5   ar
     5     5     6   ar
     6     6     7   ar
     7     7    24    1
     8    24    25   am
     9    24    26    2
    10     7     8   ar
    11     8     9    1
    12     9    10    2
    13     9    11   am
    14    11    12    1
    15    12    13    1
    16    13    14    1
    17    14    15    1
    18    15    18    1
    19    18    19    1
    20    19    20    1
    21    20    21    1
    22    21    22    1
    23    22    23    1
    24    15    16    1
    25    16    17    1
    26    11     2    1
    27    17    12    1
    28     8     3   ar
    29    23    18    1
    30    25    27    1
    31    25    28    1
@<TRIPOS>MOLECULE
*****
 28 31 0 0 0
SMALL
GASTEIGER

@<TRIPOS>ATOM
      1 C         -17.4527   -2.0016   19.7321 C.3     1  UNL1        0.0264
      2 C         -16.6713   -0.7455   19.4835 C.3     1  UNL1        0.0983
      3 C         -17.2116    0.6530   19.5318 C.ar    1  UNL1        0.0003
      4 C         -18.5824    1.1901   19.8186 C.ar    1  UNL1       -0.0025
      5 C         -18.8284    2.6695   19.7947 C.ar    1  UNL1       -0.0001
      6 C         -17.7035    3.6119   19.4840 C.ar    1  UNL1        0.0046
      7 C         -16.3327    3.0749   19.1972 C.ar    1  UNL1        0.0572
      8 C         -16.0867    1.5954   19.2211 C.ar    1  UNL1        0.0555
      9 C         -14.8513    0.7794   18.9808 C.2     1  UNL1        0.2490
     10 O         -13.4930    1.3159   18.6384 O.2     1  UNL1       -0.2699
     11 N         -15.2126   -0.6674   19.1429 N.am    1  UNL1       -0.2755
     12 C         -14.2791   -1.8317   18.9911 C.3     1  UNL1        0.0786
     13 C         -13.6582   -2.1264   17.6578 C.3     1  UNL1        0.0372
     14 C         -12.7247   -3.2906   17.5061 C.3     1  UNL1        0.0738
     15 N         -12.4120   -4.1602   18.6876 N.3     1  UNL1       -0.2738
     16 C         -13.0328   -3.8655   20.0208 C.3     1  UNL1        0.0738
     17 C         -13.9664   -2.7013   20.1726 C.3     1  UNL1        0.0372
     18 C         -11.4785   -5.3245   18.5358 C.3     1  UNL1        0.0575
     19 C         -10.1473   -5.3135   19.2269 C.3     1  UNL1        0.0160
     20 C          -9.2138   -6.4778   19.0751 C.3     1  UNL1        0.0014
     21 C          -9.6115   -7.6530   18.2322 C.3     1  UNL1        0.0001
     22 C         -10.9427   -7.6640   17.5411 C.3     1  UNL1        0.0014
     23 C         -11.8762   -6.4997   17.6928 C.3     1  UNL1        0.0160
     24 C         -15.2078    4.0173   18.8866 C.2     1  UNL1        0.2429
     25 N         -14.6481    4.0847   17.4966 N.am    1  UNL1       -0.3253
     26 O         -14.6427    4.8924   19.9659 O.2     1  UNL1       -0.2704
     27 H         -15.0190    3.5104   16.7882 H       1  UNL1        0.1453
     28 H         -13.9098    4.7033   17.2927 H       1  UNL1        0.1453
@<TRIPOS>BOND
     1     1     2    1
     2     2     3    1
     3     3     4   ar
     4     4     5   ar
     5     5     6   ar
     6     6     7   ar
     7     7    24    1
     8    24    25   am
     9    24    26    2
    10     7     8   ar
    11     8     9    1
    12     9    10    2
    13     9    11   am
    14    11    12    1
    15    12    13    1
    16    13    14    1
    17    14    15    1
    18    15    18    1
    19    18    19    1
    20    19    20    1
    21    20    21    1
    22    21    22    1
    23    22    23    1
    24    15    16    1
    25    16    17    1
    26    11     2    1
    27    17    12    1
    28     8     3   ar
    29    23    18    1
    30    25    27    1
    31    25    28    1
@<TRIPOS>MOLECULE
*****
 28 31 0 0 0
SMALL
GASTEIGER

@<TRIPOS>ATOM
      1 C           4.0488   -1.1484   25.6360 C.3     1  UNL1        0.0264
      2 C           3.2475   -0.6146   24.4858 C.3     1  UNL1        0.0983
      3 C           3.3085   -1.1006   23.0680 C.ar    1  UNL1        0.0003
      4 C           4.1183   -2.1784   22.4104 C.ar    1  UNL1       -0.0025
      5 C           3.9627   -2.4432   20.9422 C.ar    1  UNL1       -0.0001
      6 C           2.9974   -1.6301   20.1316 C.ar    1  UNL1        0.0046
      7 C           2.1876   -0.5523   20.7892 C.ar    1  UNL1        0.0572
      8 C           2.3431   -0.2876   22.2574 C.ar    1  UNL1        0.0555
      9 C           1.6856    0.7009   23.1742 C.2     1  UNL1        0.2490
     10 O           0.6507    1.7137   22.7826 O.2     1  UNL1       -0.2699
     11 N           2.2445    0.4987   24.5515 N.am    1  UNL1       -0.2755
     12 C           1.8667    1.2739   25.7788 C.3     1  UNL1        0.0786
     13 C           0.4727    1.1813   26.3248 C.3     1  UNL1        0.0372
     14 C           0.0950    1.9565   27.5522 C.3     1  UNL1        0.0738
     15 N           1.1112    2.8242   28.2336 N.3     1  UNL1       -0.2738
     16 C           2.5052    2.9168   27.6876 C.3     1  UNL1        0.0738
     17 C           2.8830    2.1416   26.4602 C.3     1  UNL1        0.0372
     18 C           0.7334    3.5994   29.4609 C.3     1  UNL1        0.0575
     19 C           0.3352    5.0408   29.3446 C.3     1  UNL1        0.0160
     20 C          -0.0426    5.8160   30.5720 C.3     1  UNL1        0.0014
     21 C          -0.0221    5.1497   31.9157 C.3     1  UNL1        0.0001
     22 C           0.3762    3.7082   32.0320 C.3     1  UNL1        0.0014
     23 C           0.7540    2.9331   30.8046 C.3     1  UNL1        0.0160
     24 C           1.2223    0.2607   19.9786 C.2     1  UNL1        0.2429
     25 N          -0.2362    0.2624   20.3292 N.am    1  UNL1       -0.3253
     26 O           1.7153    1.0721   18.8174 O.2     1  UNL1       -0.2704
     27 H          -0.5598   -0.2702   21.0913 H       1  UNL1        0.1453
     28 H          -0.8697    0.7960   19.7972 H       1  UNL1        0.1453
@<TRIPOS>BOND
     1     1     2    1
     2     2     3    1
     3     3     4   ar
     4     4     5   ar
     5     5     6   ar
     6     6     7   ar
     7     7    24    1
     8    24    25   am
     9    24    26    2
    10     7     8   ar
    11     8     9    1
    12     9    10    2
    13     9    11   am
    14    11    12    1
    15    12    13    1
    16    13    14    1
    17    14    15    1
    18    15    18    1
    19    18    19    1
    20    19    20    1
    21    20    21    1
    22    21    22    1
    23    22    23    1
    24    15    16    1
    25    16    17    1
    26    11     2    1
    27    17    12    1
    28     8     3   ar
    29    23    18    1
    30    25    27    1
    31    25    28    1
@<TRIPOS>MOLECULE
*****
 28 31 0 0 0
SMALL
GASTEIGER

@<TRIPOS>ATOM
      1 C           2.2168    5.4604   19.2664 C.3     1  UNL1        0.0264
      2 C           2.3361    3.9955   18.9665 C.3     1  UNL1        0.0983
      3 C           3.5539    3.3011   18.4331 C.ar    1  UNL1        0.0003
      4 C           4.9168    3.8070   18.0636 C.ar    1  UNL1       -0.0025
      5 C           5.9547    2.8562   17.5453 C.ar    1  UNL1       -0.0001
      6 C           5.6297    1.3994   17.3966 C.ar    1  UNL1        0.0046
      7 C           4.2668    0.8934   17.7661 C.ar    1  UNL1        0.0572
      8 C           3.2290    1.8443   18.2844 C.ar    1  UNL1        0.0555
      9 C           1.8103    1.6384   18.7259 C.2     1  UNL1        0.2490
     10 O           1.0729    0.3323   18.7428 O.2     1  UNL1       -0.2699
     11 N           1.2584    2.9680   19.1475 N.am    1  UNL1       -0.2755
     12 C          -0.1277    3.2248   19.6601 C.3     1  UNL1        0.0786
     13 C          -0.4495    2.9844   21.1052 C.3     1  UNL1        0.0372
     14 C          -1.8356    3.2412   21.6178 C.3     1  UNL1        0.0738
     15 N          -2.8999    3.7386   20.6852 N.3     1  UNL1       -0.2738
     16 C          -2.5781    3.9790   19.2400 C.3     1  UNL1        0.0738
     17 C          -1.1920    3.7222   18.7275 C.3     1  UNL1        0.0372
     18 C          -4.2860    3.9954   21.1978 C.3     1  UNL1        0.0575
     19 C          -4.6293    3.6785   22.6231 C.3     1  UNL1        0.0160
     20 C          -6.0154    3.9354   23.1357 C.3     1  UNL1        0.0014
     21 C          -7.0582    4.5092   22.2229 C.3     1  UNL1        0.0001
     22 C          -6.7150    4.8261   20.7976 C.3     1  UNL1        0.0014
     23 C          -5.3288    4.5692   20.2850 C.3     1  UNL1        0.0160
     24 C           3.9419   -0.5634   17.6174 C.2     1  UNL1        0.2429
     25 N           3.7211   -1.4107   18.8353 N.am    1  UNL1       -0.3253
     26 O           3.8377   -1.1729   16.2508 O.2     1  UNL1       -0.2704
     27 H           3.7895   -1.0107   19.7322 H       1  UNL1        0.1453
     28 H           3.5078   -2.3668   18.7376 H       1  UNL1        0.1453
@<TRIPOS>BOND
     1     1     2    1
     2     2     3    1
     3     3     4   ar
     4     4     5   ar
     5     5     6   ar
     6     6     7   ar
     7     7    24    1
     8    24    25   am
     9    24    26    2
    10     7     8   ar
    11     8     9    1
    12     9    10    2
    13     9    11   am
    14    11    12    1
    15    12    13    1
    16    13    14    1
    17    14    15    1
    18    15    18    1
    19    18    19    1
    20    19    20    1
    21    20    21    1
    22    21    22    1
    23    22    23    1
    24    15    16    1
    25    16    17    1
    26    11     2    1
    27    17    12    1
    28     8     3   ar
    29    23    18    1
    30    25    27    1
    31    25    28    1
