@<TRIPOS>MOLECULE
*****
 29 31 0 0 0
SMALL
GASTEIGER

@<TRIPOS>ATOM
      1 C         -10.2640  -20.0093   19.9667 C.3     1  UNL1        0.0220
      2 C          -9.0105  -19.3553   19.4657 C.3     1  UNL1        0.0278
      3 C          -5.2493  -19.5151   21.9310 C.ar    1  UNL1        0.1385
      4 C          -6.2571  -18.4300   22.1698 C.ar    1  UNL1        0.0366
      5 C          -7.5108  -18.3768   21.3480 C.ar    1  UNL1       -0.0012
      6 C          -7.7568  -19.4086   20.2875 C.ar    1  UNL1       -0.0219
      7 C          -6.7491  -20.4936   20.0487 C.ar    1  UNL1       -0.0012
      8 C          -5.4953  -20.5469   20.8705 C.ar    1  UNL1        0.0366
      9 O          -3.9956  -19.5683   22.7528 O.3     1  UNL1       -0.4754
     10 C          -2.7703  -18.8310   22.3002 C.3     1  UNL1        0.2068
     11 C          -2.7681  -17.3314   22.2637 C.3     1  UNL1        0.0646
     12 C          -1.8807  -16.6061   21.2959 C.3     1  UNL1        0.0760
     13 C           0.0002  -17.7476   19.9141 C.3     1  UNL1        0.0897
     14 N          -1.4224  -17.2893   20.0416 N.3     1  UNL1       -0.2702
     15 C          -2.3868  -17.5143   18.9149 C.3     1  UNL1        0.0897
     16 C         -11.2148  -19.2412   20.8361 C.3     1  UNL1        0.0724
     17 N         -10.6863  -18.3530   21.9233 N.3     1  UNL1       -0.2727
     18 C         -10.5909  -16.8724   21.7021 C.3     1  UNL1        0.0721
     19 C         -10.0624  -15.9842   22.7893 C.3     1  UNL1        0.0178
     20 C          -9.6293  -16.5766   24.0975 C.3     1  UNL1        0.0087
     21 C          -9.7246  -18.0572   24.3186 C.3     1  UNL1        0.0178
     22 C         -10.2531  -18.9453   23.2315 C.3     1  UNL1        0.0721
     23 C          -9.1008  -15.6885   25.1846 C.3     1  UNL1        0.0453
     24 C          -7.6293  -15.4137   25.2795 C.ar    1  UNL1        0.0541
     25 C          -6.6927  -15.2178   24.1244 C.ar    1  UNL1        0.1131
     26 N          -5.3205  -14.9695   24.6771 N.ar    1  UNL1       -0.2229
     27 C          -5.4090  -15.0120   26.1739 C.ar    1  UNL1        0.1748
     28 N          -6.8359  -15.2865   26.5462 N.ar    1  UNL1       -0.3382
     29 H          -7.1897  -15.3688   27.4613 H       1  UNL1        0.1672
@<TRIPOS>BOND
     1    13    14    1
     2    14    15    1
     3    14    12    1
     4    12    11    1
     5    11    10    1
     6    10     9    1
     7     9     3    1
     8     3     4   ar
     9     4     5   ar
    10     5     6   ar
    11     6     2    1
    12     2     1    1
    13     1    16    1
    14    16    17    1
    15    17    18    1
    16    18    19    1
    17    19    20    1
    18    20    23    1
    19    23    24    1
    20    24    25   ar
    21    25    26   ar
    22    26    27   ar
    23    27    28   ar
    24    20    21    1
    25    21    22    1
    26     6     7   ar
    27     7     8   ar
    28     8     3   ar
    29    22    17    1
    30    28    24   ar
    31    28    29    1
@<TRIPOS>MOLECULE
*****
 29 31 0 0 0
SMALL
GASTEIGER

@<TRIPOS>ATOM
      1 C         -10.8945  -19.6369   20.3567 C.3     1  UNL1        0.0220
      2 C         -11.6752  -19.0262   21.4824 C.3     1  UNL1        0.0278
      3 C          -9.6571  -18.1602   25.4102 C.ar    1  UNL1        0.1385
      4 C         -10.0111  -17.0342   24.4846 C.ar    1  UNL1        0.0366
      5 C         -10.6838  -17.3229   23.1753 C.ar    1  UNL1       -0.0012
      6 C         -11.0025  -18.7375   22.7917 C.ar    1  UNL1       -0.0219
      7 C         -10.6485  -19.8635   23.7173 C.ar    1  UNL1       -0.0012
      8 C          -9.9758  -19.5748   25.0265 C.ar    1  UNL1        0.0366
      9 O          -8.9844  -17.8716   26.7194 O.3     1  UNL1       -0.4754
     10 C          -8.5439  -16.4751   27.0445 C.3     1  UNL1        0.2068
     11 C          -7.0945  -16.1863   27.3011 C.3     1  UNL1        0.0646
     12 C          -6.3766  -15.1603   26.4752 C.3     1  UNL1        0.0760
     13 C          -5.0154  -16.0580   24.4526 C.3     1  UNL1        0.0897
     14 N          -6.2264  -15.3595   24.9961 N.3     1  UNL1       -0.2702
     15 C          -7.2872  -14.8600   24.0606 C.3     1  UNL1        0.0897
     16 C          -9.7230  -18.9046   19.7725 C.3     1  UNL1        0.0724
     17 N          -8.3709  -19.0214   20.4116 N.3     1  UNL1       -0.2727
     18 C          -7.9988  -18.1181   21.5497 C.3     1  UNL1        0.0721
     19 C          -6.6467  -18.2349   22.1888 C.3     1  UNL1        0.0178
     20 C          -5.6669  -19.2551   21.6897 C.3     1  UNL1        0.0087
     21 C          -6.0391  -20.1585   20.5515 C.3     1  UNL1        0.0178
     22 C          -7.3911  -20.0416   19.9125 C.3     1  UNL1        0.0721
     23 C          -4.3149  -19.3720   22.3287 C.3     1  UNL1        0.0453
     24 C          -3.1117  -18.7867   21.6507 C.ar    1  UNL1        0.0541
     25 C          -2.0225  -19.5586   20.9669 C.ar    1  UNL1        0.1131
     26 N          -1.0241  -18.5757   20.4309 N.ar    1  UNL1       -0.2229
     27 C          -1.4964  -17.1963   20.7834 C.ar    1  UNL1        0.1748
     28 N          -2.7866  -17.3267   21.5373 N.ar    1  UNL1       -0.3382
     29 H          -3.3255  -16.5844   21.8949 H       1  UNL1        0.1672
@<TRIPOS>BOND
     1    13    14    1
     2    14    15    1
     3    14    12    1
     4    12    11    1
     5    11    10    1
     6    10     9    1
     7     9     3    1
     8     3     4   ar
     9     4     5   ar
    10     5     6   ar
    11     6     2    1
    12     2     1    1
    13     1    16    1
    14    16    17    1
    15    17    18    1
    16    18    19    1
    17    19    20    1
    18    20    23    1
    19    23    24    1
    20    24    25   ar
    21    25    26   ar
    22    26    27   ar
    23    27    28   ar
    24    20    21    1
    25    21    22    1
    26     6     7   ar
    27     7     8   ar
    28     8     3   ar
    29    22    17    1
    30    28    24   ar
    31    28    29    1
@<TRIPOS>MOLECULE
*****
 29 31 0 0 0
SMALL
GASTEIGER

@<TRIPOS>ATOM
      1 C          -6.0139  -15.5276   26.3294 C.3     1  UNL1        0.0220
      2 C          -5.5869  -15.3346   24.9045 C.3     1  UNL1        0.0278
      3 C          -5.0543  -18.9009   22.2124 C.ar    1  UNL1        0.1385
      4 C          -6.3696  -18.1811   22.2522 C.ar    1  UNL1        0.0366
      5 C          -6.5471  -16.9923   23.1496 C.ar    1  UNL1       -0.0012
      6 C          -5.4093  -16.5234   24.0072 C.ar    1  UNL1       -0.0219
      7 C          -4.0940  -17.2432   23.9674 C.ar    1  UNL1       -0.0012
      8 C          -3.9165  -18.4320   23.0700 C.ar    1  UNL1        0.0366
      9 O          -4.8767  -20.0897   21.3151 O.3     1  UNL1       -0.4754
     10 C          -3.8981  -20.0329   20.1798 C.3     1  UNL1        0.2068
     11 C          -3.6051  -18.7247   19.5069 C.3     1  UNL1        0.0646
     12 C          -2.2043  -18.3971   19.0819 C.3     1  UNL1        0.0760
     13 C          -1.9043  -16.6163   20.9497 C.3     1  UNL1        0.0897
     14 N          -1.3111  -17.6045   19.9896 N.3     1  UNL1       -0.2702
     15 C           0.1752  -17.8000   19.9373 C.3     1  UNL1        0.0897
     16 C          -7.4703  -15.4957   26.6868 C.3     1  UNL1        0.0724
     17 N          -8.4654  -16.2389   25.8456 N.3     1  UNL1       -0.2727
     18 C          -9.0768  -15.5769   24.6465 C.3     1  UNL1        0.0721
     19 C         -10.0719  -16.3201   23.8054 C.3     1  UNL1        0.0178
     20 C         -10.4556  -17.7253   24.1633 C.3     1  UNL1        0.0087
     21 C          -9.8441  -18.3873   25.3625 C.3     1  UNL1        0.0178
     22 C          -8.8491  -17.6441   26.2036 C.3     1  UNL1        0.0721
     23 C         -11.4506  -18.4685   23.3222 C.3     1  UNL1        0.0453
     24 C         -11.2979  -18.4982   21.8304 C.ar    1  UNL1        0.0541
     25 C         -11.8913  -17.5168   20.8636 C.ar    1  UNL1        0.1131
     26 N         -11.4851  -17.9266   19.4790 N.ar    1  UNL1       -0.2229
     27 C         -10.6405  -19.1613   19.5901 C.ar    1  UNL1        0.1748
     28 N         -10.5248  -19.5145   21.0433 N.ar    1  UNL1       -0.3382
     29 H         -10.0286  -20.2792   21.4152 H       1  UNL1        0.1672
@<TRIPOS>BOND
     1    13    14    1
     2    14    15    1
     3    14    12    1
     4    12    11    1
     5    11    10    1
     6    10     9    1
     7     9     3    1
     8     3     4   ar
     9     4     5   ar
    10     5     6   ar
    11     6     2    1
    12     2     1    1
    13     1    16    1
    14    16    17    1
    15    17    18    1
    16    18    19    1
    17    19    20    1
    18    20    23    1
    19    23    24    1
    20    24    25   ar
    21    25    26   ar
    22    26    27   ar
    23    27    28   ar
    24    20    21    1
    25    21    22    1
    26     6     7   ar
    27     7     8   ar
    28     8     3   ar
    29    22    17    1
    30    28    24   ar
    31    28    29    1
@<TRIPOS>MOLECULE
*****
 29 31 0 0 0
SMALL
GASTEIGER

@<TRIPOS>ATOM
      1 C         -11.7085  -17.7060   21.0572 C.3     1  UNL1        0.0220
      2 C         -11.1857  -19.1115   21.0908 C.3     1  UNL1        0.0278
      3 C          -6.7596  -19.8589   21.4086 C.ar    1  UNL1        0.1385
      4 C          -7.3624  -19.4740   20.0901 C.ar    1  UNL1        0.0366
      5 C          -8.8378  -19.2249   19.9842 C.ar    1  UNL1       -0.0012
      6 C          -9.7103  -19.3606   21.1967 C.ar    1  UNL1       -0.0219
      7 C          -9.1074  -19.7455   22.5152 C.ar    1  UNL1       -0.0012
      8 C          -7.6321  -19.9946   22.6211 C.ar    1  UNL1        0.0366
      9 O          -5.2842  -20.1080   21.5146 O.3     1  UNL1       -0.4754
     10 C          -4.4865  -20.4232   20.2840 C.3     1  UNL1        0.2068
     11 C          -3.6523  -19.3573   19.6375 C.3     1  UNL1        0.0646
     12 C          -2.1759  -19.3002   19.8965 C.3     1  UNL1        0.0760
     13 C          -0.0610  -17.7918   19.9423 C.3     1  UNL1        0.0897
     14 N          -1.3509  -18.2012   19.2953 N.3     1  UNL1       -0.2702
     15 C          -1.8157  -17.5116   18.0468 C.3     1  UNL1        0.0897
     16 C         -11.5489  -16.8176   22.2552 C.3     1  UNL1        0.0724
     17 N         -10.1796  -16.5170   22.7890 N.3     1  UNL1       -0.2727
     18 C          -9.8517  -16.8134   24.2224 C.3     1  UNL1        0.0721
     19 C          -8.4824  -16.5128   24.7561 C.3     1  UNL1        0.0178
     20 C          -7.4411  -15.9159   23.8564 C.3     1  UNL1        0.0087
     21 C          -7.7691  -15.6195   22.4230 C.3     1  UNL1        0.0178
     22 C          -9.1383  -15.9201   21.8893 C.3     1  UNL1        0.0721
     23 C          -6.0719  -15.6153   24.3901 C.3     1  UNL1        0.0453
     24 C          -4.8648  -16.2331   23.7489 C.ar    1  UNL1        0.0541
     25 C          -4.3842  -17.6401   23.9469 C.ar    1  UNL1        0.1131
     26 N          -3.1487  -17.8290   23.1175 N.ar    1  UNL1       -0.2229
     27 C          -2.8657  -16.5386   22.4069 C.ar    1  UNL1        0.1748
     28 N          -3.9263  -15.5523   22.7972 N.ar    1  UNL1       -0.3382
     29 H          -3.9946  -14.6215   22.4837 H       1  UNL1        0.1672
@<TRIPOS>BOND
     1    13    14    1
     2    14    15    1
     3    14    12    1
     4    12    11    1
     5    11    10    1
     6    10     9    1
     7     9     3    1
     8     3     4   ar
     9     4     5   ar
    10     5     6   ar
    11     6     2    1
    12     2     1    1
    13     1    16    1
    14    16    17    1
    15    17    18    1
    16    18    19    1
    17    19    20    1
    18    20    23    1
    19    23    24    1
    20    24    25   ar
    21    25    26   ar
    22    26    27   ar
    23    27    28   ar
    24    20    21    1
    25    21    22    1
    26     6     7   ar
    27     7     8   ar
    28     8     3   ar
    29    22    17    1
    30    28    24   ar
    31    28    29    1
@<TRIPOS>MOLECULE
*****
 29 31 0 0 0
SMALL
GASTEIGER

@<TRIPOS>ATOM
      1 C          -7.9325  -15.3188   27.3327 C.3     1  UNL1        0.0220
      2 C          -6.4394  -15.1941   27.2623 C.3     1  UNL1        0.0278
      3 C          -4.2322  -16.6171   23.6081 C.ar    1  UNL1        0.1385
      4 C          -4.0158  -17.2974   24.9274 C.ar    1  UNL1        0.0366
      5 C          -4.7515  -16.8230   26.1454 C.ar    1  UNL1       -0.0012
      6 C          -5.7036  -15.6684   26.0443 C.ar    1  UNL1       -0.0219
      7 C          -5.9201  -14.9882   24.7250 C.ar    1  UNL1       -0.0012
      8 C          -5.1843  -15.4626   23.5070 C.ar    1  UNL1        0.0366
      9 O          -3.4965  -17.0915   22.3901 O.3     1  UNL1       -0.4754
     10 C          -2.4235  -18.1317   22.5196 C.3     1  UNL1        0.2068
     11 C          -2.5198  -19.4097   21.7402 C.3     1  UNL1        0.0646
     12 C          -2.2453  -19.4113   20.2655 C.3     1  UNL1        0.0760
     13 C          -0.1446  -17.9559   19.7975 C.3     1  UNL1        0.0897
     14 N          -1.6112  -18.2152   19.6194 N.3     1  UNL1       -0.2702
     15 C          -2.4438  -17.2784   18.7952 C.3     1  UNL1        0.0897
     16 C          -8.5811  -16.6623   27.1761 C.3     1  UNL1        0.0724
     17 N          -9.1102  -17.0884   25.8387 N.3     1  UNL1       -0.2727
     18 C          -9.5750  -18.4993   25.6310 C.3     1  UNL1        0.0721
     19 C         -10.1042  -18.9254   24.2936 C.3     1  UNL1        0.0178
     20 C         -10.1684  -17.9405   23.1640 C.3     1  UNL1        0.0087
     21 C          -9.7035  -16.5296   23.3718 C.3     1  UNL1        0.0178
     22 C          -9.1744  -16.1035   24.7092 C.3     1  UNL1        0.0721
     23 C         -10.6975  -18.3666   21.8267 C.3     1  UNL1        0.0453
     24 C         -11.3090  -17.3536   20.9047 C.ar    1  UNL1        0.0541
     25 C         -12.7074  -16.8173   20.9871 C.ar    1  UNL1        0.1131
     26 N         -12.8921  -15.8314   19.8719 N.ar    1  UNL1       -0.2229
     27 C         -11.6079  -15.7584   19.1002 C.ar    1  UNL1        0.1748
     28 N         -10.6295  -16.6992   19.7386 N.ar    1  UNL1       -0.3382
     29 H          -9.7038  -16.8591   19.4439 H       1  UNL1        0.1672
@<TRIPOS>BOND
     1    13    14    1
     2    14    15    1
     3    14    12    1
     4    12    11    1
     5    11    10    1
     6    10     9    1
     7     9     3    1
     8     3     4   ar
     9     4     5   ar
    10     5     6   ar
    11     6     2    1
    12     2     1    1
    13     1    16    1
    14    16    17    1
    15    17    18    1
    16    18    19    1
    17    19    20    1
    18    20    23    1
    19    23    24    1
    20    24    25   ar
    21    25    26   ar
    22    26    27   ar
    23    27    28   ar
    24    20    21    1
    25    21    22    1
    26     6     7   ar
    27     7     8   ar
    28     8     3   ar
    29    22    17    1
    30    28    24   ar
    31    28    29    1
@<TRIPOS>MOLECULE
*****
 29 31 0 0 0
SMALL
GASTEIGER

@<TRIPOS>ATOM
      1 C          -8.2158  -15.4978   27.3573 C.3     1  UNL1        0.0220
      2 C          -6.7499  -15.1833   27.3126 C.3     1  UNL1        0.0278
      3 C          -4.2960  -16.3979   23.7414 C.ar    1  UNL1        0.1385
      4 C          -5.3156  -15.3051   23.6142 C.ar    1  UNL1        0.0366
      5 C          -6.1336  -14.9003   24.8046 C.ar    1  UNL1       -0.0012
      6 C          -5.9319  -15.5882   26.1222 C.ar    1  UNL1       -0.0219
      7 C          -4.9123  -16.6810   26.2494 C.ar    1  UNL1       -0.0012
      8 C          -4.0944  -17.0858   25.0590 C.ar    1  UNL1        0.0366
      9 O          -3.4781  -16.8028   22.5510 O.3     1  UNL1       -0.4754
     10 C          -2.5508  -17.9782   22.6428 C.3     1  UNL1        0.2068
     11 C          -2.8359  -19.2218   21.8539 C.3     1  UNL1        0.0646
     12 C          -2.1436  -19.4538   20.5435 C.3     1  UNL1        0.0760
     13 C          -2.5761  -17.5062   18.8793 C.3     1  UNL1        0.0897
     14 N          -1.6356  -18.2886   19.7471 N.3     1  UNL1       -0.2702
     15 C          -0.1869  -17.9060   19.8185 C.3     1  UNL1        0.0897
     16 C          -8.6930  -16.8913   27.0735 C.3     1  UNL1        0.0724
     17 N          -9.2226  -17.2404   25.7142 N.3     1  UNL1       -0.2727
     18 C          -9.7737  -18.6108   25.4532 C.3     1  UNL1        0.0721
     19 C         -10.3033  -18.9599   24.0939 C.3     1  UNL1        0.0178
     20 C         -10.2818  -17.9385   22.9955 C.3     1  UNL1        0.0087
     21 C          -9.7307  -16.5680   23.2566 C.3     1  UNL1        0.0178
     22 C          -9.2011  -16.2190   24.6158 C.3     1  UNL1        0.0721
     23 C         -10.8114  -18.2876   21.6363 C.3     1  UNL1        0.0453
     24 C          -9.9056  -18.9105   20.6158 C.ar    1  UNL1        0.0541
     25 C         -10.3317  -19.7945   19.4813 C.ar    1  UNL1        0.1131
     26 N          -9.1042  -20.1891   18.7149 N.ar    1  UNL1       -0.2229
     27 C          -7.9194  -19.5490   19.3757 C.ar    1  UNL1        0.1748
     28 N          -8.4147  -18.7587   20.5504 N.ar    1  UNL1       -0.3382
     29 H          -7.8589  -18.2328   21.1699 H       1  UNL1        0.1672
@<TRIPOS>BOND
     1    13    14    1
     2    14    15    1
     3    14    12    1
     4    12    11    1
     5    11    10    1
     6    10     9    1
     7     9     3    1
     8     3     4   ar
     9     4     5   ar
    10     5     6   ar
    11     6     2    1
    12     2     1    1
    13     1    16    1
    14    16    17    1
    15    17    18    1
    16    18    19    1
    17    19    20    1
    18    20    23    1
    19    23    24    1
    20    24    25   ar
    21    25    26   ar
    22    26    27   ar
    23    27    28   ar
    24    20    21    1
    25    21    22    1
    26     6     7   ar
    27     7     8   ar
    28     8     3   ar
    29    22    17    1
    30    28    24   ar
    31    28    29    1
@<TRIPOS>MOLECULE
*****
 29 31 0 0 0
SMALL
GASTEIGER

@<TRIPOS>ATOM
      1 C          -3.2758  -19.4297   21.8918 C.3     1  UNL1        0.0220
      2 C          -2.7742  -18.0976   22.3648 C.3     1  UNL1        0.0278
      3 C          -5.1381  -15.7470   25.3875 C.ar    1  UNL1        0.1385
      4 C          -4.4138  -16.9921   25.8057 C.ar    1  UNL1        0.0366
      5 C          -3.6258  -17.7756   24.7981 C.ar    1  UNL1       -0.0012
      6 C          -3.5622  -17.3140   23.3724 C.ar    1  UNL1       -0.0219
      7 C          -4.2865  -16.0689   22.9542 C.ar    1  UNL1       -0.0012
      8 C          -5.0745  -15.2854   23.9617 C.ar    1  UNL1        0.0366
      9 O          -5.9261  -14.9635   26.3950 O.3     1  UNL1       -0.4754
     10 C          -6.8933  -15.6657   27.3013 C.3     1  UNL1        0.2068
     11 C          -8.2776  -15.9836   26.8190 C.3     1  UNL1        0.0646
     12 C          -8.7509  -15.4557   25.4971 C.3     1  UNL1        0.0760
     13 C          -9.7843  -17.6626   24.5960 C.3     1  UNL1        0.0897
     14 N          -9.0083  -16.4007   24.3609 N.3     1  UNL1       -0.2702
     15 C          -8.4896  -16.0836   22.9896 C.3     1  UNL1        0.0897
     16 C          -4.1629  -19.5116   20.6850 C.3     1  UNL1        0.0724
     17 N          -5.6540  -19.4967   20.8477 N.3     1  UNL1       -0.2727
     18 C          -6.2609  -19.6371   22.2122 C.3     1  UNL1        0.0721
     19 C          -7.7520  -19.6222   22.3750 C.3     1  UNL1        0.0178
     20 C          -8.6362  -19.4670   21.1732 C.3     1  UNL1        0.0087
     21 C          -8.0291  -19.3266   19.8087 C.3     1  UNL1        0.0178
     22 C          -6.5381  -19.3415   19.6459 C.3     1  UNL1        0.0721
     23 C         -10.1272  -19.4521   21.3359 C.3     1  UNL1        0.0453
     24 C         -10.9153  -18.2464   20.9174 C.ar    1  UNL1        0.0541
     25 C         -12.3242  -17.9296   21.3231 C.ar    1  UNL1        0.1131
     26 N         -12.7125  -16.6332   20.6761 N.ar    1  UNL1       -0.2229
     27 C         -11.5435  -16.1487   19.8705 C.ar    1  UNL1        0.1748
     28 N         -10.4328  -17.1457   20.0197 N.ar    1  UNL1       -0.3382
     29 H          -9.5433  -17.0879   19.6018 H       1  UNL1        0.1672
@<TRIPOS>BOND
     1    13    14    1
     2    14    15    1
     3    14    12    1
     4    12    11    1
     5    11    10    1
     6    10     9    1
     7     9     3    1
     8     3     4   ar
     9     4     5   ar
    10     5     6   ar
    11     6     2    1
    12     2     1    1
    13     1    16    1
    14    16    17    1
    15    17    18    1
    16    18    19    1
    17    19    20    1
    18    20    23    1
    19    23    24    1
    20    24    25   ar
    21    25    26   ar
    22    26    27   ar
    23    27    28   ar
    24    20    21    1
    25    21    22    1
    26     6     7   ar
    27     7     8   ar
    28     8     3   ar
    29    22    17    1
    30    28    24   ar
    31    28    29    1
@<TRIPOS>MOLECULE
*****
 29 31 0 0 0
SMALL
GASTEIGER

@<TRIPOS>ATOM
      1 C         -12.4125  -17.4321   21.5748 C.3     1  UNL1        0.0220
      2 C         -11.5162  -16.2314   21.5043 C.3     1  UNL1        0.0278
      3 C          -7.7823  -16.0607   24.0100 C.ar    1  UNL1        0.1385
      4 C          -9.1031  -16.3659   24.6521 C.ar    1  UNL1        0.0366
      5 C         -10.3477  -16.4228   23.8168 C.ar    1  UNL1       -0.0012
      6 C         -10.2715  -16.1745   22.3395 C.ar    1  UNL1       -0.0219
      7 C          -8.9507  -15.8693   21.6975 C.ar    1  UNL1       -0.0012
      8 C          -7.7061  -15.8124   22.5327 C.ar    1  UNL1        0.0366
      9 O          -6.5376  -16.0038   24.8453 O.3     1  UNL1       -0.4754
     10 C          -5.2381  -15.5812   24.2269 C.3     1  UNL1        0.2068
     11 C          -4.4128  -16.5741   23.4634 C.3     1  UNL1        0.0646
     12 C          -3.2331  -16.1100   22.6614 C.3     1  UNL1        0.0760
     13 C          -1.4703  -16.7222   20.8538 C.3     1  UNL1        0.0897
     14 N          -2.3130  -17.1132   22.0314 N.3     1  UNL1       -0.2702
     15 C          -2.2356  -18.5075   22.5792 C.3     1  UNL1        0.0897
     16 C         -11.9091  -18.7714   21.1245 C.3     1  UNL1        0.0724
     17 N         -10.4651  -19.1317   21.3123 N.3     1  UNL1       -0.2727
     18 C          -9.5285  -19.1111   20.1409 C.3     1  UNL1        0.0721
     19 C          -8.0845  -19.4715   20.3288 C.3     1  UNL1        0.0178
     20 C          -7.5773  -19.8525   21.6880 C.3     1  UNL1        0.0087
     21 C          -8.5140  -19.8731   22.8595 C.3     1  UNL1        0.0178
     22 C          -9.9579  -19.5127   22.6716 C.3     1  UNL1        0.0721
     23 C          -6.1334  -20.2128   21.8759 C.3     1  UNL1        0.0453
     24 C          -5.1256  -19.8425   20.8285 C.ar    1  UNL1        0.0541
     25 C          -4.1092  -20.7618   20.2188 C.ar    1  UNL1        0.1131
     26 N          -3.3127  -19.9753   19.2204 N.ar    1  UNL1       -0.2229
     27 C          -3.8367  -18.5698   19.2131 C.ar    1  UNL1        0.1748
     28 N          -4.9572  -18.4877   20.2069 N.ar    1  UNL1       -0.3382
     29 H          -5.4887  -17.6856   20.4148 H       1  UNL1        0.1672
@<TRIPOS>BOND
     1    13    14    1
     2    14    15    1
     3    14    12    1
     4    12    11    1
     5    11    10    1
     6    10     9    1
     7     9     3    1
     8     3     4   ar
     9     4     5   ar
    10     5     6   ar
    11     6     2    1
    12     2     1    1
    13     1    16    1
    14    16    17    1
    15    17    18    1
    16    18    19    1
    17    19    20    1
    18    20    23    1
    19    23    24    1
    20    24    25   ar
    21    25    26   ar
    22    26    27   ar
    23    27    28   ar
    24    20    21    1
    25    21    22    1
    26     6     7   ar
    27     7     8   ar
    28     8     3   ar
    29    22    17    1
    30    28    24   ar
    31    28    29    1
@<TRIPOS>MOLECULE
*****
 29 31 0 0 0
SMALL
GASTEIGER

@<TRIPOS>ATOM
      1 C          -7.8975  -15.3557   27.2765 C.3     1  UNL1        0.0220
      2 C          -6.4249  -15.1326   27.0984 C.3     1  UNL1        0.0278
      3 C          -4.2951  -16.8959   23.5482 C.ar    1  UNL1        0.1385
      4 C          -5.2952  -15.7954   23.3522 C.ar    1  UNL1        0.0366
      5 C          -6.0052  -15.2076   24.5356 C.ar    1  UNL1       -0.0012
      6 C          -5.7150  -15.7204   25.9150 C.ar    1  UNL1       -0.0219
      7 C          -4.7148  -16.8209   26.1110 C.ar    1  UNL1       -0.0012
      8 C          -4.0048  -17.4087   24.9276 C.ar    1  UNL1        0.0366
      9 O          -3.5851  -17.4837   22.3647 O.3     1  UNL1       -0.4754
     10 C          -3.5061  -18.9726   22.2010 C.3     1  UNL1        0.2068
     11 C          -4.1514  -19.6323   21.0185 C.3     1  UNL1        0.0646
     12 C          -5.2835  -18.9533   20.3061 C.3     1  UNL1        0.0760
     13 C          -7.0545  -18.9539   22.2070 C.3     1  UNL1        0.0897
     14 N          -6.6951  -19.1669   20.7664 N.3     1  UNL1       -0.2702
     15 C          -7.7472  -19.5935   19.7860 C.3     1  UNL1        0.0897
     16 C          -8.4706  -16.7340   27.1280 C.3     1  UNL1        0.0724
     17 N          -9.0940  -17.1510   25.8289 N.3     1  UNL1       -0.2727
     18 C          -9.1899  -16.1737   24.6951 C.3     1  UNL1        0.0721
     19 C          -9.8134  -16.5907   23.3961 C.3     1  UNL1        0.0178
     20 C         -10.3410  -17.9851   23.2309 C.3     1  UNL1        0.0087
     21 C         -10.2450  -18.9625   24.3648 C.3     1  UNL1        0.0178
     22 C          -9.6216  -18.5454   25.6638 C.3     1  UNL1        0.0721
     23 C         -10.9644  -18.4022   21.9320 C.3     1  UNL1        0.0453
     24 C         -11.4438  -17.3630   20.9624 C.ar    1  UNL1        0.0541
     25 C         -12.8094  -16.7430   20.9382 C.ar    1  UNL1        0.1131
     26 N         -12.8514  -15.7581   19.8076 N.ar    1  UNL1       -0.2229
     27 C         -11.5117  -15.7694   19.1330 C.ar    1  UNL1        0.1748
     28 N         -10.6417  -16.7612   19.8467 N.ar    1  UNL1       -0.3382
     29 H          -9.7082  -16.9791   19.6224 H       1  UNL1        0.1672
@<TRIPOS>BOND
     1    13    14    1
     2    14    15    1
     3    14    12    1
     4    12    11    1
     5    11    10    1
     6    10     9    1
     7     9     3    1
     8     3     4   ar
     9     4     5   ar
    10     5     6   ar
    11     6     2    1
    12     2     1    1
    13     1    16    1
    14    16    17    1
    15    17    18    1
    16    18    19    1
    17    19    20    1
    18    20    23    1
    19    23    24    1
    20    24    25   ar
    21    25    26   ar
    22    26    27   ar
    23    27    28   ar
    24    20    21    1
    25    21    22    1
    26     6     7   ar
    27     7     8   ar
    28     8     3   ar
    29    22    17    1
    30    28    24   ar
    31    28    29    1
