@<TRIPOS>MOLECULE
*****
 37 40 0 0 0
SMALL
GASTEIGER

@<TRIPOS>ATOM
      1 C           6.7548   -4.4230   24.6020 C.ar    1  UNL1        0.0908
      2 C           7.5981   -5.4270   23.8735 C.ar    1  UNL1        0.1363
      3 N           7.6851   -5.0041   22.4370 N.ar    1  UNL1       -0.1661
      4 N           6.8955   -3.7387   22.2776 N.ar    1  UNL1       -0.2459
      5 C           6.3206   -3.3796   23.6157 C.ar    1  UNL1        0.1116
      6 C           7.4453   -4.1148   27.0875 C.2     1  UNL1        0.2703
      7 O           8.8320   -3.7395   26.6557 O.2     1  UNL1       -0.2681
      8 N           6.4067   -4.4566   26.0607 N.am    1  UNL1       -0.2766
      9 H           5.4967   -4.7029   26.3441 H       1  UNL1        0.1553
     10 C           6.8614   -1.5213   28.9803 C.3     1  UNL1        0.0362
     11 C           6.8289   -2.9562   29.4162 C.ar    1  UNL1        0.0421
     12 C           7.0973   -4.1483   28.5462 C.ar    1  UNL1        0.1723
     13 N           6.9566   -5.3799   29.3909 N.ar    1  UNL1       -0.0726
     14 O           6.6012   -4.9488   30.7831 O.2     1  UNL1       -0.3520
     15 C           6.5223   -3.4510   30.7987 C.ar    1  UNL1        0.1904
     16 C           6.1943   -2.5977   31.9879 C.ar    1  UNL1        0.1181
     17 C           7.2470   -1.7157   32.5914 C.ar    1  UNL1        0.0223
     18 C           6.9191   -0.8624   33.7805 C.ar    1  UNL1        0.0032
     19 C           5.5385   -0.8911   34.3665 C.ar    1  UNL1        0.0207
     20 C           4.4859   -1.7731   33.7631 C.ar    1  UNL1        0.0989
     21 N           4.8138   -2.6264   32.5738 N.ar    1  UNL1       -0.2407
     22 C           6.7130   -2.9678   21.0039 C.3     1  UNL1        0.1274
     23 C           7.8110   -2.9361   19.9825 C.3     1  UNL1        0.0312
     24 C           5.4323   -2.2286   20.7516 C.ar    1  UNL1        0.0038
     25 C           5.2416   -0.8479   21.3059 C.ar    1  UNL1       -0.0025
     26 C           3.9610   -0.1088   21.0536 C.ar    1  UNL1        0.0036
     27 C           2.8711   -0.7503   20.2470 C.ar    1  UNL1        0.0714
     28 C           3.0619   -2.1310   19.6927 C.ar    1  UNL1        0.0074
     29 C           4.3425   -2.8701   19.9450 C.ar    1  UNL1        0.0692
     30 C           1.5905   -0.0111   19.9947 C.3     1  UNL1        0.4186
     31 F           0.3099    0.7280   19.7425 F       1  UNL1       -0.1659
     32 F           2.3545    1.2749   19.8842 F       1  UNL1       -0.1659
     33 F           0.8264   -1.2971   20.1053 F       1  UNL1       -0.1659
     34 C           4.5332   -4.2509   19.3907 C.3     1  UNL1        0.4183
     35 F           4.7240   -5.6316   18.8364 F       1  UNL1       -0.1659
     36 F           3.9383   -4.8339   20.6381 F       1  UNL1       -0.1659
     37 F           5.1281   -3.6679   18.1432 F       1  UNL1       -0.1659
@<TRIPOS>BOND
     1    10    11    1
     2    11    12   ar
     3    12     6    1
     4     6     7    2
     5     6     8   am
     6     8     1    1
     7     1     2   ar
     8     2     3   ar
     9     3     4   ar
    10     4    22    1
    11    22    23    1
    12    22    24    1
    13    24    25   ar
    14    25    26   ar
    15    26    27   ar
    16    27    30    1
    17    30    31    1
    18    30    32    1
    19    30    33    1
    20    27    28   ar
    21    28    29   ar
    22    29    34    1
    23    34    35    1
    24    34    36    1
    25    34    37    1
    26     4     5   ar
    27    12    13   ar
    28    13    14   ar
    29    14    15   ar
    30    15    16    1
    31    16    17   ar
    32    17    18   ar
    33    18    19   ar
    34    19    20   ar
    35    20    21   ar
    36    15    11   ar
    37    21    16   ar
    38     5     1   ar
    39    29    24   ar
    40     8     9    1
@<TRIPOS>MOLECULE
*****
 37 40 0 0 0
SMALL
GASTEIGER

@<TRIPOS>ATOM
      1 C           1.4977    0.8577   25.1561 C.ar    1  UNL1        0.0908
      2 C           0.4009    1.4287   24.3070 C.ar    1  UNL1        0.1363
      3 N           0.8981    1.4994   22.8935 N.ar    1  UNL1       -0.1661
      4 N           2.3021    0.9721   22.8691 N.ar    1  UNL1       -0.2459
      5 C           2.6727    0.5755   24.2674 C.ar    1  UNL1        0.1116
      6 C           1.8935    1.6699   27.5920 C.2     1  UNL1        0.2703
      7 O           2.4224    2.9735   27.0713 O.2     1  UNL1       -0.2681
      8 N           1.4312    0.6120   26.6343 N.am    1  UNL1       -0.2766
      9 H           1.0841   -0.2436   26.9760 H       1  UNL1        0.1553
     10 C           4.2888    0.4519   29.4437 C.3     1  UNL1        0.0362
     11 C           2.9280    0.8644   29.9214 C.ar    1  UNL1        0.0421
     12 C           1.8270    1.4242   29.0702 C.ar    1  UNL1        0.1723
     13 N           0.6478    1.6953   29.9568 N.ar    1  UNL1       -0.0726
     14 O           1.0200    1.3029   31.3560 O.2     1  UNL1       -0.3520
     15 C           2.4292    0.7894   31.3340 C.ar    1  UNL1        0.1904
     16 C           3.2037    0.2889   32.5171 C.ar    1  UNL1        0.1181
     17 C           3.5847    1.2335   33.6183 C.ar    1  UNL1        0.0223
     18 C           4.3591    0.7329   34.8013 C.ar    1  UNL1        0.0032
     19 C           4.7527   -0.7123   34.8832 C.ar    1  UNL1        0.0207
     20 C           4.3718   -1.6568   33.7820 C.ar    1  UNL1        0.0989
     21 N           3.5973   -1.1563   32.5989 N.ar    1  UNL1       -0.2407
     22 C           3.1812    0.8609   21.6588 C.3     1  UNL1        0.1274
     23 C           3.7554    2.0972   21.0327 C.3     1  UNL1        0.0312
     24 C           3.4862   -0.4866   21.0745 C.ar    1  UNL1        0.0038
     25 C           4.5741   -1.3322   21.6672 C.ar    1  UNL1       -0.0025
     26 C           4.8790   -2.6797   21.0830 C.ar    1  UNL1        0.0036
     27 C           4.0960   -3.1815   19.9061 C.ar    1  UNL1        0.0714
     28 C           3.0081   -2.3358   19.3134 C.ar    1  UNL1        0.0074
     29 C           2.7032   -0.9884   19.8976 C.ar    1  UNL1        0.0692
     30 C           4.4010   -4.5290   19.3218 C.3     1  UNL1        0.4186
     31 F           4.7058   -5.8765   18.7376 F       1  UNL1       -0.1659
     32 F           5.8522   -4.3442   19.6529 F       1  UNL1       -0.1659
     33 F           2.9497   -4.7138   18.9907 F       1  UNL1       -0.1659
     34 C           1.6152   -0.1427   19.3049 C.3     1  UNL1        0.4183
     35 F           0.5274    0.7030   18.7123 F       1  UNL1       -0.1659
     36 F           2.5933    0.4246   18.3193 F       1  UNL1       -0.1659
     37 F           0.6372   -0.7100   20.2906 F       1  UNL1       -0.1659
@<TRIPOS>BOND
     1    10    11    1
     2    11    12   ar
     3    12     6    1
     4     6     7    2
     5     6     8   am
     6     8     1    1
     7     1     2   ar
     8     2     3   ar
     9     3     4   ar
    10     4    22    1
    11    22    23    1
    12    22    24    1
    13    24    25   ar
    14    25    26   ar
    15    26    27   ar
    16    27    30    1
    17    30    31    1
    18    30    32    1
    19    30    33    1
    20    27    28   ar
    21    28    29   ar
    22    29    34    1
    23    34    35    1
    24    34    36    1
    25    34    37    1
    26     4     5   ar
    27    12    13   ar
    28    13    14   ar
    29    14    15   ar
    30    15    16    1
    31    16    17   ar
    32    17    18   ar
    33    18    19   ar
    34    19    20   ar
    35    20    21   ar
    36    15    11   ar
    37    21    16   ar
    38     5     1   ar
    39    29    24   ar
    40     8     9    1
@<TRIPOS>MOLECULE
*****
 37 40 0 0 0
SMALL
GASTEIGER

@<TRIPOS>ATOM
      1 C           7.4100   -8.0299   26.5079 C.ar    1  UNL1        0.0908
      2 C           8.8165   -8.0855   25.9896 C.ar    1  UNL1        0.1363
      3 N           9.2408   -6.6875   25.6497 N.ar    1  UNL1       -0.1661
      4 N           8.0965   -5.7679   25.9579 N.ar    1  UNL1       -0.2459
      5 C           6.9650   -6.5975   26.4883 C.ar    1  UNL1        0.1116
      6 C           7.2494  -10.3372   27.6913 C.2     1  UNL1        0.2703
      7 O           8.7248  -10.3023   27.9595 O.2     1  UNL1       -0.2681
      8 N           6.5920   -9.2010   26.9655 N.am    1  UNL1       -0.2766
      9 H           5.6236   -9.2239   26.7894 H       1  UNL1        0.1553
     10 C           4.0840  -10.8271   27.0670 C.3     1  UNL1        0.0362
     11 C           4.9764  -11.7335   27.8619 C.ar    1  UNL1        0.0421
     12 C           6.4314  -11.5083   28.1489 C.ar    1  UNL1        0.1723
     13 N           6.9249  -12.6599   28.9738 N.ar    1  UNL1       -0.0726
     14 O           5.7748  -13.5968   29.1966 O.2     1  UNL1       -0.3520
     15 C           4.5706  -13.0242   28.5095 C.ar    1  UNL1        0.1904
     16 C           3.2011  -13.6351   28.4757 C.ar    1  UNL1        0.1181
     17 C           1.9864  -12.7571   28.5376 C.ar    1  UNL1        0.0223
     18 C           0.6169  -13.3679   28.5039 C.ar    1  UNL1        0.0032
     19 C           0.4619  -14.8569   28.4083 C.ar    1  UNL1        0.0207
     20 C           1.6765  -15.7348   28.3464 C.ar    1  UNL1        0.0989
     21 N           3.0461  -15.1240   28.3801 N.ar    1  UNL1       -0.2407
     22 C           8.0857   -4.2799   25.7689 C.3     1  UNL1        0.1274
     23 C           9.1989   -3.4446   26.3285 C.3     1  UNL1        0.0312
     24 C           6.9616   -3.6271   25.0202 C.ar    1  UNL1        0.0038
     25 C           6.6864   -4.0106   23.5964 C.ar    1  UNL1       -0.0025
     26 C           5.5623   -3.3578   22.8479 C.ar    1  UNL1        0.0036
     27 C           4.7136   -2.3216   23.5230 C.ar    1  UNL1        0.0714
     28 C           4.9889   -1.9381   24.9468 C.ar    1  UNL1        0.0074
     29 C           6.1129   -2.5909   25.6954 C.ar    1  UNL1        0.0692
     30 C           3.5895   -1.6688   22.7744 C.3     1  UNL1        0.4186
     31 F           2.4655   -1.0161   22.0258 F       1  UNL1       -0.1659
     32 F           3.9723   -2.4273   21.5382 F       1  UNL1       -0.1659
     33 F           3.2067   -0.9103   24.0105 F       1  UNL1       -0.1659
     34 C           6.3882   -2.2074   27.1192 C.3     1  UNL1        0.4183
     35 F           6.6635   -1.8239   28.5430 F       1  UNL1       -0.1659
     36 F           7.0595   -0.9505   26.6508 F       1  UNL1       -0.1659
     37 F           5.7169   -3.4644   27.5876 F       1  UNL1       -0.1659
@<TRIPOS>BOND
     1    10    11    1
     2    11    12   ar
     3    12     6    1
     4     6     7    2
     5     6     8   am
     6     8     1    1
     7     1     2   ar
     8     2     3   ar
     9     3     4   ar
    10     4    22    1
    11    22    23    1
    12    22    24    1
    13    24    25   ar
    14    25    26   ar
    15    26    27   ar
    16    27    30    1
    17    30    31    1
    18    30    32    1
    19    30    33    1
    20    27    28   ar
    21    28    29   ar
    22    29    34    1
    23    34    35    1
    24    34    36    1
    25    34    37    1
    26     4     5   ar
    27    12    13   ar
    28    13    14   ar
    29    14    15   ar
    30    15    16    1
    31    16    17   ar
    32    17    18   ar
    33    18    19   ar
    34    19    20   ar
    35    20    21   ar
    36    15    11   ar
    37    21    16   ar
    38     5     1   ar
    39    29    24   ar
    40     8     9    1
@<TRIPOS>MOLECULE
*****
 37 40 0 0 0
SMALL
GASTEIGER

@<TRIPOS>ATOM
      1 C           0.8719    1.3584   24.4228 C.ar    1  UNL1        0.0908
      2 C           2.0735    0.9520   25.2234 C.ar    1  UNL1        0.1363
      3 N           3.2034    0.7019   24.2691 N.ar    1  UNL1       -0.1661
      4 N           2.7001    0.9537   22.8786 N.ar    1  UNL1       -0.2459
      5 C           1.2592    1.3594   22.9736 C.ar    1  UNL1        0.1116
      6 C          -0.9823    3.1145   24.9003 C.2     1  UNL1        0.2703
      7 O          -0.1332    4.1811   24.2745 O.2     1  UNL1       -0.2681
      8 N          -0.4797    1.7031   24.9744 N.am    1  UNL1       -0.2766
      9 H          -1.0370    1.0031   25.3851 H       1  UNL1        0.1553
     10 C          -3.4621    4.4172   23.2260 C.3     1  UNL1        0.0362
     11 C          -3.4737    4.0580   24.6823 C.ar    1  UNL1        0.0421
     12 C          -2.3339    3.4593   25.4519 C.ar    1  UNL1        0.1723
     13 N          -2.7829    3.2658   26.8700 N.ar    1  UNL1       -0.0726
     14 O          -4.2003    3.7450   26.9768 O.2     1  UNL1       -0.3520
     15 C          -4.6272    4.2346   25.6248 C.ar    1  UNL1        0.1904
     16 C          -5.9716    4.8013   25.2764 C.ar    1  UNL1        0.1181
     17 C          -6.5470    5.9222   26.0905 C.ar    1  UNL1        0.0223
     18 C          -7.8913    6.4889   25.7421 C.ar    1  UNL1        0.0032
     19 C          -8.6605    5.9348   24.5796 C.ar    1  UNL1        0.0207
     20 C          -8.0851    4.8140   23.7655 C.ar    1  UNL1        0.0989
     21 N          -6.7407    4.2472   24.1138 N.ar    1  UNL1       -0.2407
     22 C           3.4978    0.8227   21.6150 C.3     1  UNL1        0.1274
     23 C           4.0370    2.0478   20.9381 C.3     1  UNL1        0.0312
     24 C           3.7562   -0.5335   21.0284 C.ar    1  UNL1        0.0038
     25 C           4.9181   -1.3503   21.5108 C.ar    1  UNL1       -0.0025
     26 C           5.1765   -2.7064   20.9241 C.ar    1  UNL1        0.0036
     27 C           4.2730   -3.2457   19.8552 C.ar    1  UNL1        0.0714
     28 C           3.1110   -2.4289   19.3728 C.ar    1  UNL1        0.0074
     29 C           2.8527   -1.0728   19.9594 C.ar    1  UNL1        0.0692
     30 C           4.5314   -4.6018   19.2685 C.3     1  UNL1        0.4186
     31 F           4.7898   -5.9580   18.6819 F       1  UNL1       -0.1659
     32 F           5.9496   -4.5413   19.7533 F       1  UNL1       -0.1659
     33 F           3.1132   -4.6624   18.7838 F       1  UNL1       -0.1659
     34 C           1.6907   -0.2559   19.4771 C.3     1  UNL1        0.4183
     35 F           0.5288    0.5609   18.9947 F       1  UNL1       -0.1659
     36 F           2.5637    0.3666   18.4282 F       1  UNL1       -0.1659
     37 F           0.8176   -0.8784   20.5260 F       1  UNL1       -0.1659
@<TRIPOS>BOND
     1    10    11    1
     2    11    12   ar
     3    12     6    1
     4     6     7    2
     5     6     8   am
     6     8     1    1
     7     1     2   ar
     8     2     3   ar
     9     3     4   ar
    10     4    22    1
    11    22    23    1
    12    22    24    1
    13    24    25   ar
    14    25    26   ar
    15    26    27   ar
    16    27    30    1
    17    30    31    1
    18    30    32    1
    19    30    33    1
    20    27    28   ar
    21    28    29   ar
    22    29    34    1
    23    34    35    1
    24    34    36    1
    25    34    37    1
    26     4     5   ar
    27    12    13   ar
    28    13    14   ar
    29    14    15   ar
    30    15    16    1
    31    16    17   ar
    32    17    18   ar
    33    18    19   ar
    34    19    20   ar
    35    20    21   ar
    36    15    11   ar
    37    21    16   ar
    38     5     1   ar
    39    29    24   ar
    40     8     9    1
@<TRIPOS>MOLECULE
*****
 37 40 0 0 0
SMALL
GASTEIGER

@<TRIPOS>ATOM
      1 C           1.2763    1.0188   25.2366 C.ar    1  UNL1        0.0908
      2 C           0.1806    1.2798   24.2460 C.ar    1  UNL1        0.1363
      3 N           0.7798    1.2415   22.8714 N.ar    1  UNL1       -0.1661
      4 N           2.2458    0.9569   23.0124 N.ar    1  UNL1       -0.2459
      5 C           2.5526    0.8192   24.4742 C.ar    1  UNL1        0.1116
      6 C           0.6051    2.1623   27.4708 C.2     1  UNL1        0.2703
      7 O           0.2412    3.4104   26.7227 O.2     1  UNL1       -0.2681
      8 N           1.1227    0.9665   26.7278 N.am    1  UNL1       -0.2766
      9 H           1.3616    0.1473   27.2189 H       1  UNL1        0.1553
     10 C           1.6748    4.4025   29.5891 C.3     1  UNL1        0.0362
     11 C           0.9432    3.1397   29.9357 C.ar    1  UNL1        0.0421
     12 C           0.4515    2.1100   28.9620 C.ar    1  UNL1        0.1723
     13 N          -0.2208    1.0187   29.7413 N.ar    1  UNL1       -0.0726
     14 O          -0.1445    1.3741   31.1967 O.2     1  UNL1       -0.3520
     15 C           0.5748    2.6848   31.3168 C.ar    1  UNL1        0.1904
     16 C           0.8734    3.4130   32.5938 C.ar    1  UNL1        0.1181
     17 C           0.1880    4.7132   32.8936 C.ar    1  UNL1        0.0223
     18 C           0.4866    5.4414   34.1705 C.ar    1  UNL1        0.0032
     19 C           1.4704    4.8694   35.1477 C.ar    1  UNL1        0.0207
     20 C           2.1557    3.5692   34.8479 C.ar    1  UNL1        0.0989
     21 N           1.8572    2.8409   33.5709 N.ar    1  UNL1       -0.2407
     22 C           3.2317    0.8319   21.8889 C.3     1  UNL1        0.1274
     23 C           3.9453    2.0485   21.3784 C.3     1  UNL1        0.0312
     24 C           3.5042   -0.5099   21.2760 C.ar    1  UNL1        0.0038
     25 C           4.5697   -1.3949   21.8515 C.ar    1  UNL1       -0.0025
     26 C           4.8421   -2.7366   21.2385 C.ar    1  UNL1        0.0036
     27 C           4.0489   -3.1932   20.0501 C.ar    1  UNL1        0.0714
     28 C           2.9833   -2.3081   19.4746 C.ar    1  UNL1        0.0074
     29 C           2.7110   -0.9665   20.0875 C.ar    1  UNL1        0.0692
     30 C           4.3213   -4.5349   19.4371 C.3     1  UNL1        0.4186
     31 F           4.5938   -5.8765   18.8242 F       1  UNL1       -0.1659
     32 F           2.8483   -4.7499   19.2530 F       1  UNL1       -0.1659
     33 F           5.7943   -4.3199   19.6212 F       1  UNL1       -0.1659
     34 C           1.6454   -0.0813   19.5121 C.3     1  UNL1        0.4183
     35 F           0.5798    0.8037   18.9367 F       1  UNL1       -0.1659
     36 F           0.6121   -0.7884   20.3381 F       1  UNL1       -0.1659
     37 F           2.6786    0.6257   18.6860 F       1  UNL1       -0.1659
@<TRIPOS>BOND
     1    10    11    1
     2    11    12   ar
     3    12     6    1
     4     6     7    2
     5     6     8   am
     6     8     1    1
     7     1     2   ar
     8     2     3   ar
     9     3     4   ar
    10     4    22    1
    11    22    23    1
    12    22    24    1
    13    24    25   ar
    14    25    26   ar
    15    26    27   ar
    16    27    30    1
    17    30    31    1
    18    30    32    1
    19    30    33    1
    20    27    28   ar
    21    28    29   ar
    22    29    34    1
    23    34    35    1
    24    34    36    1
    25    34    37    1
    26     4     5   ar
    27    12    13   ar
    28    13    14   ar
    29    14    15   ar
    30    15    16    1
    31    16    17   ar
    32    17    18   ar
    33    18    19   ar
    34    19    20   ar
    35    20    21   ar
    36    15    11   ar
    37    21    16   ar
    38     5     1   ar
    39    29    24   ar
    40     8     9    1
@<TRIPOS>MOLECULE
*****
 37 40 0 0 0
SMALL
GASTEIGER

@<TRIPOS>ATOM
      1 C           4.0997    1.5430   24.7261 C.ar    1  UNL1        0.0908
      2 C           5.2802    2.3654   24.3018 C.ar    1  UNL1        0.1363
      3 N           5.3948    2.2762   22.8089 N.ar    1  UNL1       -0.1661
      4 N           4.2851    1.3986   22.3104 N.ar    1  UNL1       -0.2459
      5 C           3.4847    0.9455   23.4953 C.ar    1  UNL1        0.1116
      6 C           3.6113   -0.0185   26.7443 C.2     1  UNL1        0.2703
      7 O           4.0851   -1.1973   25.9468 O.2     1  UNL1       -0.2681
      8 N           3.6186    1.3517   26.1339 N.am    1  UNL1       -0.2766
      9 H           3.3077    2.1254   26.6573 H       1  UNL1        0.1553
     10 C           5.4873   -0.1501   29.4113 C.3     1  UNL1        0.0362
     11 C           3.9925   -0.2703   29.3779 C.ar    1  UNL1        0.0421
     12 C           3.1302   -0.2098   28.1521 C.ar    1  UNL1        0.1723
     13 N           1.7023   -0.3742   28.5811 N.ar    1  UNL1       -0.0726
     14 O           1.6821   -0.5363   30.0723 O.2     1  UNL1       -0.3520
     15 C           3.0975   -0.4721   30.5647 C.ar    1  UNL1        0.1904
     16 C           3.5403   -0.5891   31.9931 C.ar    1  UNL1        0.1181
     17 C           3.6198    0.6350   32.8564 C.ar    1  UNL1        0.0223
     18 C           4.0625    0.5180   34.2847 C.ar    1  UNL1        0.0032
     19 C           4.4258   -0.8231   34.8499 C.ar    1  UNL1        0.0207
     20 C           4.3463   -2.0472   33.9866 C.ar    1  UNL1        0.0989
     21 N           3.9036   -1.9303   32.5582 N.ar    1  UNL1       -0.2407
     22 C           4.0220    1.0376   20.8785 C.3     1  UNL1        0.1274
     23 C           3.6056    2.0974   19.9021 C.3     1  UNL1        0.0312
     24 C           4.1754   -0.3834   20.4229 C.ar    1  UNL1        0.0038
     25 C           5.5417   -0.9925   20.3132 C.ar    1  UNL1       -0.0025
     26 C           5.6950   -2.4134   19.8577 C.ar    1  UNL1        0.0036
     27 C           4.4820   -3.2251   19.5119 C.ar    1  UNL1        0.0714
     28 C           3.1156   -2.6160   19.6216 C.ar    1  UNL1        0.0074
     29 C           2.9623   -1.1952   20.0771 C.ar    1  UNL1        0.0692
     30 C           4.6353   -4.6461   19.0563 C.3     1  UNL1        0.4186
     31 F           4.7887   -6.0670   18.6008 F       1  UNL1       -0.1659
     32 F           3.2036   -4.6573   18.6090 F       1  UNL1       -0.1659
     33 F           6.0670   -4.6349   19.5036 F       1  UNL1       -0.1659
     34 C           1.5960   -0.5860   20.1869 C.3     1  UNL1        0.4183
     35 F           0.2297    0.0232   20.2965 F       1  UNL1       -0.1659
     36 F           1.6217   -0.2645   18.7220 F       1  UNL1       -0.1659
     37 F           1.5702   -0.9074   21.6517 F       1  UNL1       -0.1659
@<TRIPOS>BOND
     1    10    11    1
     2    11    12   ar
     3    12     6    1
     4     6     7    2
     5     6     8   am
     6     8     1    1
     7     1     2   ar
     8     2     3   ar
     9     3     4   ar
    10     4    22    1
    11    22    23    1
    12    22    24    1
    13    24    25   ar
    14    25    26   ar
    15    26    27   ar
    16    27    30    1
    17    30    31    1
    18    30    32    1
    19    30    33    1
    20    27    28   ar
    21    28    29   ar
    22    29    34    1
    23    34    35    1
    24    34    36    1
    25    34    37    1
    26     4     5   ar
    27    12    13   ar
    28    13    14   ar
    29    14    15   ar
    30    15    16    1
    31    16    17   ar
    32    17    18   ar
    33    18    19   ar
    34    19    20   ar
    35    20    21   ar
    36    15    11   ar
    37    21    16   ar
    38     5     1   ar
    39    29    24   ar
    40     8     9    1
@<TRIPOS>MOLECULE
*****
 37 40 0 0 0
SMALL
GASTEIGER

@<TRIPOS>ATOM
      1 C           0.2459    2.5447   22.8172 C.ar    1  UNL1        0.0908
      2 C           0.5410    1.3793   23.7143 C.ar    1  UNL1        0.1363
      3 N           1.7886    0.7136   23.2142 N.ar    1  UNL1       -0.1661
      4 N           2.2647    1.4675   22.0079 N.ar    1  UNL1       -0.2459
      5 C           1.3112    2.5992   21.7626 C.ar    1  UNL1        0.1116
      6 C          -2.0154    3.4719   21.9360 C.2     1  UNL1        0.2703
      7 O          -1.9624    2.5092   20.7870 O.2     1  UNL1       -0.2681
      8 N          -0.9113    3.4897   22.9512 N.am    1  UNL1       -0.2766
      9 H          -0.9461    4.1215   23.7054 H       1  UNL1        0.1553
     10 C          -4.5395    3.1366   23.9772 C.3     1  UNL1        0.0362
     11 C          -4.3328    4.2628   23.0082 C.ar    1  UNL1        0.0421
     12 C          -3.1726    4.4169   22.0700 C.ar    1  UNL1        0.1723
     13 N          -3.3727    5.6820   21.2892 N.ar    1  UNL1       -0.0726
     14 O          -4.6566    6.3097   21.7449 O.2     1  UNL1       -0.3520
     15 C          -5.2499    5.4326   22.8072 C.ar    1  UNL1        0.1904
     16 C          -6.5349    5.6816   23.5400 C.ar    1  UNL1        0.1181
     17 C          -7.6462    4.6766   23.4680 C.ar    1  UNL1        0.0223
     18 C          -8.9311    4.9256   24.2007 C.ar    1  UNL1        0.0032
     19 C          -9.1048    6.1794   25.0056 C.ar    1  UNL1        0.0207
     20 C          -7.9934    7.1842   25.0777 C.ar    1  UNL1        0.0989
     21 N          -6.7084    6.9353   24.3449 N.ar    1  UNL1       -0.2407
     22 C           3.4806    1.1461   21.1906 C.3     1  UNL1        0.1274
     23 C           4.4649    2.2267   20.8537 C.3     1  UNL1        0.0312
     24 C           3.7123   -0.2559   20.7101 C.ar    1  UNL1        0.0038
     25 C           4.6996   -1.1371   21.4161 C.ar    1  UNL1       -0.0025
     26 C           4.9312   -2.5391   20.9356 C.ar    1  UNL1        0.0036
     27 C           4.1756   -3.0597   19.7491 C.ar    1  UNL1        0.0714
     28 C           3.1883   -2.1784   19.0430 C.ar    1  UNL1        0.0074
     29 C           2.9567   -0.7765   19.5235 C.ar    1  UNL1        0.0692
     30 C           4.4073   -4.4617   19.2686 C.3     1  UNL1        0.4186
     31 F           4.6390   -5.8636   18.7881 F       1  UNL1       -0.1659
     32 F           2.9643   -4.5644   18.8723 F       1  UNL1       -0.1659
     33 F           5.8503   -4.3590   19.6649 F       1  UNL1       -0.1659
     34 C           1.9694    0.1049   18.8174 C.3     1  UNL1        0.4183
     35 F           0.9822    0.9862   18.1113 F       1  UNL1       -0.1659
     36 F           3.0587    0.6008   17.9133 F       1  UNL1       -0.1659
     37 F           0.8801   -0.3910   19.7214 F       1  UNL1       -0.1659
@<TRIPOS>BOND
     1    10    11    1
     2    11    12   ar
     3    12     6    1
     4     6     7    2
     5     6     8   am
     6     8     1    1
     7     1     2   ar
     8     2     3   ar
     9     3     4   ar
    10     4    22    1
    11    22    23    1
    12    22    24    1
    13    24    25   ar
    14    25    26   ar
    15    26    27   ar
    16    27    30    1
    17    30    31    1
    18    30    32    1
    19    30    33    1
    20    27    28   ar
    21    28    29   ar
    22    29    34    1
    23    34    35    1
    24    34    36    1
    25    34    37    1
    26     4     5   ar
    27    12    13   ar
    28    13    14   ar
    29    14    15   ar
    30    15    16    1
    31    16    17   ar
    32    17    18   ar
    33    18    19   ar
    34    19    20   ar
    35    20    21   ar
    36    15    11   ar
    37    21    16   ar
    38     5     1   ar
    39    29    24   ar
    40     8     9    1
@<TRIPOS>MOLECULE
*****
 37 40 0 0 0
SMALL
GASTEIGER

@<TRIPOS>ATOM
      1 C           5.4627   -2.4201   24.2407 C.ar    1  UNL1        0.0908
      2 C           6.6247   -3.3209   23.9433 C.ar    1  UNL1        0.1363
      3 N           7.0398   -3.0877   22.5209 N.ar    1  UNL1       -0.1661
      4 N           6.1345   -2.0428   21.9391 N.ar    1  UNL1       -0.2459
      5 C           5.1598   -1.6302   23.0020 C.ar    1  UNL1        0.1116
      6 C           5.0106   -1.1860   26.4817 C.2     1  UNL1        0.2703
      7 O           6.0199   -0.1406   26.1096 O.2     1  UNL1       -0.2681
      8 N           4.7320   -2.3257   25.5472 N.am    1  UNL1       -0.2766
      9 H           4.0695   -3.0119   25.7914 H       1  UNL1        0.1553
     10 C           6.3813   -0.9237   29.4316 C.3     1  UNL1        0.0362
     11 C           4.9099   -0.9711   29.1442 C.ar    1  UNL1        0.0421
     12 C           4.2798   -1.0916   27.7883 C.ar    1  UNL1        0.1723
     13 N           2.7906   -1.1012   27.9682 N.ar    1  UNL1       -0.0726
     14 O           2.5004   -0.9866   29.4355 O.2     1  UNL1       -0.3520
     15 C           3.8101   -0.9062   30.1622 C.ar    1  UNL1        0.1904
     16 C           3.9888   -0.7826   31.6464 C.ar    1  UNL1        0.1181
     17 C           4.3993   -1.9778   32.4545 C.ar    1  UNL1        0.0223
     18 C           4.5780   -1.8542   33.9386 C.ar    1  UNL1        0.0032
     19 C           4.3461   -0.5354   34.6148 C.ar    1  UNL1        0.0207
     20 C           3.9356    0.6597   33.8067 C.ar    1  UNL1        0.0989
     21 N           3.7569    0.5362   32.3224 N.ar    1  UNL1       -0.2407
     22 C           6.1935   -1.5049   20.5401 C.3     1  UNL1        0.1274
     23 C           7.3912   -1.7811   19.6803 C.3     1  UNL1        0.0312
     24 C           5.0547   -0.6909   20.0009 C.ar    1  UNL1        0.0038
     25 C           4.9904    0.7825   20.2746 C.ar    1  UNL1       -0.0025
     26 C           3.8517    1.5964   19.7354 C.ar    1  UNL1        0.0036
     27 C           2.7773    0.9369   18.9225 C.ar    1  UNL1        0.0714
     28 C           2.8416   -0.5364   18.6487 C.ar    1  UNL1        0.0074
     29 C           3.9804   -1.3504   19.1879 C.ar    1  UNL1        0.0692
     30 C           1.6385    1.7510   18.3833 C.3     1  UNL1        0.4186
     31 F           0.4998    2.5649   17.8441 F       1  UNL1       -0.1659
     32 F           2.3623    3.0107   18.7563 F       1  UNL1       -0.1659
     33 F           0.9147    0.4913   18.0102 F       1  UNL1       -0.1659
     34 C           4.0448   -2.8238   18.9142 C.3     1  UNL1        0.4183
     35 F           4.1091   -4.2972   18.6405 F       1  UNL1       -0.1659
     36 F           3.2621   -3.0905   20.1657 F       1  UNL1       -0.1659
     37 F           4.8275   -2.5572   17.6627 F       1  UNL1       -0.1659
@<TRIPOS>BOND
     1    10    11    1
     2    11    12   ar
     3    12     6    1
     4     6     7    2
     5     6     8   am
     6     8     1    1
     7     1     2   ar
     8     2     3   ar
     9     3     4   ar
    10     4    22    1
    11    22    23    1
    12    22    24    1
    13    24    25   ar
    14    25    26   ar
    15    26    27   ar
    16    27    30    1
    17    30    31    1
    18    30    32    1
    19    30    33    1
    20    27    28   ar
    21    28    29   ar
    22    29    34    1
    23    34    35    1
    24    34    36    1
    25    34    37    1
    26     4     5   ar
    27    12    13   ar
    28    13    14   ar
    29    14    15   ar
    30    15    16    1
    31    16    17   ar
    32    17    18   ar
    33    18    19   ar
    34    19    20   ar
    35    20    21   ar
    36    15    11   ar
    37    21    16   ar
    38     5     1   ar
    39    29    24   ar
    40     8     9    1
@<TRIPOS>MOLECULE
*****
 37 40 0 0 0
SMALL
GASTEIGER

@<TRIPOS>ATOM
      1 C          -3.3298    3.5517   25.6447 C.ar    1  UNL1        0.0908
      2 C          -2.6252    3.4794   24.3225 C.ar    1  UNL1        0.1363
      3 N          -1.2434    2.9471   24.5621 N.ar    1  UNL1       -0.1661
      4 N          -1.0941    2.6903   26.0324 N.ar    1  UNL1       -0.2459
      5 C          -2.3835    3.0640   26.7015 C.ar    1  UNL1        0.1116
      6 C          -5.1276    5.4192   25.4711 C.2     1  UNL1        0.2703
      7 O          -4.1167    6.3342   24.8458 O.2     1  UNL1       -0.2681
      8 N          -4.7341    4.0280   25.8706 N.am    1  UNL1       -0.2766
      9 H          -5.3976    3.4275   26.2810 H       1  UNL1        0.1553
     10 C          -7.7290    4.6504   23.6570 C.3     1  UNL1        0.0362
     11 C          -7.7276    5.5421   24.8631 C.ar    1  UNL1        0.0421
     12 C          -6.5319    5.8956   25.6969 C.ar    1  UNL1        0.1723
     13 N          -6.9870    6.8089   26.7964 N.ar    1  UNL1       -0.0726
     14 O          -8.4641    7.0200   26.6419 O.2     1  UNL1       -0.3520
     15 C          -8.9217    6.2371   25.4471 C.ar    1  UNL1        0.1904
     16 C         -10.3269    6.1622   24.9276 C.ar    1  UNL1        0.1181
     17 C         -10.9267    7.3381   24.2150 C.ar    1  UNL1        0.0223
     18 C         -12.3318    7.2633   23.6954 C.ar    1  UNL1        0.0032
     19 C         -13.1372    6.0126   23.8884 C.ar    1  UNL1        0.0207
     20 C         -12.5374    4.8368   24.6009 C.ar    1  UNL1        0.0989
     21 N         -11.1323    4.9116   25.1206 N.ar    1  UNL1       -0.2407
     22 C           0.1298    2.1541   26.7140 C.3     1  UNL1        0.1274
     23 C           1.1222    1.3378   25.9402 C.3     1  UNL1        0.0312
     24 C           0.3613    2.4342   28.1693 C.ar    1  UNL1        0.0038
     25 C           1.0057    3.7211   28.5922 C.ar    1  UNL1       -0.0025
     26 C           1.2372    4.0011   30.0475 C.ar    1  UNL1        0.0036
     27 C           0.8243    2.9944   31.0799 C.ar    1  UNL1        0.0714
     28 C           0.1799    1.7076   30.6571 C.ar    1  UNL1        0.0074
     29 C          -0.0516    1.4275   29.2018 C.ar    1  UNL1        0.0692
     30 C           1.0558    3.2745   32.5353 C.3     1  UNL1        0.4186
     31 F           1.2872    3.5547   33.9906 F       1  UNL1       -0.1659
     32 F           2.2703    2.3947   32.5115 F       1  UNL1       -0.1659
     33 F          -0.1588    4.1544   32.5591 F       1  UNL1       -0.1659
     34 C          -0.6960    0.1406   28.7789 C.3     1  UNL1        0.4183
     35 F          -1.3403   -1.1462   28.3560 F       1  UNL1       -0.1659
     36 F           0.6536   -0.5093   28.7004 F       1  UNL1       -0.1659
     37 F          -2.0455    0.7905   28.8574 F       1  UNL1       -0.1659
@<TRIPOS>BOND
     1    10    11    1
     2    11    12   ar
     3    12     6    1
     4     6     7    2
     5     6     8   am
     6     8     1    1
     7     1     2   ar
     8     2     3   ar
     9     3     4   ar
    10     4    22    1
    11    22    23    1
    12    22    24    1
    13    24    25   ar
    14    25    26   ar
    15    26    27   ar
    16    27    30    1
    17    30    31    1
    18    30    32    1
    19    30    33    1
    20    27    28   ar
    21    28    29   ar
    22    29    34    1
    23    34    35    1
    24    34    36    1
    25    34    37    1
    26     4     5   ar
    27    12    13   ar
    28    13    14   ar
    29    14    15   ar
    30    15    16    1
    31    16    17   ar
    32    17    18   ar
    33    18    19   ar
    34    19    20   ar
    35    20    21   ar
    36    15    11   ar
    37    21    16   ar
    38     5     1   ar
    39    29    24   ar
    40     8     9    1
