@<TRIPOS>MOLECULE
*****
 42 45 0 0 0
SMALL
GASTEIGER

@<TRIPOS>ATOM
      1 C           0.6099    2.0104   26.9635 C.ar    1  UNL1        0.0053
      2 C          -0.6016    2.4075   26.1732 C.ar    1  UNL1        0.0033
      3 C          -0.6498    2.1528   24.6958 C.ar    1  UNL1        0.0382
      4 C           0.5134    1.5009   24.0087 C.ar    1  UNL1        0.1529
      5 C           1.7248    1.1038   24.7990 C.ar    1  UNL1        0.0882
      6 C           1.7731    1.3585   26.2764 C.ar    1  UNL1        0.0181
      7 N           2.8880    0.4519   24.1120 N.am    1  UNL1       -0.2512
      8 C           2.8397    0.1972   22.6346 C.2     1  UNL1        0.2698
      9 O           4.0029   -0.4547   21.9475 O.2     1  UNL1       -0.2704
     10 C           1.6283    0.5944   21.8442 C.3     1  UNL1        0.2199
     11 C           0.7100    0.7885   20.6741 C.3     1  UNL1        0.0579
     12 O           0.4651    1.2462   22.5312 O.3     1  UNL1       -0.4686
     13 C           0.2924    1.1736   29.4026 C.ar    1  UNL1        0.0645
     14 N           0.3406    1.4282   30.8800 N.ar    1  UNL1       -0.2183
     15 C           0.7547    2.7745   31.3959 C.ar    1  UNL1        0.2145
     16 N           0.8030    3.0292   32.8733 N.pl3   1  UNL1       -0.3274
     17 N           1.1205    3.8661   30.4343 N.ar    1  UNL1       -0.1995
     18 C           1.0722    3.6114   28.9568 C.ar    1  UNL1        0.1293
     19 N           1.4380    4.7030   27.9952 N.pl3   1  UNL1       -0.3425
     20 C           0.6582    2.2651   28.4410 C.ar    1  UNL1        0.0449
     21 H           0.5629    2.3127   33.5044 H       1  UNL1        0.1452
     22 H           1.0748    3.9128   33.2119 H       1  UNL1        0.1452
     23 H           1.7098    5.5866   28.3338 H       1  UNL1        0.1437
     24 H           1.4063    4.5358   27.0255 H       1  UNL1        0.1437
     25 C          -1.5727   -0.5524   28.8612 C.3     1  UNL1        0.0067
     26 C          -0.1217   -0.1728   28.8867 C.3     1  UNL1        0.0460
     27 C           2.4725    0.0099   20.7508 C.ar    1  UNL1        0.0264
     28 C           3.3684    0.8979   19.9390 C.ar    1  UNL1        0.0293
     29 C           4.2127    0.3134   18.8455 C.ar    1  UNL1        0.1422
     30 F           5.1085    1.2015   18.0338 F       1  UNL1       -0.2041
     31 C           4.1612   -1.1589   18.5639 C.ar    1  UNL1        0.0592
     32 C           3.2653   -2.0469   19.3757 C.ar    1  UNL1        0.1422
     33 F           3.2138   -3.5193   19.0940 F       1  UNL1       -0.2041
     34 C           2.4210   -1.4625   20.4691 C.ar    1  UNL1        0.0293
     35 C           4.0994    0.0548   24.9023 C.3     1  UNL1        0.1197
     36 C           4.1754   -1.3079   25.5246 C.3     1  UNL1        0.1145
     37 N           3.4399   -1.5917   26.8008 N.am    1  UNL1       -0.2689
     38 C           3.9226   -1.0002   28.0920 C.2     1  UNL1        0.4018
     39 O           5.1406   -0.1248   28.1069 O.2     1  UNL1       -0.2264
     40 H           2.6405   -2.1662   26.7909 H       1  UNL1        0.1528
     41 O           3.1872   -1.2839   29.3681 O.3     1  UNL1       -0.4306
     42 C           3.4521   -0.4513   30.5874 C.3     1  UNL1        0.2573
@<TRIPOS>BOND
     1    25    26    1
     2    26    13    1
     3    13    14   ar
     4    14    15   ar
     5    15    16    1
     6    15    17   ar
     7    17    18   ar
     8    18    19    1
     9    18    20   ar
    10    20     1    1
    11     1     2   ar
    12     2     3   ar
    13     3     4   ar
    14     4     5   ar
    15     5     6   ar
    16     5     7    1
    17     7    35    1
    18    35    36    1
    19    36    37    1
    20    37    38   am
    21    38    39    2
    22    38    41    1
    23    41    42    1
    24     7     8   am
    25     8     9    2
    26     8    10    1
    27    10    11    1
    28    10    27    1
    29    27    28   ar
    30    28    29   ar
    31    29    30    1
    32    29    31   ar
    33    31    32   ar
    34    32    33    1
    35    32    34   ar
    36    10    12    1
    37    20    13   ar
    38     6     1   ar
    39    34    27   ar
    40    12     4    1
    41    16    21    1
    42    16    22    1
    43    19    23    1
    44    19    24    1
    45    37    40    1
@<TRIPOS>MOLECULE
*****
 42 45 0 0 0
SMALL
GASTEIGER

@<TRIPOS>ATOM
      1 C           0.6736    1.9252   26.9368 C.ar    1  UNL1        0.0053
      2 C          -0.5266    2.3684   26.1538 C.ar    1  UNL1        0.0033
      3 C          -0.5862    2.1308   24.6740 C.ar    1  UNL1        0.0382
      4 C           0.5543    1.4501   23.9771 C.ar    1  UNL1        0.1529
      5 C           1.7545    1.0069   24.7600 C.ar    1  UNL1        0.0882
      6 C           1.8142    1.2445   26.2399 C.ar    1  UNL1        0.0181
      7 N           2.8951    0.3262   24.0631 N.am    1  UNL1       -0.2512
      8 C           2.8355    0.0886   22.5833 C.2     1  UNL1        0.2698
      9 O           3.9761   -0.5921   21.8864 O.2     1  UNL1       -0.2704
     10 C           1.6352    0.5318   21.8003 C.3     1  UNL1        0.2199
     11 C           0.7208    0.7669   20.6347 C.3     1  UNL1        0.0579
     12 O           0.4946    1.2125   22.4972 O.3     1  UNL1       -0.4686
     13 C           0.2690    1.0986   29.3664 C.ar    1  UNL1        0.0645
     14 N           0.3286    1.3361   30.8463 N.ar    1  UNL1       -0.2183
     15 C           0.8526    2.6378   31.3765 C.ar    1  UNL1        0.2145
     16 N           0.9123    2.8753   32.8563 N.pl3   1  UNL1       -0.3274
     17 N           1.3169    3.7020   30.4268 N.ar    1  UNL1       -0.1995
     18 C           1.2572    3.4644   28.9468 C.ar    1  UNL1        0.1293
     19 N           1.7215    4.5286   27.9971 N.pl3   1  UNL1       -0.3425
     20 C           0.7333    2.1628   28.4167 C.ar    1  UNL1        0.0449
     21 H           0.6075    2.1769   33.4796 H       1  UNL1        0.1452
     22 H           1.2562    3.7296   33.2043 H       1  UNL1        0.1452
     23 H           2.0654    5.3829   28.3451 H       1  UNL1        0.1437
     24 H           1.6824    4.3727   27.0258 H       1  UNL1        0.1437
     25 C          -1.7135   -0.5307   28.9601 C.3     1  UNL1        0.0067
     26 C          -0.2550   -0.2031   28.8362 C.3     1  UNL1        0.0460
     27 C           2.4582   -0.0673   20.6986 C.ar    1  UNL1        0.0264
     28 C           3.3290    0.8113   19.8502 C.ar    1  UNL1        0.0293
     29 C           4.1521    0.2122   18.7485 C.ar    1  UNL1        0.1422
     30 F           5.0229    1.0909   17.9001 F       1  UNL1       -0.2041
     31 C           4.1043   -1.2654   18.4952 C.ar    1  UNL1        0.0592
     32 C           3.2335   -2.1440   19.3436 C.ar    1  UNL1        0.1422
     33 F           3.1857   -3.6217   19.0903 F       1  UNL1       -0.2041
     34 C           2.4105   -1.5450   20.4453 C.ar    1  UNL1        0.0293
     35 C           4.0953   -0.1170   24.8461 C.3     1  UNL1        0.1197
     36 C           4.3303   -1.5772   25.0962 C.3     1  UNL1        0.1145
     37 N           4.5790   -2.5050   23.9440 N.am    1  UNL1       -0.2689
     38 C           5.8086   -3.3639   23.9246 C.2     1  UNL1        0.4018
     39 O           6.7895   -3.2951   25.0574 O.2     1  UNL1       -0.2264
     40 H           3.9352   -2.5501   23.2005 H       1  UNL1        0.1528
     41 O           6.0573   -4.2917   22.7725 O.3     1  UNL1       -0.4306
     42 C           5.9256   -3.7912   21.3646 C.3     1  UNL1        0.2573
@<TRIPOS>BOND
     1    25    26    1
     2    26    13    1
     3    13    14   ar
     4    14    15   ar
     5    15    16    1
     6    15    17   ar
     7    17    18   ar
     8    18    19    1
     9    18    20   ar
    10    20     1    1
    11     1     2   ar
    12     2     3   ar
    13     3     4   ar
    14     4     5   ar
    15     5     6   ar
    16     5     7    1
    17     7    35    1
    18    35    36    1
    19    36    37    1
    20    37    38   am
    21    38    39    2
    22    38    41    1
    23    41    42    1
    24     7     8   am
    25     8     9    2
    26     8    10    1
    27    10    11    1
    28    10    27    1
    29    27    28   ar
    30    28    29   ar
    31    29    30    1
    32    29    31   ar
    33    31    32   ar
    34    32    33    1
    35    32    34   ar
    36    10    12    1
    37    20    13   ar
    38     6     1   ar
    39    34    27   ar
    40    12     4    1
    41    16    21    1
    42    16    22    1
    43    19    23    1
    44    19    24    1
    45    37    40    1
@<TRIPOS>MOLECULE
*****
 42 45 0 0 0
SMALL
GASTEIGER

@<TRIPOS>ATOM
      1 C           0.7146    1.9250   26.9678 C.ar    1  UNL1        0.0053
      2 C          -0.4992    2.3526   26.1973 C.ar    1  UNL1        0.0033
      3 C          -0.5628    2.1320   24.7150 C.ar    1  UNL1        0.0382
      4 C           0.5875    1.4838   24.0032 C.ar    1  UNL1        0.1529
      5 C           1.8013    1.0562   24.7737 C.ar    1  UNL1        0.0882
      6 C           1.8649    1.2768   26.2560 C.ar    1  UNL1        0.0181
      7 N           2.9516    0.4080   24.0619 N.am    1  UNL1       -0.2512
      8 C           2.8880    0.1874   22.5796 C.2     1  UNL1        0.2698
      9 O           4.0383   -0.4608   21.8678 O.2     1  UNL1       -0.2704
     10 C           1.6741    0.6150   21.8090 C.3     1  UNL1        0.2199
     11 C           0.7480    0.8453   20.6517 C.3     1  UNL1        0.0579
     12 O           0.5239    1.2632   22.5208 O.3     1  UNL1       -0.4686
     13 C           0.3464    1.0586   29.3894 C.ar    1  UNL1        0.0645
     14 N           0.4100    1.2791   30.8717 N.ar    1  UNL1       -0.2183
     15 C           0.9054    2.5867   31.4149 C.ar    1  UNL1        0.2145
     16 N           0.9690    2.8072   32.8972 N.pl3   1  UNL1       -0.3274
     17 N           1.3372    3.6736   30.4757 N.ar    1  UNL1       -0.1995
     18 C           1.2736    3.4531   28.9933 C.ar    1  UNL1        0.1293
     19 N           1.7054    4.5400   28.0541 N.pl3   1  UNL1       -0.3425
     20 C           0.7782    2.1456   28.4502 C.ar    1  UNL1        0.0449
     21 H           0.6856    2.0938   33.5136 H       1  UNL1        0.1452
     22 H           1.2941    3.6653   33.2537 H       1  UNL1        0.1452
     23 H           2.0305    5.3982   28.4106 H       1  UNL1        0.1437
     24 H           1.6636    4.3953   27.0812 H       1  UNL1        0.1437
     25 C          -1.6070   -0.5915   28.9293 C.3     1  UNL1        0.0067
     26 C          -0.1490   -0.2489   28.8462 C.3     1  UNL1        0.0460
     27 C           2.5028    0.0468   20.6953 C.ar    1  UNL1        0.0264
     28 C           2.4847   -1.4284   20.4244 C.ar    1  UNL1        0.0293
     29 C           3.3134   -1.9966   19.3106 C.ar    1  UNL1        0.1422
     30 F           3.2953   -3.4719   19.0398 F       1  UNL1       -0.2041
     31 C           4.1601   -1.0897   18.4678 C.ar    1  UNL1        0.0592
     32 C           4.1782    0.3855   18.7387 C.ar    1  UNL1        0.1422
     33 F           5.0249    1.2925   17.8958 F       1  UNL1       -0.2041
     34 C           3.3495    0.9538   19.8524 C.ar    1  UNL1        0.0293
     35 C           4.1654   -0.0196   24.8323 C.3     1  UNL1        0.1197
     36 C           4.3874   -1.4715   25.1371 C.3     1  UNL1        0.1145
     37 N           4.5314   -2.4593   24.0174 N.am    1  UNL1       -0.2689
     38 C           5.7637   -3.3092   23.9211 C.2     1  UNL1        0.4018
     39 O           6.8518   -3.1713   24.9443 O.2     1  UNL1       -0.2264
     40 H           3.8173   -2.5498   23.3458 H       1  UNL1        0.1528
     41 O           5.9078   -4.2970   22.8015 O.3     1  UNL1       -0.4306
     42 C           5.7793   -3.8414   21.3781 C.3     1  UNL1        0.2573
@<TRIPOS>BOND
     1    25    26    1
     2    26    13    1
     3    13    14   ar
     4    14    15   ar
     5    15    16    1
     6    15    17   ar
     7    17    18   ar
     8    18    19    1
     9    18    20   ar
    10    20     1    1
    11     1     2   ar
    12     2     3   ar
    13     3     4   ar
    14     4     5   ar
    15     5     6   ar
    16     5     7    1
    17     7    35    1
    18    35    36    1
    19    36    37    1
    20    37    38   am
    21    38    39    2
    22    38    41    1
    23    41    42    1
    24     7     8   am
    25     8     9    2
    26     8    10    1
    27    10    11    1
    28    10    27    1
    29    27    28   ar
    30    28    29   ar
    31    29    30    1
    32    29    31   ar
    33    31    32   ar
    34    32    33    1
    35    32    34   ar
    36    10    12    1
    37    20    13   ar
    38     6     1   ar
    39    34    27   ar
    40    12     4    1
    41    16    21    1
    42    16    22    1
    43    19    23    1
    44    19    24    1
    45    37    40    1
@<TRIPOS>MOLECULE
*****
 42 45 0 0 0
SMALL
GASTEIGER

@<TRIPOS>ATOM
      1 C           0.7556    1.6602   26.6397 C.ar    1  UNL1        0.0053
      2 C          -0.4213    2.1205   25.8317 C.ar    1  UNL1        0.0033
      3 C          -0.4385    1.9130   24.3462 C.ar    1  UNL1        0.0382
      4 C           0.7213    1.2452   23.6688 C.ar    1  UNL1        0.1529
      5 C           1.8983    0.7849   24.4768 C.ar    1  UNL1        0.0882
      6 C           1.9154    0.9924   25.9623 C.ar    1  UNL1        0.0181
      7 N           3.0581    0.1171   23.7994 N.am    1  UNL1       -0.2512
      8 C           3.0409   -0.0904   22.3139 C.2     1  UNL1        0.2698
      9 O           4.2007   -0.7582   21.6365 O.2     1  UNL1       -0.2704
     10 C           1.8640    0.3699   21.5058 C.3     1  UNL1        0.2199
     11 C           0.9836    0.6296   20.3194 C.3     1  UNL1        0.0579
     12 O           0.7042    1.0377   22.1833 O.3     1  UNL1       -0.4686
     13 C           1.3738    3.1155   28.7013 C.ar    1  UNL1        0.0645
     14 N           1.3910    3.3231   30.1867 N.ar    1  UNL1       -0.2183
     15 C           0.8072    2.2828   31.0962 C.ar    1  UNL1        0.2145
     16 N           0.8244    2.4903   32.5816 N.pl3   1  UNL1       -0.3274
     17 N           0.2062    1.0350   30.5201 N.ar    1  UNL1       -0.1995
     18 C           0.1890    0.8275   29.0346 C.ar    1  UNL1        0.1293
     19 N          -0.4120   -0.4203   28.4586 N.pl3   1  UNL1       -0.3425
     20 C           0.7728    1.8677   28.1252 C.ar    1  UNL1        0.0449
     21 H           1.2188    3.3093   32.9597 H       1  UNL1        0.1452
     22 H           0.4412    1.8076   33.1785 H       1  UNL1        0.1452
     23 H          -0.7951   -1.1031   29.0554 H       1  UNL1        0.1437
     24 H          -0.4233   -0.5565   27.4836 H       1  UNL1        0.1437
     25 C           1.1174    5.3131   27.3392 C.3     1  UNL1        0.0067
     26 C           1.9576    4.1558   27.7918 C.3     1  UNL1        0.0460
     27 C           2.7180   -0.2077   20.4164 C.ar    1  UNL1        0.0264
     28 C           2.6784   -1.6803   20.1335 C.ar    1  UNL1        0.0293
     29 C           3.5325   -2.2579   19.0440 C.ar    1  UNL1        0.1422
     30 F           3.4929   -3.7305   18.7611 F       1  UNL1       -0.2041
     31 C           4.4261   -1.3630   18.2375 C.ar    1  UNL1        0.0592
     32 C           4.4657    0.1095   18.5204 C.ar    1  UNL1        0.1422
     33 F           5.3594    1.0044   17.7139 F       1  UNL1       -0.2041
     34 C           3.6117    0.6872   19.6099 C.ar    1  UNL1        0.0293
     35 C           4.2350   -0.3432   24.6074 C.3     1  UNL1        0.1197
     36 C           4.4056   -1.8000   24.9213 C.3     1  UNL1        0.1145
     37 N           4.6651   -2.7801   23.8157 N.am    1  UNL1       -0.2689
     38 C           6.0385   -3.3534   23.6286 C.2     1  UNL1        0.4018
     39 O           7.1525   -2.9467   24.5472 O.2     1  UNL1       -0.2264
     40 H           3.9339   -3.0470   23.2129 H       1  UNL1        0.1528
     41 O           6.2979   -4.3334   22.5231 O.3     1  UNL1       -0.4306
     42 C           6.2679   -3.8776   21.0944 C.3     1  UNL1        0.2573
@<TRIPOS>BOND
     1    25    26    1
     2    26    13    1
     3    13    14   ar
     4    14    15   ar
     5    15    16    1
     6    15    17   ar
     7    17    18   ar
     8    18    19    1
     9    18    20   ar
    10    20     1    1
    11     1     2   ar
    12     2     3   ar
    13     3     4   ar
    14     4     5   ar
    15     5     6   ar
    16     5     7    1
    17     7    35    1
    18    35    36    1
    19    36    37    1
    20    37    38   am
    21    38    39    2
    22    38    41    1
    23    41    42    1
    24     7     8   am
    25     8     9    2
    26     8    10    1
    27    10    11    1
    28    10    27    1
    29    27    28   ar
    30    28    29   ar
    31    29    30    1
    32    29    31   ar
    33    31    32   ar
    34    32    33    1
    35    32    34   ar
    36    10    12    1
    37    20    13   ar
    38     6     1   ar
    39    34    27   ar
    40    12     4    1
    41    16    21    1
    42    16    22    1
    43    19    23    1
    44    19    24    1
    45    37    40    1
@<TRIPOS>MOLECULE
*****
 42 45 0 0 0
SMALL
GASTEIGER

@<TRIPOS>ATOM
      1 C           0.7192    1.7321   26.7871 C.ar    1  UNL1        0.0053
      2 C          -0.4988    2.1613   26.0241 C.ar    1  UNL1        0.0033
      3 C          -0.5643    1.9568   24.5395 C.ar    1  UNL1        0.0382
      4 C           0.5881    1.3232   23.8181 C.ar    1  UNL1        0.1529
      5 C           1.8061    0.8941   24.5812 C.ar    1  UNL1        0.0882
      6 C           1.8717    1.0986   26.0657 C.ar    1  UNL1        0.0181
      7 N           2.9586    0.2605   23.8598 N.am    1  UNL1       -0.2512
      8 C           2.8930    0.0561   22.3752 C.2     1  UNL1        0.2698
      9 O           4.0455   -0.5775   21.6538 O.2     1  UNL1       -0.2704
     10 C           1.6750    0.4852   21.6121 C.3     1  UNL1        0.2199
     11 C           0.7451    0.7230   20.4594 C.3     1  UNL1        0.0579
     12 O           0.5226    1.1188   22.3335 O.3     1  UNL1       -0.4686
     13 C           1.0783    3.2979   28.8291 C.ar    1  UNL1        0.0645
     14 N           1.1439    3.5024   30.3136 N.ar    1  UNL1       -0.2183
     15 C           0.9160    2.3455   31.2409 C.ar    1  UNL1        0.2145
     16 N           0.9816    2.5500   32.7254 N.pl3   1  UNL1       -0.3274
     17 N           0.6224    0.9842   30.6835 N.ar    1  UNL1       -0.1995
     18 C           0.5568    0.7798   29.1989 C.ar    1  UNL1        0.1293
     19 N           0.2633   -0.5816   28.6416 N.pl3   1  UNL1       -0.3425
     20 C           0.7848    1.9366   28.2718 C.ar    1  UNL1        0.0449
     21 H           1.1742    3.4435   33.0912 H       1  UNL1        0.1452
     22 H           0.8320    1.7908   33.3340 H       1  UNL1        0.1452
     23 H           0.1137   -1.3408   29.2502 H       1  UNL1        0.1437
     24 H           0.2203   -0.7158   27.6672 H       1  UNL1        0.1437
     25 C           0.1995    5.4315   27.6350 C.3     1  UNL1        0.0067
     26 C           1.3063    4.4548   27.9018 C.3     1  UNL1        0.0460
     27 C           2.5045   -0.0658   20.4903 C.ar    1  UNL1        0.0264
     28 C           2.5077   -1.5401   20.2140 C.ar    1  UNL1        0.0293
     29 C           3.3372   -2.0911   19.0922 C.ar    1  UNL1        0.1422
     30 F           3.3404   -3.5655   18.8159 F       1  UNL1       -0.2041
     31 C           4.1634   -1.1679   18.2468 C.ar    1  UNL1        0.0592
     32 C           4.1602    0.3065   18.5232 C.ar    1  UNL1        0.1422
     33 F           4.9865    1.2298   17.6777 F       1  UNL1       -0.2041
     34 C           3.3308    0.8575   19.6449 C.ar    1  UNL1        0.0293
     35 C           4.1765   -0.1686   24.6228 C.3     1  UNL1        0.1197
     36 C           4.2766   -1.5694   25.1497 C.3     1  UNL1        0.1145
     37 N           5.1843   -1.8733   26.3046 N.am    1  UNL1       -0.2689
     38 C           4.6619   -1.7991   27.7088 C.2     1  UNL1        0.4018
     39 O           3.2318   -1.4209   27.9579 O.2     1  UNL1       -0.2264
     40 H           6.1228   -2.1215   26.1411 H       1  UNL1        0.1528
     41 O           5.5694   -2.1030   28.8637 O.3     1  UNL1       -0.4306
     42 C           5.4064   -1.3658   30.1598 C.3     1  UNL1        0.2573
@<TRIPOS>BOND
     1    25    26    1
     2    26    13    1
     3    13    14   ar
     4    14    15   ar
     5    15    16    1
     6    15    17   ar
     7    17    18   ar
     8    18    19    1
     9    18    20   ar
    10    20     1    1
    11     1     2   ar
    12     2     3   ar
    13     3     4   ar
    14     4     5   ar
    15     5     6   ar
    16     5     7    1
    17     7    35    1
    18    35    36    1
    19    36    37    1
    20    37    38   am
    21    38    39    2
    22    38    41    1
    23    41    42    1
    24     7     8   am
    25     8     9    2
    26     8    10    1
    27    10    11    1
    28    10    27    1
    29    27    28   ar
    30    28    29   ar
    31    29    30    1
    32    29    31   ar
    33    31    32   ar
    34    32    33    1
    35    32    34   ar
    36    10    12    1
    37    20    13   ar
    38     6     1   ar
    39    34    27   ar
    40    12     4    1
    41    16    21    1
    42    16    22    1
    43    19    23    1
    44    19    24    1
    45    37    40    1
@<TRIPOS>MOLECULE
*****
 42 45 0 0 0
SMALL
GASTEIGER

@<TRIPOS>ATOM
      1 C           1.3892    1.5283   26.6020 C.ar    1  UNL1        0.0053
      2 C           0.5431    2.3431   25.6692 C.ar    1  UNL1        0.0033
      3 C           0.6506    2.1386   24.1871 C.ar    1  UNL1        0.0382
      4 C           1.6042    1.1193   23.6379 C.ar    1  UNL1        0.1529
      5 C           2.4503    0.3045   24.5707 C.ar    1  UNL1        0.0882
      6 C           2.3428    0.5090   26.0527 C.ar    1  UNL1        0.0181
      7 N           3.4039   -0.7148   24.0214 N.am    1  UNL1       -0.2512
      8 C           3.5114   -0.9193   22.5394 C.2     1  UNL1        0.2698
      9 O           4.4650   -1.9386   21.9901 O.2     1  UNL1       -0.2704
     10 C           2.6653   -0.1045   21.6065 C.3     1  UNL1        0.2199
     11 C           2.0797    0.4195   20.3288 C.3     1  UNL1        0.0579
     12 O           1.7116    0.9148   22.1557 O.3     1  UNL1       -0.4686
     13 C           0.1429    1.1211   28.8450 C.ar    1  UNL1        0.0645
     14 N           0.0354    1.3256   30.3271 N.ar    1  UNL1       -0.2183
     15 C           1.0667    2.1418   31.0484 C.ar    1  UNL1        0.2145
     16 N           0.9592    2.3463   32.5304 N.pl3   1  UNL1       -0.3274
     17 N           2.2055    2.7536   30.2875 N.ar    1  UNL1       -0.1995
     18 C           2.3130    2.5491   28.8053 C.ar    1  UNL1        0.1293
     19 N           3.4518    3.1608   28.0445 N.pl3   1  UNL1       -0.3425
     20 C           1.2817    1.7328   28.0841 C.ar    1  UNL1        0.0449
     21 H           0.2118    1.9448   33.0298 H       1  UNL1        0.1452
     22 H           1.6361    2.8820   33.0038 H       1  UNL1        0.1452
     23 H           4.1286    3.6966   28.5178 H       1  UNL1        0.1437
     24 H           3.5223    3.0266   27.0717 H       1  UNL1        0.1437
     25 C          -1.5361   -0.8613   28.8098 C.3     1  UNL1        0.0067
     26 C          -0.8884    0.3048   28.1237 C.3     1  UNL1        0.0460
     27 C           3.4155   -0.9418   20.6135 C.ar    1  UNL1        0.0264
     28 C           2.8591   -2.2641   20.1752 C.ar    1  UNL1        0.0293
     29 C           3.6094   -3.1014   19.1822 C.ar    1  UNL1        0.1422
     30 F           3.0530   -4.4237   18.7438 F       1  UNL1       -0.2041
     31 C           4.9160   -2.6165   18.6275 C.ar    1  UNL1        0.0592
     32 C           5.4723   -1.2943   19.0659 C.ar    1  UNL1        0.1422
     33 F           6.7790   -0.8094   18.5112 F       1  UNL1       -0.2041
     34 C           4.7221   -0.4569   20.0588 C.ar    1  UNL1        0.0293
     35 C           4.2500   -1.5295   24.9543 C.3     1  UNL1        0.1197
     36 C           5.6115   -1.0414   25.3517 C.3     1  UNL1        0.1145
     37 N           6.0004   -1.0004   26.7999 N.am    1  UNL1       -0.2689
     38 C           6.0061    0.3052   27.5382 C.2     1  UNL1        0.4018
     39 O           5.6229    1.5699   26.8285 O.2     1  UNL1       -0.2264
     40 H           6.2519   -1.8305   27.2657 H       1  UNL1        0.1528
     41 O           6.3950    0.3462   28.9864 O.3     1  UNL1       -0.4306
     42 C           5.3845    0.7377   30.0235 C.3     1  UNL1        0.2573
@<TRIPOS>BOND
     1    25    26    1
     2    26    13    1
     3    13    14   ar
     4    14    15   ar
     5    15    16    1
     6    15    17   ar
     7    17    18   ar
     8    18    19    1
     9    18    20   ar
    10    20     1    1
    11     1     2   ar
    12     2     3   ar
    13     3     4   ar
    14     4     5   ar
    15     5     6   ar
    16     5     7    1
    17     7    35    1
    18    35    36    1
    19    36    37    1
    20    37    38   am
    21    38    39    2
    22    38    41    1
    23    41    42    1
    24     7     8   am
    25     8     9    2
    26     8    10    1
    27    10    11    1
    28    10    27    1
    29    27    28   ar
    30    28    29   ar
    31    29    30    1
    32    29    31   ar
    33    31    32   ar
    34    32    33    1
    35    32    34   ar
    36    10    12    1
    37    20    13   ar
    38     6     1   ar
    39    34    27   ar
    40    12     4    1
    41    16    21    1
    42    16    22    1
    43    19    23    1
    44    19    24    1
    45    37    40    1
@<TRIPOS>MOLECULE
*****
 42 45 0 0 0
SMALL
GASTEIGER

@<TRIPOS>ATOM
      1 C           7.4576   -2.5942   31.9278 C.ar    1  UNL1        0.0053
      2 C           8.7426   -2.2852   32.6371 C.ar    1  UNL1        0.0033
      3 C           8.7760   -1.2305   33.7031 C.ar    1  UNL1        0.0382
      4 C           7.5244   -0.4847   34.0597 C.ar    1  UNL1        0.1529
      5 C           6.2393   -0.7936   33.3504 C.ar    1  UNL1        0.0882
      6 C           6.2059   -1.8484   32.2844 C.ar    1  UNL1        0.0181
      7 N           4.9877   -0.0479   33.7070 N.am    1  UNL1       -0.2512
      8 C           5.0211    1.0069   34.7730 C.2     1  UNL1        0.2698
      9 O           3.7694    1.7527   35.1296 O.2     1  UNL1       -0.2704
     10 C           6.3062    1.3159   35.4824 C.3     1  UNL1        0.2199
     11 C           7.2732    1.9618   36.4298 C.3     1  UNL1        0.0579
     12 O           7.5578    0.5701   35.1257 O.3     1  UNL1       -0.4686
     13 C           7.8447   -3.3137   29.4615 C.ar    1  UNL1        0.0645
     14 N           7.8112   -4.3684   28.3955 N.ar    1  UNL1       -0.2183
     15 C           7.3572   -5.7585   28.7297 C.ar    1  UNL1        0.2145
     16 N           7.3238   -6.8132   27.6637 N.pl3   1  UNL1       -0.3274
     17 N           6.9367   -6.0938   30.1300 N.ar    1  UNL1       -0.1995
     18 C           6.9701   -5.0390   31.1960 C.ar    1  UNL1        0.1293
     19 N           6.5496   -5.3743   32.5963 N.pl3   1  UNL1       -0.3425
     20 C           7.4241   -3.6490   30.8618 C.ar    1  UNL1        0.0449
     21 H           7.5998   -6.5932   26.7447 H       1  UNL1        0.1452
     22 H           7.0258   -7.7256   27.8831 H       1  UNL1        0.1452
     23 H           6.2516   -6.2866   32.8156 H       1  UNL1        0.1437
     24 H           6.5715   -4.6820   33.2959 H       1  UNL1        0.1437
     25 C           7.3611   -0.9723   28.4447 C.3     1  UNL1        0.0067
     26 C           8.2987   -1.9236   29.1273 C.3     1  UNL1        0.0460
     27 C           5.3904    2.2860   36.1681 C.ar    1  UNL1        0.0264
     28 C           4.6162    1.8585   37.3796 C.ar    1  UNL1        0.0293
     29 C           3.7004    2.8286   38.0653 C.ar    1  UNL1        0.1422
     30 F           2.9262    2.4010   39.2769 F       1  UNL1       -0.2041
     31 C           3.5587    4.2262   37.5395 C.ar    1  UNL1        0.0592
     32 C           4.3329    4.6537   36.3279 C.ar    1  UNL1        0.1422
     33 F           4.1912    6.0514   35.8021 F       1  UNL1       -0.2041
     34 C           5.2487    3.6837   35.6422 C.ar    1  UNL1        0.0293
     35 C           3.7026   -0.3568   32.9977 C.3     1  UNL1        0.1197
     36 C           3.3469    0.3748   31.7375 C.3     1  UNL1        0.1145
     37 N           3.5227   -0.2944   30.4066 N.am    1  UNL1       -0.2689
     38 C           2.3344   -0.5274   29.5214 C.2     1  UNL1        0.4018
     39 O           0.9701   -0.0911   29.9672 O.2     1  UNL1       -0.2264
     40 H           4.4181   -0.5807   30.1141 H       1  UNL1        0.1528
     41 O           2.5102   -1.1966   28.1906 O.3     1  UNL1       -0.4306
     42 C           3.7202   -0.8989   27.3555 C.3     1  UNL1        0.2573
@<TRIPOS>BOND
     1    25    26    1
     2    26    13    1
     3    13    14   ar
     4    14    15   ar
     5    15    16    1
     6    15    17   ar
     7    17    18   ar
     8    18    19    1
     9    18    20   ar
    10    20     1    1
    11     1     2   ar
    12     2     3   ar
    13     3     4   ar
    14     4     5   ar
    15     5     6   ar
    16     5     7    1
    17     7    35    1
    18    35    36    1
    19    36    37    1
    20    37    38   am
    21    38    39    2
    22    38    41    1
    23    41    42    1
    24     7     8   am
    25     8     9    2
    26     8    10    1
    27    10    11    1
    28    10    27    1
    29    27    28   ar
    30    28    29   ar
    31    29    30    1
    32    29    31   ar
    33    31    32   ar
    34    32    33    1
    35    32    34   ar
    36    10    12    1
    37    20    13   ar
    38     6     1   ar
    39    34    27   ar
    40    12     4    1
    41    16    21    1
    42    16    22    1
    43    19    23    1
    44    19    24    1
    45    37    40    1
@<TRIPOS>MOLECULE
*****
 42 45 0 0 0
SMALL
GASTEIGER

@<TRIPOS>ATOM
      1 C           7.0276   -2.4581   31.8049 C.ar    1  UNL1        0.0053
      2 C           8.1810   -2.0760   32.6846 C.ar    1  UNL1        0.0033
      3 C           8.0332   -0.9552   33.6704 C.ar    1  UNL1        0.0382
      4 C           6.7321   -0.2164   33.7765 C.ar    1  UNL1        0.1529
      5 C           5.5787   -0.5984   32.8969 C.ar    1  UNL1        0.0882
      6 C           5.7265   -1.7192   31.9111 C.ar    1  UNL1        0.0181
      7 N           4.2776    0.1404   33.0031 N.am    1  UNL1       -0.2512
      8 C           4.1299    1.2612   33.9889 C.2     1  UNL1        0.2698
      9 O           2.8288    2.0000   34.0951 O.2     1  UNL1       -0.2704
     10 C           5.2833    1.6433   34.8686 C.3     1  UNL1        0.2199
     11 C           6.0810    2.3695   35.9108 C.3     1  UNL1        0.0579
     12 O           6.5844    0.9045   34.7624 O.3     1  UNL1       -0.4686
     13 C           7.6291   -3.2911   29.4186 C.ar    1  UNL1        0.0645
     14 N           7.7768   -4.4118   28.4328 N.ar    1  UNL1       -0.2183
     15 C           7.4708   -5.8206   28.8473 C.ar    1  UNL1        0.2145
     16 N           7.6185   -6.9414   27.8615 N.pl3   1  UNL1       -0.3274
     17 N           7.0170   -6.1085   30.2478 N.ar    1  UNL1       -0.1995
     18 C           6.8693   -4.9876   31.2337 C.ar    1  UNL1        0.1293
     19 N           6.4156   -5.2755   32.6341 N.pl3   1  UNL1       -0.3425
     20 C           7.1753   -3.5789   30.8191 C.ar    1  UNL1        0.0449
     21 H           7.9163   -6.7525   26.9423 H       1  UNL1        0.1452
     22 H           7.4177   -7.8660   28.1336 H       1  UNL1        0.1452
     23 H           6.2147   -6.2001   32.9062 H       1  UNL1        0.1437
     24 H           6.3186   -4.5399   33.2812 H       1  UNL1        0.1437
     25 C           9.3369   -1.3583   29.1057 C.3     1  UNL1        0.0067
     26 C           7.9351   -1.8823   29.0041 C.3     1  UNL1        0.0460
     27 C           4.2592    2.6343   35.3367 C.ar    1  UNL1        0.0264
     28 C           3.3524    2.2917   36.4814 C.ar    1  UNL1        0.0293
     29 C           2.3283    3.2828   36.9495 C.ar    1  UNL1        0.1422
     30 F           1.4215    2.9401   38.0942 F       1  UNL1       -0.2041
     31 C           2.2110    4.6163   36.2730 C.ar    1  UNL1        0.0592
     32 C           3.1178    4.9589   35.1283 C.ar    1  UNL1        0.1422
     33 F           3.0006    6.2925   34.4518 F       1  UNL1       -0.2041
     34 C           4.1419    3.9679   34.6602 C.ar    1  UNL1        0.0293
     35 C           3.1243   -0.2416   32.1235 C.3     1  UNL1        0.1197
     36 C           2.7667    0.6117   30.9428 C.3     1  UNL1        0.1145
     37 N           2.3091    2.0251   31.1501 N.am    1  UNL1       -0.2689
     38 C           0.8471    2.3559   31.0940 C.2     1  UNL1        0.4018
     39 O          -0.1573    1.2733   30.8307 O.2     1  UNL1       -0.2264
     40 H           2.9683    2.7356   31.3229 H       1  UNL1        0.1528
     41 O           0.3894    3.7692   31.3013 O.3     1  UNL1       -0.4306
     42 C           0.3131    4.3372   32.6875 C.3     1  UNL1        0.2573
@<TRIPOS>BOND
     1    25    26    1
     2    26    13    1
     3    13    14   ar
     4    14    15   ar
     5    15    16    1
     6    15    17   ar
     7    17    18   ar
     8    18    19    1
     9    18    20   ar
    10    20     1    1
    11     1     2   ar
    12     2     3   ar
    13     3     4   ar
    14     4     5   ar
    15     5     6   ar
    16     5     7    1
    17     7    35    1
    18    35    36    1
    19    36    37    1
    20    37    38   am
    21    38    39    2
    22    38    41    1
    23    41    42    1
    24     7     8   am
    25     8     9    2
    26     8    10    1
    27    10    11    1
    28    10    27    1
    29    27    28   ar
    30    28    29   ar
    31    29    30    1
    32    29    31   ar
    33    31    32   ar
    34    32    33    1
    35    32    34   ar
    36    10    12    1
    37    20    13   ar
    38     6     1   ar
    39    34    27   ar
    40    12     4    1
    41    16    21    1
    42    16    22    1
    43    19    23    1
    44    19    24    1
    45    37    40    1
@<TRIPOS>MOLECULE
*****
 42 45 0 0 0
SMALL
GASTEIGER

@<TRIPOS>ATOM
      1 C           4.9479   -1.4229   19.5005 C.ar    1  UNL1        0.0053
      2 C           4.5264   -1.3247   18.0643 C.ar    1  UNL1        0.0033
      3 C           3.4184   -0.3939   17.6698 C.ar    1  UNL1        0.0382
      4 C           2.7318    0.4389   18.7115 C.ar    1  UNL1        0.1529
      5 C           3.1532    0.3407   20.1477 C.ar    1  UNL1        0.0882
      6 C           4.2613   -0.5902   20.5422 C.ar    1  UNL1        0.0181
      7 N           2.4666    1.1735   21.1894 N.am    1  UNL1       -0.2512
      8 C           1.3586    2.1043   20.7949 C.2     1  UNL1        0.2698
      9 O           0.6720    2.9371   21.8366 O.2     1  UNL1       -0.2704
     10 C           0.9371    2.2025   19.3586 C.3     1  UNL1        0.2199
     11 C           0.1867    2.6430   18.1368 C.3     1  UNL1        0.0579
     12 O           1.6237    1.3698   18.3169 O.3     1  UNL1       -0.4686
     13 C           5.7361   -3.7333   20.3896 C.ar    1  UNL1        0.0645
     14 N           6.8441   -4.6642   20.7842 N.ar    1  UNL1       -0.2183
     15 C           8.2720   -4.2156   20.6842 C.ar    1  UNL1        0.2145
     16 N           9.3800   -5.1465   21.0787 N.pl3   1  UNL1       -0.3274
     17 N           8.5918   -2.8361   20.1895 N.ar    1  UNL1       -0.1995
     18 C           7.4838   -1.9052   19.7950 C.ar    1  UNL1        0.1293
     19 N           7.8036   -0.5257   19.3004 N.pl3   1  UNL1       -0.3425
     20 C           6.0560   -2.3538   19.8950 C.ar    1  UNL1        0.0449
     21 H           9.1701   -6.0519   21.4033 H       1  UNL1        0.1452
     22 H          10.3172   -4.8521   21.0130 H       1  UNL1        0.1452
     23 H           8.7407   -0.2312   19.2347 H       1  UNL1        0.1437
     24 H           7.0763    0.0853   19.0414 H       1  UNL1        0.1437
     25 C           3.6771   -4.9338   19.3555 C.3     1  UNL1        0.0067
     26 C           4.3082   -4.1819   20.4897 C.3     1  UNL1        0.0460
     27 C          -0.0101    3.1882   19.9760 C.ar    1  UNL1        0.0264
     28 C          -1.3454    2.7293   20.4823 C.ar    1  UNL1        0.0293
     29 C          -2.2926    3.7150   21.0997 C.ar    1  UNL1        0.1422
     30 F          -3.6279    3.2559   21.6060 F       1  UNL1       -0.2041
     31 C          -1.9046    5.1596   21.2108 C.ar    1  UNL1        0.0592
     32 C          -0.5693    5.6185   20.7044 C.ar    1  UNL1        0.1422
     33 F          -0.1812    7.0633   20.8155 F       1  UNL1       -0.2041
     34 C           0.3780    4.6329   20.0870 C.ar    1  UNL1        0.0293
     35 C           2.8881    1.0753   22.6256 C.3     1  UNL1        0.1197
     36 C           2.2152    0.0943   23.5393 C.3     1  UNL1        0.1145
     37 N           2.8113   -0.2113   24.8814 N.am    1  UNL1       -0.2689
     38 C           3.8468   -1.2883   25.0145 C.2     1  UNL1        0.4018
     39 O           4.2862   -2.0598   23.8053 O.2     1  UNL1       -0.2264
     40 H           2.5229    0.2951   25.6750 H       1  UNL1        0.1528
     41 O           4.4430   -1.5939   26.3565 O.3     1  UNL1       -0.4306
     42 C           3.6722   -1.2889   27.6066 C.3     1  UNL1        0.2573
@<TRIPOS>BOND
     1    25    26    1
     2    26    13    1
     3    13    14   ar
     4    14    15   ar
     5    15    16    1
     6    15    17   ar
     7    17    18   ar
     8    18    19    1
     9    18    20   ar
    10    20     1    1
    11     1     2   ar
    12     2     3   ar
    13     3     4   ar
    14     4     5   ar
    15     5     6   ar
    16     5     7    1
    17     7    35    1
    18    35    36    1
    19    36    37    1
    20    37    38   am
    21    38    39    2
    22    38    41    1
    23    41    42    1
    24     7     8   am
    25     8     9    2
    26     8    10    1
    27    10    11    1
    28    10    27    1
    29    27    28   ar
    30    28    29   ar
    31    29    30    1
    32    29    31   ar
    33    31    32   ar
    34    32    33    1
    35    32    34   ar
    36    10    12    1
    37    20    13   ar
    38     6     1   ar
    39    34    27   ar
    40    12     4    1
    41    16    21    1
    42    16    22    1
    43    19    23    1
    44    19    24    1
    45    37    40    1
