@<TRIPOS>MOLECULE
*****
 37 41 0 0 0
SMALL
GASTEIGER

@<TRIPOS>ATOM
      1 C           1.9037    1.7408   32.0886 C.3     1  UNL1        0.0342
      2 C           2.1395    1.3224   30.6675 C.ar    1  UNL1        0.0151
      3 C           1.4408    2.0376   29.5493 C.ar    1  UNL1        0.0990
      4 N           1.6766    1.6192   28.1282 N.ar    1  UNL1       -0.2123
      5 C           2.5476    0.5263   27.4771 C.ar    1  UNL1        0.2207
      6 N           2.6485    0.5544   28.9735 N.ar    1  UNL1       -0.2139
      7 C           3.0740    0.1888   30.3646 C.ar    1  UNL1        0.0817
      8 C           3.7727   -0.5264   31.4828 C.ar    1  UNL1        0.0172
      9 C           3.5369   -0.1080   32.9038 C.ar    1  UNL1        0.0015
     10 C           4.2356   -0.8232   34.0220 C.ar    1  UNL1       -0.0002
     11 C           5.1701   -1.9568   33.7191 C.ar    1  UNL1       -0.0019
     12 C           5.4059   -2.3751   32.2981 C.ar    1  UNL1        0.0073
     13 C           4.7072   -1.6600   31.1800 C.ar    1  UNL1       -0.0004
     14 C           6.5644   -3.7623   32.1071 C.3     1  UNL1        0.1691
     15 O           7.3511   -4.7689   31.3210 O.3     1  UNL1       -0.3443
     16 C           7.8952   -5.5271   30.1467 C.3     1  UNL1        0.1686
     17 C           8.1309   -5.9455   28.7256 C.2     1  UNL1        0.0036
     18 C           8.0300   -5.9736   27.2293 C.2     1  UNL1        0.0036
     19 C           7.6045   -5.6080   25.8382 C.3     1  UNL1        0.1686
     20 O           6.9058   -4.8928   24.7200 O.3     1  UNL1       -0.3442
     21 C           6.0181   -3.9143   24.0097 C.3     1  UNL1        0.1721
     22 C           5.0486   -2.7905   23.7929 C.ar    1  UNL1        0.0425
     23 C           4.1141   -1.6569   24.0958 C.ar    1  UNL1        0.0158
     24 C           3.3274   -0.6503   24.8818 C.ar    1  UNL1        0.0504
     25 C           3.1095   -0.5428   23.3593 C.ar    1  UNL1        0.0178
     26 C           3.6536   -1.3010   22.1849 C.ar    1  UNL1        0.0379
     27 C           4.6231   -2.4248   22.4017 C.ar    1  UNL1        0.1370
     28 N           2.7834    0.1079   26.0561 N.pl3   1  UNL1       -0.2825
     29 H           2.2008    0.7502   25.5899 H       1  UNL1        0.1551
     30 O           5.1672   -3.1831   21.2274 O.3     1  UNL1       -0.4742
     31 C           4.2685   -4.0873   20.4369 C.3     1  UNL1        0.2226
     32 C           3.5486   -3.5612   19.2307 C.3     1  UNL1        0.1200
     33 N           3.9521   -2.2472   18.6304 N.3     1  UNL1       -0.2696
     34 C           3.1604   -0.9741   18.6816 C.3     1  UNL1        0.0722
     35 C           3.9373    0.0844   17.9563 C.3     1  UNL1        0.0188
     36 C           5.2091   -0.5344   17.4568 C.3     1  UNL1        0.0188
     37 C           5.2183   -1.9753   17.8734 C.3     1  UNL1        0.0722
@<TRIPOS>BOND
     1     1     2    1
     2     2     3   ar
     3     3     4   ar
     4     4     5   ar
     5     5     6   ar
     6     6     7   ar
     7     7     8    1
     8     8     9   ar
     9     9    10   ar
    10    10    11   ar
    11    11    12   ar
    12    12    13   ar
    13    12    14    1
    14    14    15    1
    15    15    16    1
    16    16    17    1
    17    17    18    2
    18    18    19    1
    19    19    20    1
    20    20    21    1
    21    21    22    1
    22    22    23   ar
    23    23    24   ar
    24    24    25   ar
    25    25    26   ar
    26    26    27   ar
    27    27    30    1
    28    30    31    1
    29    31    32    1
    30    32    33    1
    31    33    34    1
    32    34    35    1
    33    35    36    1
    34    36    37    1
    35    24    28    1
    36     7     2   ar
    37    13     8   ar
    38    27    22   ar
    39    37    33    1
    40    28     5    1
    41    28    29    1
@<TRIPOS>MOLECULE
*****
 37 41 0 0 0
SMALL
GASTEIGER

@<TRIPOS>ATOM
      1 C           5.9602   -3.3446   21.4998 C.3     1  UNL1        0.0342
      2 C           5.2226   -2.6071   22.5778 C.ar    1  UNL1        0.0151
      3 C           4.2191   -1.5534   22.2139 C.ar    1  UNL1        0.0990
      4 N           3.4815   -0.8158   23.2919 N.ar    1  UNL1       -0.2123
      5 C           3.5088   -0.8863   24.8318 C.ar    1  UNL1        0.2207
      6 N           4.4525   -1.8499   24.1754 N.ar    1  UNL1       -0.2139
      7 C           5.4887   -2.9232   24.0198 C.ar    1  UNL1        0.0817
      8 C           6.4924   -3.9770   24.3837 C.ar    1  UNL1        0.0172
      9 C           7.2299   -4.7145   23.3057 C.ar    1  UNL1        0.0015
     10 C           8.2335   -5.7682   23.6697 C.ar    1  UNL1       -0.0002
     11 C           8.4996   -6.0843   25.1116 C.ar    1  UNL1       -0.0019
     12 C           7.7621   -5.3468   26.1896 C.ar    1  UNL1        0.0073
     13 C           6.7585   -4.2932   25.8257 C.ar    1  UNL1       -0.0004
     14 C           8.2023   -5.8509   27.8793 C.3     1  UNL1        0.1691
     15 O           8.1085   -5.7943   29.3753 O.3     1  UNL1       -0.3443
     16 C           7.6662   -5.3718   30.7449 C.3     1  UNL1        0.1686
     17 C           6.9286   -4.6342   31.8229 C.2     1  UNL1        0.0036
     18 C           5.9849   -3.6706   32.4793 C.2     1  UNL1        0.0036
     19 C           4.9487   -2.5973   32.6349 C.3     1  UNL1        0.1686
     20 O           3.9451   -1.5436   32.2709 O.3     1  UNL1       -0.3442
     21 C           3.0951   -0.6366   31.4313 C.3     1  UNL1        0.1721
     22 C           2.5013    0.0141   30.2173 C.ar    1  UNL1        0.0425
     23 C           2.2352    0.3303   28.7754 C.ar    1  UNL1        0.0158
     24 C           2.3289    0.2737   27.2794 C.ar    1  UNL1        0.0504
     25 C           1.3135    1.3158   27.7893 C.ar    1  UNL1        0.0178
     26 C           0.8712    1.7384   29.1589 C.ar    1  UNL1        0.0379
     27 C           1.4650    1.0876   30.3729 C.ar    1  UNL1        0.1370
     28 N           2.7713   -0.1488   25.9098 N.pl3   1  UNL1       -0.2825
     29 H           2.2134    0.4464   25.3587 H       1  UNL1        0.1551
     30 O           1.0227    1.5101   31.7425 O.3     1  UNL1       -0.4742
     31 C           1.8381    2.4988   32.5222 C.3     1  UNL1        0.2226
     32 C           2.3728    2.1295   33.8741 C.3     1  UNL1        0.1200
     33 N           2.1158    3.0224   35.0516 N.3     1  UNL1       -0.2696
     34 C           2.4312    2.7060   36.4836 C.3     1  UNL1        0.0722
     35 C           2.0085    3.8765   37.3209 C.3     1  UNL1        0.0188
     36 C           1.4318    4.9164   36.4066 C.3     1  UNL1        0.0188
     37 C           1.4981    4.3886   35.0041 C.3     1  UNL1        0.0722
@<TRIPOS>BOND
     1     1     2    1
     2     2     3   ar
     3     3     4   ar
     4     4     5   ar
     5     5     6   ar
     6     6     7   ar
     7     7     8    1
     8     8     9   ar
     9     9    10   ar
    10    10    11   ar
    11    11    12   ar
    12    12    13   ar
    13    12    14    1
    14    14    15    1
    15    15    16    1
    16    16    17    1
    17    17    18    2
    18    18    19    1
    19    19    20    1
    20    20    21    1
    21    21    22    1
    22    22    23   ar
    23    23    24   ar
    24    24    25   ar
    25    25    26   ar
    26    26    27   ar
    27    27    30    1
    28    30    31    1
    29    31    32    1
    30    32    33    1
    31    33    34    1
    32    34    35    1
    33    35    36    1
    34    36    37    1
    35    24    28    1
    36     7     2   ar
    37    13     8   ar
    38    27    22   ar
    39    37    33    1
    40    28     5    1
    41    28    29    1
@<TRIPOS>MOLECULE
*****
 37 41 0 0 0
SMALL
GASTEIGER

@<TRIPOS>ATOM
      1 C           9.3205   -6.9408   27.9382 C.3     1  UNL1        0.0342
      2 C           8.5027   -6.2085   26.9160 C.ar    1  UNL1        0.0151
      3 C           8.6089   -6.5776   25.4660 C.ar    1  UNL1        0.0990
      4 N           7.7910   -5.8453   24.4438 N.ar    1  UNL1       -0.2123
      5 C           6.7694   -4.6940   24.5326 C.ar    1  UNL1        0.2207
      6 N           7.3345   -5.0918   25.8639 N.ar    1  UNL1       -0.2139
      7 C           7.5786   -5.1071   27.3438 C.ar    1  UNL1        0.0817
      8 C           7.4724   -4.7380   28.7938 C.ar    1  UNL1        0.0172
      9 C           8.2902   -5.4703   29.8160 C.ar    1  UNL1        0.0015
     10 C           8.1840   -5.1012   31.2659 C.ar    1  UNL1       -0.0002
     11 C           7.2600   -3.9998   31.6938 C.ar    1  UNL1       -0.0019
     12 C           6.4422   -3.2675   30.6716 C.ar    1  UNL1        0.0073
     13 C           6.5484   -3.6366   29.2217 C.ar    1  UNL1       -0.0004
     14 C           5.3768   -1.9644   31.3570 C.3     1  UNL1        0.1691
     15 O           4.3680   -0.8577   31.2708 O.3     1  UNL1       -0.3443
     16 C           3.3960    0.1208   30.6812 C.3     1  UNL1        0.1686
     17 C           2.5782    0.8531   29.6589 C.2     1  UNL1        0.0036
     18 C           2.0131    1.2510   28.3276 C.2     1  UNL1        0.0036
     19 C           1.7689    1.2662   26.8477 C.3     1  UNL1        0.1686
     20 O           1.8751    0.8971   25.3977 O.3     1  UNL1       -0.3442
     21 C           2.3189    0.1882   24.1525 C.3     1  UNL1        0.1721
     22 C           3.0467   -0.7751   23.2624 C.ar    1  UNL1        0.0425
     23 C           3.9708   -1.8765   22.8345 C.ar    1  UNL1        0.0158
     24 C           4.9796   -2.9832   22.9207 C.ar    1  UNL1        0.0504
     25 C           4.5023   -2.7016   21.4819 C.ar    1  UNL1        0.0178
     26 C           3.5303   -1.7231   20.8922 C.ar    1  UNL1        0.0379
     27 C           2.8025   -0.7598   21.7824 C.ar    1  UNL1        0.1370
     28 N           5.9516   -3.9617   23.5104 N.pl3   1  UNL1       -0.2825
     29 H           6.2428   -4.4270   22.6931 H       1  UNL1        0.1551
     30 O           1.8306    0.2187   21.1927 O.3     1  UNL1       -0.4742
     31 C           1.0321   -0.1560   19.9794 C.3     1  UNL1        0.2226
     32 C           1.3782    0.4311   18.6431 C.3     1  UNL1        0.1200
     33 N           2.7985    0.4125   18.1611 N.3     1  UNL1       -0.2696
     34 C           3.4167   -0.6313   17.2788 C.3     1  UNL1        0.0722
     35 C           4.8503   -0.2544   17.0492 C.3     1  UNL1        0.0188
     36 C           5.1182    1.0223   17.7896 C.3     1  UNL1        0.0188
     37 C           3.8503    1.4345   18.4768 C.3     1  UNL1        0.0722
@<TRIPOS>BOND
     1     1     2    1
     2     2     3   ar
     3     3     4   ar
     4     4     5   ar
     5     5     6   ar
     6     6     7   ar
     7     7     8    1
     8     8     9   ar
     9     9    10   ar
    10    10    11   ar
    11    11    12   ar
    12    12    13   ar
    13    12    14    1
    14    14    15    1
    15    15    16    1
    16    16    17    1
    17    17    18    2
    18    18    19    1
    19    19    20    1
    20    20    21    1
    21    21    22    1
    22    22    23   ar
    23    23    24   ar
    24    24    25   ar
    25    25    26   ar
    26    26    27   ar
    27    27    30    1
    28    30    31    1
    29    31    32    1
    30    32    33    1
    31    33    34    1
    32    34    35    1
    33    35    36    1
    34    36    37    1
    35    24    28    1
    36     7     2   ar
    37    13     8   ar
    38    27    22   ar
    39    37    33    1
    40    28     5    1
    41    28    29    1
@<TRIPOS>MOLECULE
*****
 37 41 0 0 0
SMALL
GASTEIGER

@<TRIPOS>ATOM
      1 C           9.5347   -7.9698   25.7631 C.3     1  UNL1        0.0342
      2 C           8.5944   -6.8651   25.3815 C.ar    1  UNL1        0.0151
      3 C           8.2806   -6.6130   23.9366 C.ar    1  UNL1        0.0990
      4 N           7.3402   -5.5083   23.5550 N.ar    1  UNL1       -0.2123
      5 C           6.5418   -4.4697   24.3679 C.ar    1  UNL1        0.2207
      6 N           7.3637   -5.3892   25.2217 N.ar    1  UNL1       -0.2139
      7 C           7.9680   -6.0126   26.4449 C.ar    1  UNL1        0.0817
      8 C           8.2819   -6.2649   27.8899 C.ar    1  UNL1        0.0172
      9 C           9.2222   -7.3695   28.2714 C.ar    1  UNL1        0.0015
     10 C           9.5360   -7.6216   29.7163 C.ar    1  UNL1       -0.0002
     11 C           8.9096   -6.7692   30.7798 C.ar    1  UNL1       -0.0019
     12 C           7.9693   -5.6645   30.3982 C.ar    1  UNL1        0.0073
     13 C           7.6554   -5.4124   28.9533 C.ar    1  UNL1       -0.0004
     14 C           7.3000   -4.7297   31.8057 C.3     1  UNL1        0.1691
     15 O           6.4636   -3.6607   32.4443 O.3     1  UNL1       -0.3443
     16 C           5.5184   -2.5042   32.5811 C.3     1  UNL1        0.1686
     17 C           4.5780   -1.3995   32.1995 C.2     1  UNL1        0.0036
     18 C           3.7561   -0.4800   31.3457 C.2     1  UNL1        0.0036
     19 C           3.1519    0.1434   30.1225 C.3     1  UNL1        0.1686
     20 O           2.8380    0.3956   28.6776 O.3     1  UNL1       -0.3442
     21 C           2.8525    0.2461   27.1851 C.3     1  UNL1        0.1721
     22 C           3.1935   -0.2870   25.8252 C.ar    1  UNL1        0.0425
     23 C           3.8199   -1.1395   24.7618 C.ar    1  UNL1        0.0158
     24 C           4.6562   -2.2085   24.1232 C.ar    1  UNL1        0.0504
     25 C           3.8755   -1.3533   23.1053 C.ar    1  UNL1        0.0178
     26 C           2.9301   -0.1967   23.2420 C.ar    1  UNL1        0.0379
     27 C           2.5891    0.3364   24.6020 C.ar    1  UNL1        0.1370
     28 N           5.6015   -3.3651   23.9864 N.pl3   1  UNL1       -0.2825
     29 H           5.6110   -3.4632   23.0068 H       1  UNL1        0.1551
     30 O           1.6438    1.4930   24.7388 O.3     1  UNL1       -0.4742
     31 C           0.1625    1.2594   24.7010 C.3     1  UNL1        0.2226
     32 C          -0.7330    1.9643   25.6762 C.3     1  UNL1        0.1200
     33 N          -0.4679    1.8594   27.1488 N.3     1  UNL1       -0.2696
     34 C          -0.8656    0.7180   28.0372 C.3     1  UNL1        0.0722
     35 C          -0.4021    1.0306   29.4291 C.3     1  UNL1        0.0188
     36 C           0.2821    2.3652   29.4011 C.3     1  UNL1        0.0188
     37 C           0.2414    2.8774   27.9918 C.3     1  UNL1        0.0722
@<TRIPOS>BOND
     1     1     2    1
     2     2     3   ar
     3     3     4   ar
     4     4     5   ar
     5     5     6   ar
     6     6     7   ar
     7     7     8    1
     8     8     9   ar
     9     9    10   ar
    10    10    11   ar
    11    11    12   ar
    12    12    13   ar
    13    12    14    1
    14    14    15    1
    15    15    16    1
    16    16    17    1
    17    17    18    2
    18    18    19    1
    19    19    20    1
    20    20    21    1
    21    21    22    1
    22    22    23   ar
    23    23    24   ar
    24    24    25   ar
    25    25    26   ar
    26    26    27   ar
    27    27    30    1
    28    30    31    1
    29    31    32    1
    30    32    33    1
    31    33    34    1
    32    34    35    1
    33    35    36    1
    34    36    37    1
    35    24    28    1
    36     7     2   ar
    37    13     8   ar
    38    27    22   ar
    39    37    33    1
    40    28     5    1
    41    28    29    1
@<TRIPOS>MOLECULE
*****
 37 41 0 0 0
SMALL
GASTEIGER

@<TRIPOS>ATOM
      1 C           3.7064   -1.0439   16.9987 C.3     1  UNL1        0.0342
      2 C           4.3503   -1.5920   18.2377 C.ar    1  UNL1        0.0151
      3 C           5.4780   -2.5745   18.1250 C.ar    1  UNL1        0.0990
      4 N           6.1219   -3.1226   19.3640 N.ar    1  UNL1       -0.2123
      5 C           5.8810   -2.8980   20.8702 C.ar    1  UNL1        0.2207
      6 N           4.9577   -2.1032   19.9951 N.ar    1  UNL1       -0.2139
      7 C           3.8664   -1.1574   19.5894 C.ar    1  UNL1        0.0817
      8 C           2.7386   -0.1748   19.7021 C.ar    1  UNL1        0.0172
      9 C           2.0948    0.3733   18.4631 C.ar    1  UNL1        0.0015
     10 C           0.9671    1.3558   18.5759 C.ar    1  UNL1       -0.0002
     11 C           0.4832    1.7904   19.9276 C.ar    1  UNL1       -0.0019
     12 C           1.1270    1.2423   21.1665 C.ar    1  UNL1        0.0073
     13 C           2.2547    0.2598   21.0538 C.ar    1  UNL1       -0.0004
     14 C           0.4221    1.8713   22.7190 C.3     1  UNL1        0.1691
     15 O           0.3173    1.9773   24.2116 O.3     1  UNL1       -0.3443
     16 C           0.6040    1.7422   25.6650 C.3     1  UNL1        0.1686
     17 C           1.2479    1.1941   26.9040 C.2     1  UNL1        0.0036
     18 C           2.1712    0.3992   27.7791 C.2     1  UNL1        0.0036
     19 C           3.2625   -0.5465   28.1847 C.3     1  UNL1        0.1686
     20 O           4.3902   -1.5291   28.0720 O.3     1  UNL1       -0.3442
     21 C           5.4184   -2.4300   27.4545 C.3     1  UNL1        0.1721
     22 C           6.2229   -3.1406   26.4068 C.ar    1  UNL1        0.0425
     23 C           6.7068   -3.5751   25.0551 C.ar    1  UNL1        0.0158
     24 C           6.8116   -3.6812   23.5626 C.ar    1  UNL1        0.0504
     25 C           7.8320   -4.5618   24.3112 C.ar    1  UNL1        0.0178
     26 C           8.1188   -4.7970   25.7647 C.ar    1  UNL1        0.0379
     27 C           7.3143   -4.0864   26.8125 C.ar    1  UNL1        0.1370
     28 N           6.5248   -3.4460   22.1091 N.pl3   1  UNL1       -0.2825
     29 H           7.1996   -4.0374   21.7039 H       1  UNL1        0.1551
     30 O           7.6010   -4.3215   28.2659 O.3     1  UNL1       -0.4742
     31 C           6.9826   -5.4913   28.9726 C.3     1  UNL1        0.2226
     32 C           6.9147   -5.5118   30.4709 C.3     1  UNL1        0.1200
     33 N           7.2347   -4.2726   31.2531 N.3     1  UNL1       -0.2696
     34 C           6.2379   -3.3050   31.8190 C.3     1  UNL1        0.0722
     35 C           6.9949   -2.2178   32.5224 C.3     1  UNL1        0.0188
     36 C           8.4597   -2.5133   32.3913 C.3     1  UNL1        0.0188
     37 C           8.6079   -3.7832   31.6069 C.3     1  UNL1        0.0722
@<TRIPOS>BOND
     1     1     2    1
     2     2     3   ar
     3     3     4   ar
     4     4     5   ar
     5     5     6   ar
     6     6     7   ar
     7     7     8    1
     8     8     9   ar
     9     9    10   ar
    10    10    11   ar
    11    11    12   ar
    12    12    13   ar
    13    12    14    1
    14    14    15    1
    15    15    16    1
    16    16    17    1
    17    17    18    2
    18    18    19    1
    19    19    20    1
    20    20    21    1
    21    21    22    1
    22    22    23   ar
    23    23    24   ar
    24    24    25   ar
    25    25    26   ar
    26    26    27   ar
    27    27    30    1
    28    30    31    1
    29    31    32    1
    30    32    33    1
    31    33    34    1
    32    34    35    1
    33    35    36    1
    34    36    37    1
    35    24    28    1
    36     7     2   ar
    37    13     8   ar
    38    27    22   ar
    39    37    33    1
    40    28     5    1
    41    28    29    1
@<TRIPOS>MOLECULE
*****
 37 41 0 0 0
SMALL
GASTEIGER

@<TRIPOS>ATOM
      1 C           1.1174    1.3884   22.5049 C.3     1  UNL1        0.0342
      2 C           1.3412    1.3432   23.9875 C.ar    1  UNL1        0.0151
      3 C           0.6188    2.3039   24.8847 C.ar    1  UNL1        0.0990
      4 N           0.8427    2.2587   26.3673 N.ar    1  UNL1       -0.2123
      5 C           1.7206    1.3782   27.2789 C.ar    1  UNL1        0.2207
      6 N           1.8397    1.0324   25.8242 N.ar    1  UNL1       -0.2139
      7 C           2.2875    0.3372   24.5727 C.ar    1  UNL1        0.0817
      8 C           3.0099   -0.6236   23.6754 C.ar    1  UNL1        0.0172
      9 C           2.7861   -0.5783   22.1929 C.ar    1  UNL1        0.0015
     10 C           3.5084   -1.5390   21.2957 C.ar    1  UNL1       -0.0002
     11 C           4.4547   -2.5450   21.8809 C.ar    1  UNL1       -0.0019
     12 C           4.6786   -2.5903   23.3634 C.ar    1  UNL1        0.0073
     13 C           3.9562   -1.6296   24.2606 C.ar    1  UNL1       -0.0004
     14 C           5.8538   -3.8661   23.9058 C.3     1  UNL1        0.1691
     15 O           6.6445   -4.6306   24.9257 O.3     1  UNL1       -0.3443
     16 C           7.1844   -5.0616   26.2571 C.3     1  UNL1        0.1686
     17 C           7.4083   -5.1068   27.7397 C.2     1  UNL1        0.0036
     18 C           7.2892   -4.7610   29.1944 C.2     1  UNL1        0.0036
     19 C           6.8414   -4.0658   30.4458 C.3     1  UNL1        0.1686
     20 O           6.1190   -3.1051   31.3431 O.3     1  UNL1       -0.3442
     21 C           5.2091   -1.9947   31.7780 C.3     1  UNL1        0.1721
     22 C           4.2214   -0.8686   31.6979 C.ar    1  UNL1        0.0425
     23 C           3.2752    0.1374   31.1127 C.ar    1  UNL1        0.0158
     24 C           2.4844    0.9020   30.0929 C.ar    1  UNL1        0.0504
     25 C           2.2461    1.3837   31.5379 C.ar    1  UNL1        0.0178
     26 C           2.7860    0.9528   32.8695 C.ar    1  UNL1        0.0379
     27 C           3.7736   -0.1733   32.9495 C.ar    1  UNL1        0.1370
     28 N           1.9445    1.3329   28.7614 N.pl3   1  UNL1       -0.2825
     29 H           1.3473    2.0617   29.0468 H       1  UNL1        0.1551
     30 O           4.3135   -0.6043   34.2809 O.3     1  UNL1       -0.4742
     31 C           4.7426    0.4245   35.2848 C.3     1  UNL1        0.2226
     32 C           4.3650    0.2672   36.7279 C.3     1  UNL1        0.1200
     33 N           3.3897    1.2183   37.3558 N.3     1  UNL1       -0.2696
     34 C           3.0548    2.5935   36.8590 C.3     1  UNL1        0.0722
     35 C           2.0361    3.1862   37.7869 C.3     1  UNL1        0.0188
     36 C           1.7413    2.1774   38.8571 C.3     1  UNL1        0.0188
     37 C           2.5779    0.9612   38.5907 C.3     1  UNL1        0.0722
@<TRIPOS>BOND
     1     1     2    1
     2     2     3   ar
     3     3     4   ar
     4     4     5   ar
     5     5     6   ar
     6     6     7   ar
     7     7     8    1
     8     8     9   ar
     9     9    10   ar
    10    10    11   ar
    11    11    12   ar
    12    12    13   ar
    13    12    14    1
    14    14    15    1
    15    15    16    1
    16    16    17    1
    17    17    18    2
    18    18    19    1
    19    19    20    1
    20    20    21    1
    21    21    22    1
    22    22    23   ar
    23    23    24   ar
    24    24    25   ar
    25    25    26   ar
    26    26    27   ar
    27    27    30    1
    28    30    31    1
    29    31    32    1
    30    32    33    1
    31    33    34    1
    32    34    35    1
    33    35    36    1
    34    36    37    1
    35    24    28    1
    36     7     2   ar
    37    13     8   ar
    38    27    22   ar
    39    37    33    1
    40    28     5    1
    41    28    29    1
@<TRIPOS>MOLECULE
*****
 37 41 0 0 0
SMALL
GASTEIGER

@<TRIPOS>ATOM
      1 C           5.2914   -1.2883   33.9179 C.3     1  UNL1        0.0342
      2 C           5.6585   -1.8747   32.5869 C.ar    1  UNL1        0.0151
      3 C           6.7089   -2.9421   32.5016 C.ar    1  UNL1        0.0990
      4 N           7.0760   -3.5284   31.1706 N.ar    1  UNL1       -0.2123
      5 C           6.5869   -3.2742   29.7307 C.ar    1  UNL1        0.2207
      6 N           5.8997   -2.4175   30.7523 N.ar    1  UNL1       -0.2139
      7 C           4.9750   -1.3937   31.3413 C.ar    1  UNL1        0.0817
      8 C           3.9245   -0.3264   31.4267 C.ar    1  UNL1        0.0172
      9 C           3.5575    0.2600   32.7577 C.ar    1  UNL1        0.0015
     10 C           2.5070    1.3273   32.8430 C.ar    1  UNL1       -0.0002
     11 C           1.8236    1.8083   31.5974 C.ar    1  UNL1       -0.0019
     12 C           2.1906    1.2220   30.2664 C.ar    1  UNL1        0.0073
     13 C           3.2411    0.1546   30.1811 C.ar    1  UNL1       -0.0004
     14 C           1.2693    1.9153   28.8617 C.3     1  UNL1        0.1691
     15 O           0.9071    2.0407   27.4115 O.3     1  UNL1       -0.3443
     16 C           0.9095    1.7955   25.9317 C.3     1  UNL1        0.1686
     17 C           1.2766    1.2091   24.6007 C.2     1  UNL1        0.0036
     18 C           1.9639    0.3524   23.5791 C.2     1  UNL1        0.0036
     19 C           2.8885   -0.6714   22.9901 C.3     1  UNL1        0.1686
     20 O           3.9390   -1.7387   22.9048 O.3     1  UNL1       -0.3442
     21 C           4.9886   -2.7209   23.3334 C.3     1  UNL1        0.1721
     22 C           5.9107   -3.4994   24.2242 C.ar    1  UNL1        0.0425
     23 C           6.5941   -3.9804   25.4698 C.ar    1  UNL1        0.0158
     24 C           6.9564   -4.1058   26.9199 C.ar    1  UNL1        0.0504
     25 C           7.7550   -5.0565   26.0058 C.ar    1  UNL1        0.0178
     26 C           7.7575   -5.3017   24.5260 C.ar    1  UNL1        0.0379
     27 C           6.8354   -4.5232   23.6352 C.ar    1  UNL1        0.1370
     28 N           6.9539   -3.8606   28.3998 N.pl3   1  UNL1       -0.2825
     29 H           7.6428   -4.5052   28.6811 H       1  UNL1        0.1551
     30 O           6.8378   -4.7684   22.1554 O.3     1  UNL1       -0.4742
     31 C           7.8091   -4.0382   21.2758 C.3     1  UNL1        0.2226
     32 C           7.3056   -3.0940   20.2247 C.3     1  UNL1        0.1200
     33 N           5.8651   -3.1342   19.8085 N.3     1  UNL1       -0.2696
     34 C           5.0946   -4.3599   19.4160 C.3     1  UNL1        0.0722
     35 C           3.6954   -3.9389   19.0767 C.3     1  UNL1        0.0188
     36 C           3.6011   -2.4531   19.2594 C.3     1  UNL1        0.0188
     37 C           4.9420   -1.9557   19.7117 C.3     1  UNL1        0.0722
@<TRIPOS>BOND
     1     1     2    1
     2     2     3   ar
     3     3     4   ar
     4     4     5   ar
     5     5     6   ar
     6     6     7   ar
     7     7     8    1
     8     8     9   ar
     9     9    10   ar
    10    10    11   ar
    11    11    12   ar
    12    12    13   ar
    13    12    14    1
    14    14    15    1
    15    15    16    1
    16    16    17    1
    17    17    18    2
    18    18    19    1
    19    19    20    1
    20    20    21    1
    21    21    22    1
    22    22    23   ar
    23    23    24   ar
    24    24    25   ar
    25    25    26   ar
    26    26    27   ar
    27    27    30    1
    28    30    31    1
    29    31    32    1
    30    32    33    1
    31    33    34    1
    32    34    35    1
    33    35    36    1
    34    36    37    1
    35    24    28    1
    36     7     2   ar
    37    13     8   ar
    38    27    22   ar
    39    37    33    1
    40    28     5    1
    41    28    29    1
@<TRIPOS>MOLECULE
*****
 37 41 0 0 0
SMALL
GASTEIGER

@<TRIPOS>ATOM
      1 C           5.5819   -2.9215   20.5692 C.3     1  UNL1        0.0342
      2 C           5.1545   -2.5553   21.9596 C.ar    1  UNL1        0.0151
      3 C           5.8506   -3.1610   23.1422 C.ar    1  UNL1        0.0990
      4 N           5.4232   -2.7948   24.5327 N.ar    1  UNL1       -0.2123
      5 C           4.3365   -1.8559   25.0933 C.ar    1  UNL1        0.2207
      6 N           4.3788   -1.8885   23.5943 N.ar    1  UNL1       -0.2139
      7 C           4.0309   -1.5836   22.1674 C.ar    1  UNL1        0.0817
      8 C           3.3347   -0.9779   20.9848 C.ar    1  UNL1        0.0172
      9 C           3.7621   -1.3441   19.5944 C.ar    1  UNL1        0.0015
     10 C           3.0659   -0.7385   18.4118 C.ar    1  UNL1       -0.0002
     11 C           1.9424    0.2333   18.6196 C.ar    1  UNL1       -0.0019
     12 C           1.5149    0.5995   20.0100 C.ar    1  UNL1        0.0073
     13 C           2.2111   -0.0062   21.1926 C.ar    1  UNL1       -0.0004
     14 C           0.1417    1.7876   20.0840 C.3     1  UNL1        0.1691
     15 O          -0.8610    2.6534   20.7874 O.3     1  UNL1       -0.3443
     16 C          -1.6220    3.3090   21.9014 C.3     1  UNL1        0.1686
     17 C          -2.0494    3.6752   23.2919 C.2     1  UNL1        0.0036
     18 C          -2.0918    3.7078   24.7909 C.2     1  UNL1        0.0036
     19 C          -1.7438    3.4029   26.2178 C.3     1  UNL1        0.1686
     20 O          -1.0477    2.7973   27.4004 O.3     1  UNL1       -0.3442
     21 C          -0.0872    1.9640   28.1961 C.3     1  UNL1        0.1721
     22 C           1.0217    1.0035   28.5089 C.ar    1  UNL1        0.0425
     23 C           2.1453    0.0318   28.3011 C.ar    1  UNL1        0.0158
     24 C           3.1480   -0.8341   27.5978 C.ar    1  UNL1        0.0504
     25 C           3.2395   -0.9174   29.1346 C.ar    1  UNL1        0.0178
     26 C           2.4785   -0.2618   30.2487 C.ar    1  UNL1        0.0379
     27 C           1.3696    0.6986   29.9359 C.ar    1  UNL1        0.1370
     28 N           3.9090   -1.4897   26.4837 N.pl3   1  UNL1       -0.2825
     29 H           4.5394   -2.0366   27.0060 H       1  UNL1        0.1551
     30 O           0.6086    1.3542   31.0499 O.3     1  UNL1       -0.4742
     31 C           1.2655    2.4128   31.8855 C.3     1  UNL1        0.2226
     32 C           1.8890    2.0503   33.2007 C.3     1  UNL1        0.1200
     33 N           1.8516    3.0232   34.3417 N.3     1  UNL1       -0.2696
     34 C           1.1946    4.3716   34.3296 C.3     1  UNL1        0.0722
     35 C           1.4017    5.0003   35.6757 C.3     1  UNL1        0.0188
     36 C           2.1867    4.0404   36.5198 C.3     1  UNL1        0.0188
     37 C           2.4648    2.8186   35.6954 C.3     1  UNL1        0.0722
@<TRIPOS>BOND
     1     1     2    1
     2     2     3   ar
     3     3     4   ar
     4     4     5   ar
     5     5     6   ar
     6     6     7   ar
     7     7     8    1
     8     8     9   ar
     9     9    10   ar
    10    10    11   ar
    11    11    12   ar
    12    12    13   ar
    13    12    14    1
    14    14    15    1
    15    15    16    1
    16    16    17    1
    17    17    18    2
    18    18    19    1
    19    19    20    1
    20    20    21    1
    21    21    22    1
    22    22    23   ar
    23    23    24   ar
    24    24    25   ar
    25    25    26   ar
    26    26    27   ar
    27    27    30    1
    28    30    31    1
    29    31    32    1
    30    32    33    1
    31    33    34    1
    32    34    35    1
    33    35    36    1
    34    36    37    1
    35    24    28    1
    36     7     2   ar
    37    13     8   ar
    38    27    22   ar
    39    37    33    1
    40    28     5    1
    41    28    29    1
@<TRIPOS>MOLECULE
*****
 37 41 0 0 0
SMALL
GASTEIGER

@<TRIPOS>ATOM
      1 C           8.6259   -4.6634   29.8259 C.3     1  UNL1        0.0342
      2 C           7.8950   -4.1871   28.6057 C.ar    1  UNL1        0.0151
      3 C           8.3114   -4.6669   27.2469 C.ar    1  UNL1        0.0990
      4 N           7.5804   -4.1906   26.0267 N.ar    1  UNL1       -0.2123
      5 C           6.3899   -3.2348   25.8116 C.ar    1  UNL1        0.2207
      6 N           6.7680   -3.3989   27.2539 N.ar    1  UNL1       -0.2139
      7 C           6.7476   -3.2309   28.7443 C.ar    1  UNL1        0.0817
      8 C           6.3312   -2.7510   30.1032 C.ar    1  UNL1        0.0172
      9 C           7.0621   -3.2274   31.3233 C.ar    1  UNL1        0.0015
     10 C           6.6457   -2.7475   32.6821 C.ar    1  UNL1       -0.0002
     11 C           5.4984   -1.7913   32.8207 C.ar    1  UNL1       -0.0019
     12 C           4.7674   -1.3150   31.6006 C.ar    1  UNL1        0.0073
     13 C           5.1838   -1.7948   30.2418 C.ar    1  UNL1       -0.0004
     14 C           3.4056   -0.1618   31.9446 C.3     1  UNL1        0.1691
     15 O           2.2653    0.7360   31.5656 O.3     1  UNL1       -0.3443
     16 C           1.2696    1.4672   30.7148 C.3     1  UNL1        0.1686
     17 C           0.5386    1.9436   29.4946 C.2     1  UNL1        0.0036
     18 C           0.1605    2.1077   28.0523 C.2     1  UNL1        0.0036
     19 C           0.1810    1.9396   26.5619 C.3     1  UNL1        0.1686
     20 O           0.5974    1.4598   25.2031 O.3     1  UNL1       -0.3442
     21 C           1.3596    0.7260   24.1398 C.3     1  UNL1        0.1721
     22 C           2.3756   -0.1732   23.5003 C.ar    1  UNL1        0.0425
     23 C           3.5230   -1.1294   23.3617 C.ar    1  UNL1        0.0158
     24 C           4.6633   -2.0273   23.7406 C.ar    1  UNL1        0.0504
     25 C           4.4078   -1.9717   22.2212 C.ar    1  UNL1        0.0178
     26 C           3.4121   -1.2405   21.3703 C.ar    1  UNL1        0.0379
     27 C           2.3960   -0.3413   22.0098 C.ar    1  UNL1        0.1370
     28 N           5.6590   -2.7585   24.5915 N.pl3   1  UNL1       -0.2825
     29 H           6.1592   -3.2401   23.8936 H       1  UNL1        0.1551
     30 O           1.4004    0.3899   21.1590 O.3     1  UNL1       -0.4742
     31 C           1.0100   -0.1616   19.8197 C.3     1  UNL1        0.2226
     32 C           1.4233    0.5506   18.5660 C.3     1  UNL1        0.1200
     33 N           2.8568    0.5220   18.1252 N.3     1  UNL1       -0.2696
     34 C           3.8861    1.5772   18.4030 C.3     1  UNL1        0.0722
     35 C           5.1781    1.1403   17.7786 C.3     1  UNL1        0.0188
     36 C           4.9474   -0.1848   17.1148 C.3     1  UNL1        0.0188
     37 C           3.5128   -0.5670   17.3290 C.3     1  UNL1        0.0722
@<TRIPOS>BOND
     1     1     2    1
     2     2     3   ar
     3     3     4   ar
     4     4     5   ar
     5     5     6   ar
     6     6     7   ar
     7     7     8    1
     8     8     9   ar
     9     9    10   ar
    10    10    11   ar
    11    11    12   ar
    12    12    13   ar
    13    12    14    1
    14    14    15    1
    15    15    16    1
    16    16    17    1
    17    17    18    2
    18    18    19    1
    19    19    20    1
    20    20    21    1
    21    21    22    1
    22    22    23   ar
    23    23    24   ar
    24    24    25   ar
    25    25    26   ar
    26    26    27   ar
    27    27    30    1
    28    30    31    1
    29    31    32    1
    30    32    33    1
    31    33    34    1
    32    34    35    1
    33    35    36    1
    34    36    37    1
    35    24    28    1
    36     7     2   ar
    37    13     8   ar
    38    27    22   ar
    39    37    33    1
    40    28     5    1
    41    28    29    1
