@<TRIPOS>MOLECULE
*****
 34 36 0 0 0
SMALL
GASTEIGER

@<TRIPOS>ATOM
      1 C          -7.5618  -15.6611   25.1209 C.ar    1  UNL1       -0.0024
      2 C          -7.5329  -15.5812   26.6185 C.ar    1  UNL1       -0.0026
      3 C          -8.4027  -16.4906   27.4350 C.ar    1  UNL1       -0.0001
      4 C          -9.3013  -17.4798   26.7539 C.ar    1  UNL1        0.0045
      5 C          -9.3301  -17.5597   25.2562 C.ar    1  UNL1        0.0531
      6 C          -8.4604  -16.6504   24.4398 C.ar    1  UNL1        0.0019
      7 C         -10.2287  -18.5489   24.5751 C.2     1  UNL1        0.2458
      8 O         -11.6607  -18.6795   25.0022 O.2     1  UNL1       -0.2701
      9 N          -9.6953  -19.4077   23.4669 N.am    1  UNL1       -0.3009
     10 H          -8.7554  -19.3220   23.1866 H       1  UNL1        0.1497
     11 C         -10.5939  -20.3969   22.7858 C.3     1  UNL1        0.0897
     12 C         -11.0711  -20.1380   21.3875 C.3     1  UNL1        0.0213
     13 C         -11.4840  -18.7547   20.9801 C.3     1  UNL1        0.0044
     14 C         -10.8579  -18.1080   19.7802 C.3     1  UNL1        0.0172
     15 C         -11.2708  -16.7247   19.3727 C.3     1  UNL1        0.0686
     16 N         -12.3098  -15.9881   20.1651 N.3     1  UNL1       -0.2975
     17 C         -12.9359  -16.6349   21.3650 C.3     1  UNL1        0.0686
     18 C         -12.5230  -18.0181   21.7724 C.3     1  UNL1        0.0172
     19 H         -13.0687  -15.7658   19.5208 H       1  UNL1        0.1232
     20 C          -6.6920  -14.7518   24.3044 C.3     1  UNL1        0.1166
     21 C          -4.6644  -16.2916   23.7870 C.2     1  UNL1        0.2462
     22 O          -4.5870  -16.6760   25.2348 O.2     1  UNL1       -0.2701
     23 N          -5.7170  -15.3295   23.3218 N.am    1  UNL1       -0.2969
     24 H          -5.7678  -15.0772   22.3715 H       1  UNL1        0.1501
     25 C          -1.7393  -18.0249   20.8392 C.ar    1  UNL1        0.1724
     26 C          -1.6436  -16.5797   21.2293 C.ar    1  UNL1        0.0402
     27 C          -2.6186  -16.0020   22.2119 C.ar    1  UNL1        0.0078
     28 C          -3.6894  -16.8694   22.8044 C.ar    1  UNL1        0.0566
     29 C          -3.7851  -18.3146   22.4142 C.ar    1  UNL1        0.0446
     30 C          -2.8101  -18.8923   21.4316 C.ar    1  UNL1        0.1725
     31 C           0.6036  -18.0034   19.7167 C.3     1  UNL1        0.2526
     32 O          -0.7643  -18.6027   19.8566 O.3     1  UNL1       -0.4684
     33 O          -2.9059  -20.3376   21.0414 O.3     1  UNL1       -0.4684
     34 C          -3.9195  -20.7747   20.0259 C.3     1  UNL1        0.2526
@<TRIPOS>BOND
     1    31    32    1
     2    32    25    1
     3    25    26   ar
     4    26    27   ar
     5    27    28   ar
     6    28    21    1
     7    21    22    2
     8    21    23   am
     9    23    20    1
    10    20     1    1
    11     1     2   ar
    12     2     3   ar
    13     3     4   ar
    14     4     5   ar
    15     5     7    1
    16     7     8    2
    17     7     9   am
    18     9    11    1
    19    11    12    1
    20    12    13    1
    21    13    14    1
    22    14    15    1
    23    15    16    1
    24    16    17    1
    25    17    18    1
    26     5     6   ar
    27    28    29   ar
    28    29    30   ar
    29    30    33    1
    30    33    34    1
    31    30    25   ar
    32     6     1   ar
    33    18    13    1
    34    23    24    1
    35     9    10    1
    36    16    19    1
@<TRIPOS>MOLECULE
*****
 34 36 0 0 0
SMALL
GASTEIGER

@<TRIPOS>ATOM
      1 C          -4.8642  -20.0721   21.0480 C.ar    1  UNL1       -0.0024
      2 C          -3.5339  -20.4762   20.4852 C.ar    1  UNL1       -0.0026
      3 C          -2.3062  -19.6807   20.8170 C.ar    1  UNL1       -0.0001
      4 C          -2.4089  -18.4812   21.7117 C.ar    1  UNL1        0.0045
      5 C          -3.7393  -18.0771   22.2746 C.ar    1  UNL1        0.0531
      6 C          -4.9669  -18.8725   21.9427 C.ar    1  UNL1        0.0019
      7 C          -3.8421  -16.8775   23.1693 C.2     1  UNL1        0.2458
      8 O          -3.3211  -15.5494   22.7059 O.2     1  UNL1       -0.2701
      9 N          -4.4658  -17.0060   24.5274 N.am    1  UNL1       -0.3009
     10 H          -4.8077  -17.8777   24.8316 H       1  UNL1        0.1497
     11 C          -4.5685  -15.8065   25.4221 C.3     1  UNL1        0.0897
     12 C          -5.9096  -15.2016   25.7145 C.3     1  UNL1        0.0213
     13 C          -7.0653  -15.4589   24.7936 C.3     1  UNL1        0.0044
     14 C          -6.9529  -15.1209   23.3365 C.3     1  UNL1        0.0172
     15 C          -8.1086  -15.3783   22.4155 C.3     1  UNL1        0.0686
     16 N          -9.3768  -15.9735   22.9517 N.3     1  UNL1       -0.2975
     17 C          -9.4892  -16.3114   24.4088 C.3     1  UNL1        0.0686
     18 C          -8.3335  -16.0541   25.3297 C.3     1  UNL1        0.0172
     19 H          -9.5372  -16.8385   22.4356 H       1  UNL1        0.1232
     20 C          -6.0919  -20.8676   20.7162 C.3     1  UNL1        0.1166
     21 C          -8.2886  -19.4905   20.5484 C.2     1  UNL1        0.2462
     22 O          -7.8271  -18.9132   19.2432 O.2     1  UNL1       -0.2701
     23 N          -7.4211  -20.4677   21.2849 N.am    1  UNL1       -0.2969
     24 H          -7.7240  -20.8466   22.1416 H       1  UNL1        0.1501
     25 C         -12.2761  -18.2910   22.2547 C.ar    1  UNL1        0.1724
     26 C         -11.4219  -19.2911   22.9759 C.ar    1  UNL1        0.0402
     27 C         -10.0928  -19.6909   22.4072 C.ar    1  UNL1        0.0078
     28 C          -9.6178  -19.0907   21.1172 C.ar    1  UNL1        0.0566
     29 C         -10.4720  -18.0906   20.3960 C.ar    1  UNL1        0.0446
     30 C         -11.8011  -17.6908   20.9647 C.ar    1  UNL1        0.1725
     31 C         -13.9087  -18.1444   24.2704 C.3     1  UNL1        0.2526
     32 O         -13.6053  -17.8911   22.8234 O.3     1  UNL1       -0.4684
     33 O         -12.6553  -16.6906   20.2434 O.3     1  UNL1       -0.4684
     34 C         -12.0279  -15.7179   19.2895 C.3     1  UNL1        0.2526
@<TRIPOS>BOND
     1    31    32    1
     2    32    25    1
     3    25    26   ar
     4    26    27   ar
     5    27    28   ar
     6    28    21    1
     7    21    22    2
     8    21    23   am
     9    23    20    1
    10    20     1    1
    11     1     2   ar
    12     2     3   ar
    13     3     4   ar
    14     4     5   ar
    15     5     7    1
    16     7     8    2
    17     7     9   am
    18     9    11    1
    19    11    12    1
    20    12    13    1
    21    13    14    1
    22    14    15    1
    23    15    16    1
    24    16    17    1
    25    17    18    1
    26     5     6   ar
    27    28    29   ar
    28    29    30   ar
    29    30    33    1
    30    33    34    1
    31    30    25   ar
    32     6     1   ar
    33    18    13    1
    34    23    24    1
    35     9    10    1
    36    16    19    1
@<TRIPOS>MOLECULE
*****
 34 36 0 0 0
SMALL
GASTEIGER

@<TRIPOS>ATOM
      1 C          -7.2894  -15.6157   25.4367 C.ar    1  UNL1       -0.0024
      2 C          -7.3221  -15.6013   26.9362 C.ar    1  UNL1       -0.0026
      3 C          -8.2729  -16.4965   27.6743 C.ar    1  UNL1       -0.0001
      4 C          -9.1910  -17.4060   26.9127 C.ar    1  UNL1        0.0045
      5 C          -9.1582  -17.4203   25.4131 C.ar    1  UNL1        0.0531
      6 C          -8.2074  -16.5252   24.6751 C.ar    1  UNL1        0.0019
      7 C         -10.0763  -18.3298   24.6515 C.2     1  UNL1        0.2458
      8 O         -10.2666  -19.7489   25.0985 O.2     1  UNL1       -0.2701
      9 N         -10.8040  -17.8201   23.4429 N.am    1  UNL1       -0.3009
     10 H         -10.6791  -16.8887   23.1495 H       1  UNL1        0.1497
     11 C         -11.7221  -18.7296   22.6813 C.3     1  UNL1        0.0897
     12 C         -11.1546  -19.8249   21.8280 C.3     1  UNL1        0.0213
     13 C          -9.9042  -19.5860   21.0346 C.3     1  UNL1        0.0044
     14 C          -8.6241  -19.2431   21.7372 C.3     1  UNL1        0.0172
     15 C          -7.3738  -19.0042   20.9437 C.3     1  UNL1        0.0686
     16 N          -7.4035  -19.1082   19.4477 N.3     1  UNL1       -0.2975
     17 C          -8.6836  -19.4510   18.7451 C.3     1  UNL1        0.0686
     18 C          -9.9340  -19.6899   19.5385 C.3     1  UNL1        0.0172
     19 H          -6.7246  -19.8240   19.1887 H       1  UNL1        0.1232
     20 C          -6.3385  -14.7205   24.6986 C.3     1  UNL1        0.1166
     21 C          -4.4810  -16.3601   23.9169 C.2     1  UNL1        0.2462
     22 O          -4.3500  -16.8796   25.3179 O.2     1  UNL1       -0.2701
     23 N          -5.4753  -15.2805   23.6072 N.am    1  UNL1       -0.2969
     24 H          -5.5612  -14.9395   22.6877 H       1  UNL1        0.1501
     25 C          -1.8912  -18.0402   20.6427 C.ar    1  UNL1        0.1724
     26 C          -1.7488  -16.6033   21.0488 C.ar    1  UNL1        0.0402
     27 C          -2.6120  -16.0433   22.1402 C.ar    1  UNL1        0.0078
     28 C          -3.6177  -16.9201   22.8255 C.ar    1  UNL1        0.0566
     29 C          -3.7601  -18.3570   22.4194 C.ar    1  UNL1        0.0446
     30 C          -2.8969  -18.9171   21.3280 C.ar    1  UNL1        0.1725
     31 C          -1.0742  -18.0017   18.1768 C.3     1  UNL1        0.2526
     32 O          -1.0279  -18.6003   19.5513 O.3     1  UNL1       -0.4684
     33 O          -3.0393  -20.3541   20.9219 O.3     1  UNL1       -0.4684
     34 C          -4.1926  -20.7798   20.0624 C.3     1  UNL1        0.2526
@<TRIPOS>BOND
     1    31    32    1
     2    32    25    1
     3    25    26   ar
     4    26    27   ar
     5    27    28   ar
     6    28    21    1
     7    21    22    2
     8    21    23   am
     9    23    20    1
    10    20     1    1
    11     1     2   ar
    12     2     3   ar
    13     3     4   ar
    14     4     5   ar
    15     5     7    1
    16     7     8    2
    17     7     9   am
    18     9    11    1
    19    11    12    1
    20    12    13    1
    21    13    14    1
    22    14    15    1
    23    15    16    1
    24    16    17    1
    25    17    18    1
    26     5     6   ar
    27    28    29   ar
    28    29    30   ar
    29    30    33    1
    30    33    34    1
    31    30    25   ar
    32     6     1   ar
    33    18    13    1
    34    23    24    1
    35     9    10    1
    36    16    19    1
@<TRIPOS>MOLECULE
*****
 34 36 0 0 0
SMALL
GASTEIGER

@<TRIPOS>ATOM
      1 C          -9.4260  -19.2934   20.3521 C.ar    1  UNL1       -0.0024
      2 C         -10.8275  -19.0229   19.8912 C.ar    1  UNL1       -0.0026
      3 C         -11.9081  -18.7511   20.8955 C.ar    1  UNL1       -0.0001
      4 C         -11.5871  -18.7499   22.3607 C.ar    1  UNL1        0.0045
      5 C         -10.1855  -19.0205   22.8217 C.ar    1  UNL1        0.0531
      6 C          -9.1050  -19.2922   21.8174 C.ar    1  UNL1        0.0019
      7 C          -9.8644  -19.0193   24.2869 C.2     1  UNL1        0.2458
      8 O          -9.6242  -20.3152   25.0031 O.2     1  UNL1       -0.2701
      9 N          -9.7836  -17.7222   25.0359 N.am    1  UNL1       -0.3009
     10 H          -9.9413  -16.8716   24.5659 H       1  UNL1        0.1497
     11 C          -9.4626  -17.7210   26.5012 C.3     1  UNL1        0.0897
     12 C          -8.5626  -16.6649   27.0709 C.3     1  UNL1        0.0213
     13 C          -7.5304  -16.0102   26.2014 C.3     1  UNL1        0.0044
     14 C          -7.8251  -15.7498   24.7539 C.3     1  UNL1        0.0172
     15 C          -6.7930  -15.0951   23.8844 C.3     1  UNL1        0.0686
     16 N          -5.4662  -14.7007   24.4624 N.3     1  UNL1       -0.2975
     17 C          -5.1715  -14.9612   25.9099 C.3     1  UNL1        0.0686
     18 C          -6.2037  -15.6159   26.7794 C.3     1  UNL1        0.0172
     19 H          -5.3693  -13.6956   24.3184 H       1  UNL1        0.1232
     20 C          -8.3454  -19.5652   19.3478 C.3     1  UNL1        0.1166
     21 C          -5.9044  -19.9374   20.1558 C.2     1  UNL1        0.2462
     22 O          -6.2364  -21.3581   20.5042 O.2     1  UNL1       -0.2701
     23 N          -6.9589  -19.0410   19.5776 N.am    1  UNL1       -0.2969
     24 H          -6.7410  -18.1085   19.3489 H       1  UNL1        0.1501
     25 C          -1.7449  -18.3647   20.8451 C.ar    1  UNL1        0.1724
     26 C          -2.1328  -18.8934   19.4961 C.ar    1  UNL1        0.0402
     27 C          -3.5193  -19.4176   19.2663 C.ar    1  UNL1        0.0078
     28 C          -4.5179  -19.4132   20.3856 C.ar    1  UNL1        0.0566
     29 C          -4.1300  -18.8845   21.7346 C.ar    1  UNL1        0.0446
     30 C          -2.7434  -18.3603   21.9644 C.ar    1  UNL1        0.1725
     31 C           0.5313  -17.5354   19.9064 C.3     1  UNL1        0.2526
     32 O          -0.3584  -17.8405   21.0749 O.3     1  UNL1       -0.4684
     33 O          -2.3555  -17.8316   23.3135 O.3     1  UNL1       -0.4684
     34 C          -3.3792  -17.7405   24.4061 C.3     1  UNL1        0.2526
@<TRIPOS>BOND
     1    31    32    1
     2    32    25    1
     3    25    26   ar
     4    26    27   ar
     5    27    28   ar
     6    28    21    1
     7    21    22    2
     8    21    23   am
     9    23    20    1
    10    20     1    1
    11     1     2   ar
    12     2     3   ar
    13     3     4   ar
    14     4     5   ar
    15     5     7    1
    16     7     8    2
    17     7     9   am
    18     9    11    1
    19    11    12    1
    20    12    13    1
    21    13    14    1
    22    14    15    1
    23    15    16    1
    24    16    17    1
    25    17    18    1
    26     5     6   ar
    27    28    29   ar
    28    29    30   ar
    29    30    33    1
    30    33    34    1
    31    30    25   ar
    32     6     1   ar
    33    18    13    1
    34    23    24    1
    35     9    10    1
    36    16    19    1
@<TRIPOS>MOLECULE
*****
 34 36 0 0 0
SMALL
GASTEIGER

@<TRIPOS>ATOM
      1 C          -9.4748  -19.2847   20.5438 C.ar    1  UNL1       -0.0024
      2 C         -10.8792  -19.0181   20.0894 C.ar    1  UNL1       -0.0026
      3 C         -11.9518  -18.7301   21.0977 C.ar    1  UNL1       -0.0001
      4 C         -11.6199  -18.7086   22.5604 C.ar    1  UNL1        0.0045
      5 C         -10.2154  -18.9752   23.0148 C.ar    1  UNL1        0.0531
      6 C          -9.1429  -19.2632   22.0065 C.ar    1  UNL1        0.0019
      7 C          -9.8835  -18.9537   24.4774 C.2     1  UNL1        0.2458
      8 O          -9.6913  -20.2416   25.2219 O.2     1  UNL1       -0.2701
      9 N          -9.7439  -17.6442   25.1957 N.am    1  UNL1       -0.3009
     10 H          -9.8700  -16.7989   24.7070 H       1  UNL1        0.1497
     11 C          -9.4120  -17.6227   26.6583 C.3     1  UNL1        0.0897
     12 C          -8.4296  -16.6215   27.1899 C.3     1  UNL1        0.0213
     13 C          -7.4375  -15.9805   26.2653 C.3     1  UNL1        0.0044
     14 C          -6.0273  -15.7500   26.7216 C.3     1  UNL1        0.0172
     15 C          -5.0351  -15.1090   25.7971 C.3     1  UNL1        0.0686
     16 N          -5.4531  -14.6985   24.4163 N.3     1  UNL1       -0.2975
     17 C          -6.8633  -14.9290   23.9600 C.3     1  UNL1        0.0686
     18 C          -7.8555  -15.5700   24.8845 C.3     1  UNL1        0.0172
     19 H          -4.8475  -15.1976   23.7647 H       1  UNL1        0.1232
     20 C          -8.4021  -19.5727   19.5355 C.3     1  UNL1        0.1166
     21 C          -5.9170  -20.0623   20.1137 C.2     1  UNL1        0.2462
     22 O          -6.2308  -21.5250   20.2237 O.2     1  UNL1       -0.2701
     23 N          -7.0026  -19.0862   19.7696 N.am    1  UNL1       -0.2969
     24 H          -6.7967  -18.1262   19.6973 H       1  UNL1        0.1501
     25 C          -1.7185  -18.6028   20.8158 C.ar    1  UNL1        0.1724
     26 C          -2.5657  -19.0361   21.9753 C.ar    1  UNL1        0.0402
     27 C          -3.9652  -19.5226   21.7413 C.ar    1  UNL1        0.0078
     28 C          -4.5175  -19.5758   20.3477 C.ar    1  UNL1        0.0566
     29 C          -3.6703  -19.1426   19.1882 C.ar    1  UNL1        0.0446
     30 C          -2.2708  -18.6561   19.4222 C.ar    1  UNL1        0.1725
     31 C           0.2640  -17.0552   20.1645 C.3     1  UNL1        0.2526
     32 O          -0.3191  -18.1163   21.0498 O.3     1  UNL1       -0.4684
     33 O          -1.4237  -18.2228   18.2626 O.3     1  UNL1       -0.4684
     34 C          -2.0417  -17.4693   17.1224 C.3     1  UNL1        0.2526
@<TRIPOS>BOND
     1    31    32    1
     2    32    25    1
     3    25    26   ar
     4    26    27   ar
     5    27    28   ar
     6    28    21    1
     7    21    22    2
     8    21    23   am
     9    23    20    1
    10    20     1    1
    11     1     2   ar
    12     2     3   ar
    13     3     4   ar
    14     4     5   ar
    15     5     7    1
    16     7     8    2
    17     7     9   am
    18     9    11    1
    19    11    12    1
    20    12    13    1
    21    13    14    1
    22    14    15    1
    23    15    16    1
    24    16    17    1
    25    17    18    1
    26     5     6   ar
    27    28    29   ar
    28    29    30   ar
    29    30    33    1
    30    33    34    1
    31    30    25   ar
    32     6     1   ar
    33    18    13    1
    34    23    24    1
    35     9    10    1
    36    16    19    1
@<TRIPOS>MOLECULE
*****
 34 36 0 0 0
SMALL
GASTEIGER

@<TRIPOS>ATOM
      1 C          -8.6625  -16.4436   24.8930 C.ar    1  UNL1       -0.0024
      2 C          -8.7372  -15.7862   26.2392 C.ar    1  UNL1       -0.0026
      3 C          -7.5152  -15.1491   26.8315 C.ar    1  UNL1       -0.0001
      4 C          -6.2185  -15.1694   26.0776 C.ar    1  UNL1        0.0045
      5 C          -6.1439  -15.8268   24.7314 C.ar    1  UNL1        0.0531
      6 C          -7.3659  -16.4639   24.1391 C.ar    1  UNL1        0.0019
      7 C          -4.8473  -15.8471   23.9775 C.2     1  UNL1        0.2458
      8 O          -4.4129  -14.6404   23.1998 O.2     1  UNL1       -0.2701
      9 N          -3.9849  -17.0743   24.0015 N.am    1  UNL1       -0.3009
     10 H          -4.2700  -17.8664   24.5120 H       1  UNL1        0.1497
     11 C          -2.6883  -17.0946   23.2476 C.3     1  UNL1        0.0897
     12 C          -2.3159  -18.2946   22.4282 C.3     1  UNL1        0.0213
     13 C          -1.9307  -18.1291   20.9880 C.3     1  UNL1        0.0044
     14 C          -0.5147  -17.7939   20.6241 C.3     1  UNL1        0.0172
     15 C          -0.1295  -17.6284   19.1839 C.3     1  UNL1        0.0686
     16 N          -1.1603  -17.7981   18.1075 N.3     1  UNL1       -0.2975
     17 C          -2.5763  -18.1333   18.4714 C.3     1  UNL1        0.0686
     18 C          -2.9615  -18.2988   19.9116 C.3     1  UNL1        0.0172
     19 H          -0.8285  -18.5449   17.4971 H       1  UNL1        0.1232
     20 C          -9.8845  -17.0808   24.3007 C.3     1  UNL1        0.1166
     21 C          -9.4514  -17.6528   21.8037 C.2     1  UNL1        0.2462
     22 O          -9.2978  -16.1929   21.4959 O.2     1  UNL1       -0.2701
     23 N          -9.7448  -18.0968   23.2061 N.am    1  UNL1       -0.2969
     24 H          -9.8456  -19.0550   23.4081 H       1  UNL1        0.1501
     25 C          -9.0322  -20.7010   18.5199 C.ar    1  UNL1        0.1724
     26 C         -10.2829  -19.8796   18.6256 C.ar    1  UNL1        0.0402
     27 C         -10.4226  -18.8636   19.7202 C.ar    1  UNL1        0.0078
     28 C          -9.3117  -18.6689   20.7091 C.ar    1  UNL1        0.0566
     29 C          -8.0610  -19.4902   20.6033 C.ar    1  UNL1        0.0446
     30 C          -7.9213  -20.5062   19.5087 C.ar    1  UNL1        0.1725
     31 C          -9.5456  -21.4816   16.0956 C.3     1  UNL1        0.2526
     32 O          -8.8925  -21.7170   17.4253 O.3     1  UNL1       -0.4684
     33 O          -6.6706  -21.3276   19.4030 O.3     1  UNL1       -0.4684
     34 C          -5.4997  -21.0287   20.2916 C.3     1  UNL1        0.2526
@<TRIPOS>BOND
     1    31    32    1
     2    32    25    1
     3    25    26   ar
     4    26    27   ar
     5    27    28   ar
     6    28    21    1
     7    21    22    2
     8    21    23   am
     9    23    20    1
    10    20     1    1
    11     1     2   ar
    12     2     3   ar
    13     3     4   ar
    14     4     5   ar
    15     5     7    1
    16     7     8    2
    17     7     9   am
    18     9    11    1
    19    11    12    1
    20    12    13    1
    21    13    14    1
    22    14    15    1
    23    15    16    1
    24    16    17    1
    25    17    18    1
    26     5     6   ar
    27    28    29   ar
    28    29    30   ar
    29    30    33    1
    30    33    34    1
    31    30    25   ar
    32     6     1   ar
    33    18    13    1
    34    23    24    1
    35     9    10    1
    36    16    19    1
@<TRIPOS>MOLECULE
*****
 34 36 0 0 0
SMALL
GASTEIGER

@<TRIPOS>ATOM
      1 C         -10.0006  -18.8806   20.8072 C.ar    1  UNL1       -0.0024
      2 C         -10.7278  -19.6130   19.7188 C.ar    1  UNL1       -0.0026
      3 C          -9.9552  -20.3173   18.6430 C.ar    1  UNL1       -0.0001
      4 C          -8.4556  -20.2892   18.6557 C.ar    1  UNL1        0.0045
      5 C          -7.7284  -19.5567   19.7443 C.ar    1  UNL1        0.0531
      6 C          -8.5009  -18.8525   20.8200 C.ar    1  UNL1        0.0019
      7 C          -6.2287  -19.5286   19.7570 C.2     1  UNL1        0.2458
      8 O          -5.4994  -18.2634   19.4143 O.2     1  UNL1       -0.2701
      9 N          -5.4584  -20.7656   20.1125 N.am    1  UNL1       -0.3009
     10 H          -5.9370  -21.5960   20.3374 H       1  UNL1        0.1497
     11 C          -3.9587  -20.7375   20.1252 C.3     1  UNL1        0.0897
     12 C          -3.2291  -20.1795   21.3111 C.3     1  UNL1        0.0213
     13 C          -2.4919  -18.8784   21.1940 C.3     1  UNL1        0.0044
     14 C          -2.8576  -17.7266   22.0826 C.3     1  UNL1        0.0172
     15 C          -2.1204  -16.4256   21.9656 C.3     1  UNL1        0.0686
     16 N          -1.0175  -16.2763   20.9600 N.3     1  UNL1       -0.2975
     17 C          -0.6517  -17.4281   20.0714 C.3     1  UNL1        0.0686
     18 C          -1.3889  -18.7292   20.1885 C.3     1  UNL1        0.0172
     19 H          -0.1763  -16.0271   21.4803 H       1  UNL1        0.1232
     20 C         -10.7732  -18.1763   21.8830 C.3     1  UNL1        0.1166
     21 C          -9.4519  -17.9445   24.1080 C.2     1  UNL1        0.2462
     22 O          -9.5666  -19.4235   24.3302 O.2     1  UNL1       -0.2701
     23 N         -10.0551  -17.3209   22.8844 N.am    1  UNL1       -0.2969
     24 H          -9.9798  -16.3502   22.7385 H       1  UNL1        0.1501
     25 C          -7.2977  -15.3783   27.1120 C.ar    1  UNL1        0.1724
     26 C          -8.4476  -16.2375   27.5471 C.ar    1  UNL1        0.0402
     27 C          -9.1657  -17.0929   26.5458 C.ar    1  UNL1        0.0078
     28 C          -8.7338  -17.0891   25.1093 C.ar    1  UNL1        0.0566
     29 C          -7.5839  -16.2298   24.6742 C.ar    1  UNL1        0.0446
     30 C          -6.8659  -15.3744   25.6756 C.ar    1  UNL1        0.1725
     31 C          -7.2489  -13.3036   28.6751 C.3     1  UNL1        0.2526
     32 O          -6.5797  -14.5229   28.1134 O.3     1  UNL1       -0.4684
     33 O          -5.7159  -14.5151   25.2404 O.3     1  UNL1       -0.4684
     34 C          -4.8740  -14.9259   24.0689 C.3     1  UNL1        0.2526
@<TRIPOS>BOND
     1    31    32    1
     2    32    25    1
     3    25    26   ar
     4    26    27   ar
     5    27    28   ar
     6    28    21    1
     7    21    22    2
     8    21    23   am
     9    23    20    1
    10    20     1    1
    11     1     2   ar
    12     2     3   ar
    13     3     4   ar
    14     4     5   ar
    15     5     7    1
    16     7     8    2
    17     7     9   am
    18     9    11    1
    19    11    12    1
    20    12    13    1
    21    13    14    1
    22    14    15    1
    23    15    16    1
    24    16    17    1
    25    17    18    1
    26     5     6   ar
    27    28    29   ar
    28    29    30   ar
    29    30    33    1
    30    33    34    1
    31    30    25   ar
    32     6     1   ar
    33    18    13    1
    34    23    24    1
    35     9    10    1
    36    16    19    1
@<TRIPOS>MOLECULE
*****
 34 36 0 0 0
SMALL
GASTEIGER

@<TRIPOS>ATOM
      1 C          -1.3342    3.4720   19.4222 C.ar    1  UNL1       -0.0024
      2 C          -1.1171    3.7841   17.9713 C.ar    1  UNL1       -0.0026
      3 C          -2.2800    4.1655   17.1039 C.ar    1  UNL1       -0.0001
      4 C          -3.6601    4.2347   17.6876 C.ar    1  UNL1        0.0045
      5 C          -3.8771    3.9226   19.1387 C.ar    1  UNL1        0.0531
      6 C          -2.7142    3.5413   20.0060 C.ar    1  UNL1        0.0019
      7 C          -5.2572    3.9918   19.7224 C.2     1  UNL1        0.2458
      8 O          -6.3559    3.1446   19.1525 O.2     1  UNL1       -0.2701
      9 N          -5.5384    4.9083   20.8762 N.am    1  UNL1       -0.3009
     10 H          -4.8172    5.4644   21.2502 H       1  UNL1        0.1497
     11 C          -6.9184    4.9775   21.4599 C.3     1  UNL1        0.0897
     12 C          -7.2329    4.2452   22.7306 C.3     1  UNL1        0.0213
     13 C          -6.2914    4.3260   23.8955 C.3     1  UNL1        0.0044
     14 C          -6.5912    5.2486   25.0395 C.3     1  UNL1        0.0172
     15 C          -5.6497    5.3295   26.2044 C.3     1  UNL1        0.0686
     16 N          -4.4084    4.4877   26.2253 N.3     1  UNL1       -0.2975
     17 C          -4.1086    3.5650   25.0813 C.3     1  UNL1        0.0686
     18 C          -5.0501    3.4842   23.9164 C.3     1  UNL1        0.0172
     19 H          -4.4586    3.9097   27.0643 H       1  UNL1        0.1232
     20 C          -0.1713    3.0907   20.2896 C.3     1  UNL1        0.1166
     21 C           0.9265    0.7755   19.8601 C.2     1  UNL1        0.2462
     22 O          -0.2158    0.1035   20.5625 O.2     1  UNL1       -0.2701
     23 N           0.9488    2.2691   19.7236 N.am    1  UNL1       -0.2969
     24 H           1.6986    2.7101   19.2626 H       1  UNL1        0.1501
     25 C           4.2868   -1.6895   18.1621 C.ar    1  UNL1        0.1724
     26 C           3.8914   -0.4030   17.4998 C.ar    1  UNL1        0.0402
     27 C           2.7713    0.4187   18.0658 C.ar    1  UNL1        0.0078
     28 C           2.0466   -0.0462   19.2941 C.ar    1  UNL1        0.0566
     29 C           2.4420   -1.3326   19.9564 C.ar    1  UNL1        0.0446
     30 C           3.5620   -2.1543   19.3904 C.ar    1  UNL1        0.1725
     31 C           6.7998   -2.3478   18.1281 C.3     1  UNL1        0.2526
     32 O           5.4068   -2.5111   17.5961 O.3     1  UNL1       -0.4684
     33 O           3.9574   -3.4408   20.0528 O.3     1  UNL1       -0.4684
     34 C           3.5388   -4.7514   19.4554 C.3     1  UNL1        0.2526
@<TRIPOS>BOND
     1    31    32    1
     2    32    25    1
     3    25    26   ar
     4    26    27   ar
     5    27    28   ar
     6    28    21    1
     7    21    22    2
     8    21    23   am
     9    23    20    1
    10    20     1    1
    11     1     2   ar
    12     2     3   ar
    13     3     4   ar
    14     4     5   ar
    15     5     7    1
    16     7     8    2
    17     7     9   am
    18     9    11    1
    19    11    12    1
    20    12    13    1
    21    13    14    1
    22    14    15    1
    23    15    16    1
    24    16    17    1
    25    17    18    1
    26     5     6   ar
    27    28    29   ar
    28    29    30   ar
    29    30    33    1
    30    33    34    1
    31    30    25   ar
    32     6     1   ar
    33    18    13    1
    34    23    24    1
    35     9    10    1
    36    16    19    1
@<TRIPOS>MOLECULE
*****
 34 36 0 0 0
SMALL
GASTEIGER

@<TRIPOS>ATOM
      1 C           7.8304   -6.8184   25.6612 C.ar    1  UNL1       -0.0024
      2 C           8.7201   -7.6719   24.8069 C.ar    1  UNL1       -0.0026
      3 C           9.0190   -7.2647   23.3944 C.ar    1  UNL1       -0.0001
      4 C           8.4281   -6.0040   22.8364 C.ar    1  UNL1        0.0045
      5 C           7.5384   -5.1505   23.6907 C.ar    1  UNL1        0.0531
      6 C           7.2395   -5.5577   25.1031 C.ar    1  UNL1        0.0019
      7 C           6.9475   -3.8898   23.1326 C.2     1  UNL1        0.2458
      8 O           7.6374   -3.1702   22.0119 O.2     1  UNL1       -0.2701
      9 N           5.6665   -3.3487   23.6953 N.am    1  UNL1       -0.3009
     10 H           5.2137   -3.8210   24.4309 H       1  UNL1        0.1497
     11 C           5.0756   -2.0880   23.1372 C.3     1  UNL1        0.0897
     12 C           3.9646   -2.1613   22.1321 C.3     1  UNL1        0.0213
     13 C           4.2725   -2.4561   20.6940 C.3     1  UNL1        0.0044
     14 C           4.3693   -1.3347   19.7026 C.3     1  UNL1        0.0172
     15 C           4.6772   -1.6295   18.2644 C.3     1  UNL1        0.0686
     16 N           4.8884   -3.0457   17.8177 N.3     1  UNL1       -0.2975
     17 C           4.7916   -4.1671   18.8091 C.3     1  UNL1        0.0686
     18 C           4.4837   -3.8724   20.2472 C.3     1  UNL1        0.0172
     19 H           5.8235   -3.0904   17.4128 H       1  UNL1        0.1232
     20 C           7.5315   -7.2256   27.0736 C.3     1  UNL1        0.1166
     21 C           7.7776   -5.4065   28.9122 C.2     1  UNL1        0.2462
     22 O           9.2695   -5.5510   28.8553 O.2     1  UNL1       -0.2701
     23 N           6.9086   -6.2438   28.0213 N.am    1  UNL1       -0.2969
     24 H           5.9294   -6.1490   28.0586 H       1  UNL1        0.1501
     25 C           5.9089   -2.4612   31.7553 C.ar    1  UNL1        0.1724
     26 C           6.5007   -3.7365   32.2782 C.ar    1  UNL1        0.0402
     27 C           7.1236   -4.7182   31.3305 C.ar    1  UNL1        0.0078
     28 C           7.1547   -4.4248   29.8599 C.ar    1  UNL1        0.0566
     29 C           6.5630   -3.1495   29.3369 C.ar    1  UNL1        0.0446
     30 C           5.9401   -2.1677   30.2846 C.ar    1  UNL1        0.1725
     31 C           4.3831   -1.9638   33.7984 C.3     1  UNL1        0.2526
     32 O           5.2860   -1.4794   32.7030 O.3     1  UNL1       -0.4684
     33 O           5.3483   -0.8924   29.7616 O.3     1  UNL1       -0.4684
     34 C           6.2427    0.2551   29.3966 C.3     1  UNL1        0.2526
@<TRIPOS>BOND
     1    31    32    1
     2    32    25    1
     3    25    26   ar
     4    26    27   ar
     5    27    28   ar
     6    28    21    1
     7    21    22    2
     8    21    23   am
     9    23    20    1
    10    20     1    1
    11     1     2   ar
    12     2     3   ar
    13     3     4   ar
    14     4     5   ar
    15     5     7    1
    16     7     8    2
    17     7     9   am
    18     9    11    1
    19    11    12    1
    20    12    13    1
    21    13    14    1
    22    14    15    1
    23    15    16    1
    24    16    17    1
    25    17    18    1
    26     5     6   ar
    27    28    29   ar
    28    29    30   ar
    29    30    33    1
    30    33    34    1
    31    30    25   ar
    32     6     1   ar
    33    18    13    1
    34    23    24    1
    35     9    10    1
    36    16    19    1
