@<TRIPOS>MOLECULE
*****
 18 18 0 0 0
SMALL
GASTEIGER

@<TRIPOS>ATOM
      1 C          -9.5736  -18.5404   23.7116 C.ar    1  UNL1       -0.0221
      2 C          -8.8483  -17.2701   23.3798 C.ar    1  UNL1       -0.0030
      3 C          -7.5834  -17.3168   22.5750 C.ar    1  UNL1        0.0143
      4 C          -7.0437  -18.6340   22.1019 C.ar    1  UNL1        0.0495
      5 C          -7.7690  -19.9044   22.4337 C.ar    1  UNL1        0.0143
      6 C          -9.0339  -19.8576   23.2386 C.ar    1  UNL1       -0.0030
      7 N          -5.7788  -18.6808   21.2971 N.pl3   1  UNL1       -0.2930
      8 H          -5.7748  -18.3575   20.3672 H       1  UNL1        0.1538
      9 C          -4.5200  -19.2202   21.9090 C.2     1  UNL1        0.2056
     10 N          -3.3984  -19.6865   21.0290 N.2     1  UNL1       -0.0679
     11 O          -2.1395  -20.2260   21.6410 O.2     1  UNL1       -0.4077
     12 H          -1.4388  -20.5173   21.0913 H       1  UNL1        0.3278
     13 C         -10.8385  -18.4936   24.5165 C.3     1  UNL1        0.0264
     14 C         -12.1691  -18.5289   23.8250 C.3     1  UNL1        0.0047
     15 C         -12.5453  -17.4383   22.8663 C.3     1  UNL1        0.0003
     16 C         -12.6012  -17.7202   21.3941 C.3     1  UNL1        0.0000
     17 C         -10.6889  -18.8946   20.0849 C.3     1  UNL1        0.0000
     18 C         -11.3525  -17.6388   20.5670 C.3     1  UNL1        0.0000
@<TRIPOS>BOND
     1    17    18    1
     2    18    16    1
     3    16    15    1
     4    15    14    1
     5    14    13    1
     6    13     1    1
     7     1     2   ar
     8     2     3   ar
     9     3     4   ar
    10     4     7    1
    11     7     9    1
    12     9    10    2
    13    10    11    1
    14     4     5   ar
    15     5     6   ar
    16     6     1   ar
    17     7     8    1
    18    11    12    1
@<TRIPOS>MOLECULE
*****
 18 18 0 0 0
SMALL
GASTEIGER

@<TRIPOS>ATOM
      1 C          -9.3550  -17.2415   25.1391 C.ar    1  UNL1       -0.0221
      2 C          -9.2551  -16.2807   23.9916 C.ar    1  UNL1       -0.0030
      3 C          -9.8208  -16.6504   22.6524 C.ar    1  UNL1        0.0143
      4 C         -10.4865  -17.9808   22.4608 C.ar    1  UNL1        0.0495
      5 C         -10.5864  -18.9416   23.6083 C.ar    1  UNL1        0.0143
      6 C         -10.0207  -18.5719   24.9475 C.ar    1  UNL1       -0.0030
      7 N         -11.0522  -18.3505   21.1217 N.pl3   1  UNL1       -0.2930
      8 H         -11.3525  -19.2725   20.9517 H       1  UNL1        0.1538
      9 C         -11.1603  -17.3154   20.0415 C.2     1  UNL1        0.2056
     10 N         -12.3377  -16.3866   20.0078 N.2     1  UNL1       -0.0679
     11 O         -12.4458  -15.3515   18.9276 O.2     1  UNL1       -0.4077
     12 H         -13.1812  -14.7713   18.9065 H       1  UNL1        0.3278
     13 C          -8.7893  -16.8718   26.4782 C.3     1  UNL1        0.0264
     14 C          -8.2070  -15.5066   26.6955 C.3     1  UNL1        0.0047
     15 C          -6.8157  -15.3623   27.2373 C.3     1  UNL1        0.0003
     16 C          -5.6654  -15.1394   26.3007 C.3     1  UNL1        0.0000
     17 C          -5.0789  -15.2957   23.7745 C.3     1  UNL1        0.0000
     18 C          -5.5587  -15.9440   25.0392 C.3     1  UNL1        0.0000
@<TRIPOS>BOND
     1    17    18    1
     2    18    16    1
     3    16    15    1
     4    15    14    1
     5    14    13    1
     6    13     1    1
     7     1     2   ar
     8     2     3   ar
     9     3     4   ar
    10     4     7    1
    11     7     9    1
    12     9    10    2
    13    10    11    1
    14     4     5   ar
    15     5     6   ar
    16     6     1   ar
    17     7     8    1
    18    11    12    1
@<TRIPOS>MOLECULE
*****
 18 18 0 0 0
SMALL
GASTEIGER

@<TRIPOS>ATOM
      1 C          -9.5268  -19.5210   21.6037 C.ar    1  UNL1       -0.0221
      2 C          -9.3472  -19.5468   20.1148 C.ar    1  UNL1       -0.0030
      3 C          -7.9958  -19.2874   19.5177 C.ar    1  UNL1        0.0143
      4 C          -6.8240  -19.0022   20.4096 C.ar    1  UNL1        0.0495
      5 C          -7.0036  -18.9764   21.8986 C.ar    1  UNL1        0.0143
      6 C          -8.3550  -19.2358   22.4956 C.ar    1  UNL1       -0.0030
      7 N          -5.4726  -18.7429   19.8126 N.pl3   1  UNL1       -0.2930
      8 H          -5.3284  -17.9504   19.2465 H       1  UNL1        0.1538
      9 C          -4.3409  -19.6909   20.0780 C.2     1  UNL1        0.2056
     10 N          -3.2850  -19.3357   21.0824 N.2     1  UNL1       -0.0679
     11 O          -2.1532  -20.2838   21.3479 O.2     1  UNL1       -0.4077
     12 H          -1.4936  -20.0620   21.9753 H       1  UNL1        0.3278
     13 C         -10.8782  -19.7803   22.2008 C.3     1  UNL1        0.0264
     14 C         -11.3384  -18.9873   23.3879 C.3     1  UNL1        0.0047
     15 C         -12.4164  -17.9564   23.2290 C.3     1  UNL1        0.0003
     16 C         -12.1610  -16.7238   22.4131 C.3     1  UNL1        0.0000
     17 C         -11.3272  -16.3012   19.9890 C.3     1  UNL1        0.0000
     18 C         -12.4069  -16.7396   20.9335 C.3     1  UNL1        0.0000
@<TRIPOS>BOND
     1    17    18    1
     2    18    16    1
     3    16    15    1
     4    15    14    1
     5    14    13    1
     6    13     1    1
     7     1     2   ar
     8     2     3   ar
     9     3     4   ar
    10     4     7    1
    11     7     9    1
    12     9    10    2
    13    10    11    1
    14     4     5   ar
    15     5     6   ar
    16     6     1   ar
    17     7     8    1
    18    11    12    1
@<TRIPOS>MOLECULE
*****
 18 18 0 0 0
SMALL
GASTEIGER

@<TRIPOS>ATOM
      1 C          -6.9972  -19.2754   21.4103 C.ar    1  UNL1       -0.0221
      2 C          -6.4452  -20.2047   20.3703 C.ar    1  UNL1       -0.0030
      3 C          -4.9666  -20.4429   20.2862 C.ar    1  UNL1        0.0143
      4 C          -4.0401  -19.7519   21.2422 C.ar    1  UNL1        0.0495
      5 C          -4.5921  -18.8226   22.2822 C.ar    1  UNL1        0.0143
      6 C          -6.0707  -18.5843   22.3662 C.ar    1  UNL1       -0.0030
      7 N          -2.5615  -19.9901   21.1581 N.pl3   1  UNL1       -0.2930
      8 H          -2.1707  -20.8031   21.5526 H       1  UNL1        0.1538
      9 C          -1.6784  -18.9898   20.4730 C.2     1  UNL1        0.2056
     10 N          -1.8683  -18.6966   19.0143 N.2     1  UNL1       -0.0679
     11 O          -0.9851  -17.6962   18.3291 O.2     1  UNL1       -0.4077
     12 H          -1.1037  -17.5131   17.4179 H       1  UNL1        0.3278
     13 C          -8.4758  -19.0372   21.4943 C.3     1  UNL1        0.0264
     14 C          -9.3524  -19.3394   20.3153 C.3     1  UNL1        0.0047
     15 C         -10.8439  -19.2503   20.4472 C.3     1  UNL1        0.0003
     16 C         -11.5230  -17.9138   20.3934 C.3     1  UNL1        0.0000
     17 C         -12.4649  -18.1000   22.8076 C.3     1  UNL1        0.0000
     18 C         -12.5669  -17.5615   21.4113 C.3     1  UNL1        0.0000
@<TRIPOS>BOND
     1    17    18    1
     2    18    16    1
     3    16    15    1
     4    15    14    1
     5    14    13    1
     6    13     1    1
     7     1     2   ar
     8     2     3   ar
     9     3     4   ar
    10     4     7    1
    11     7     9    1
    12     9    10    2
    13    10    11    1
    14     4     5   ar
    15     5     6   ar
    16     6     1   ar
    17     7     8    1
    18    11    12    1
@<TRIPOS>MOLECULE
*****
 18 18 0 0 0
SMALL
GASTEIGER

@<TRIPOS>ATOM
      1 C          -6.9114  -19.7220   20.7075 C.ar    1  UNL1       -0.0221
      2 C          -8.0687  -19.8070   19.7569 C.ar    1  UNL1       -0.0030
      3 C          -9.3492  -19.0905   20.0683 C.ar    1  UNL1        0.0143
      4 C          -9.4724  -18.2890   21.3301 C.ar    1  UNL1        0.0495
      5 C          -8.3152  -18.2040   22.2807 C.ar    1  UNL1        0.0143
      6 C          -7.0347  -18.9205   21.9693 C.ar    1  UNL1       -0.0030
      7 N         -10.7529  -17.5725   21.6415 N.pl3   1  UNL1       -0.2930
      8 H         -11.3308  -17.8921   22.3716 H       1  UNL1        0.1538
      9 C         -11.1529  -16.3691   20.8404 C.2     1  UNL1        0.2056
     10 N         -12.0509  -16.5257   19.6491 N.2     1  UNL1       -0.0679
     11 O         -12.4508  -15.3222   18.8480 O.2     1  UNL1       -0.4077
     12 H         -13.0118  -15.4200   18.1039 H       1  UNL1        0.3278
     13 C          -5.6309  -20.4385   20.3961 C.3     1  UNL1        0.0264
     14 C          -4.3598  -19.6614   20.2224 C.3     1  UNL1        0.0047
     15 C          -3.2200  -19.8649   21.1761 C.3     1  UNL1        0.0003
     16 C          -2.2658  -18.7416   21.4549 C.3     1  UNL1        0.0000
     17 C          -3.7959  -17.8708   23.3655 C.3     1  UNL1        0.0000
     18 C          -2.4816  -17.8516   22.6429 C.3     1  UNL1        0.0000
@<TRIPOS>BOND
     1    17    18    1
     2    18    16    1
     3    16    15    1
     4    15    14    1
     5    14    13    1
     6    13     1    1
     7     1     2   ar
     8     2     3   ar
     9     3     4   ar
    10     4     7    1
    11     7     9    1
    12     9    10    2
    13    10    11    1
    14     4     5   ar
    15     5     6   ar
    16     6     1   ar
    17     7     8    1
    18    11    12    1
@<TRIPOS>MOLECULE
*****
 18 18 0 0 0
SMALL
GASTEIGER

@<TRIPOS>ATOM
      1 C          -8.4139  -18.9728   20.8265 C.ar    1  UNL1       -0.0221
      2 C          -7.9765  -18.0843   21.9531 C.ar    1  UNL1       -0.0030
      3 C          -6.6110  -18.2492   22.5516 C.ar    1  UNL1        0.0143
      4 C          -5.6829  -19.3026   22.0235 C.ar    1  UNL1        0.0495
      5 C          -6.1203  -20.1911   20.8970 C.ar    1  UNL1        0.0143
      6 C          -7.4858  -20.0262   20.2984 C.ar    1  UNL1       -0.0030
      7 N          -4.3174  -19.4676   22.6221 N.pl3   1  UNL1       -0.2930
      8 H          -4.2064  -19.9620   23.4661 H       1  UNL1        0.1538
      9 C          -3.1211  -18.8793   21.9346 C.2     1  UNL1        0.2056
     10 N          -2.1341  -19.7762   21.2480 N.2     1  UNL1       -0.0679
     11 O          -0.9378  -19.1878   20.5605 O.2     1  UNL1       -0.4077
     12 H          -0.3212  -19.7481   20.1317 H       1  UNL1        0.3278
     13 C          -9.7794  -18.8078   20.2280 C.3     1  UNL1        0.0264
     14 C         -10.9077  -19.6866   20.6803 C.3     1  UNL1        0.0047
     15 C         -11.0463  -20.0422   22.1309 C.3     1  UNL1        0.0003
     16 C         -11.4049  -18.9839   23.1316 C.3     1  UNL1        0.0000
     17 C         -12.1390  -16.5795   22.4759 C.3     1  UNL1        0.0000
     18 C         -12.4904  -17.9960   22.8221 C.3     1  UNL1        0.0000
@<TRIPOS>BOND
     1    17    18    1
     2    18    16    1
     3    16    15    1
     4    15    14    1
     5    14    13    1
     6    13     1    1
     7     1     2   ar
     8     2     3   ar
     9     3     4   ar
    10     4     7    1
    11     7     9    1
    12     9    10    2
    13    10    11    1
    14     4     5   ar
    15     5     6   ar
    16     6     1   ar
    17     7     8    1
    18    11    12    1
@<TRIPOS>MOLECULE
*****
 18 18 0 0 0
SMALL
GASTEIGER

@<TRIPOS>ATOM
      1 C          -7.2113  -19.7622   20.7026 C.ar    1  UNL1       -0.0221
      2 C          -7.7616  -19.4974   22.0727 C.ar    1  UNL1       -0.0030
      3 C          -9.2046  -19.1248   22.2422 C.ar    1  UNL1        0.0143
      4 C         -10.0975  -19.0171   21.0418 C.ar    1  UNL1        0.0495
      5 C          -9.5472  -19.2819   19.6717 C.ar    1  UNL1        0.0143
      6 C          -8.1042  -19.6545   19.5021 C.ar    1  UNL1       -0.0030
      7 N         -11.5405  -18.6445   21.2113 N.pl3   1  UNL1       -0.2930
      8 H         -12.1820  -19.3055   21.5588 H       1  UNL1        0.1538
      9 C         -12.0062  -17.2648   20.8515 C.2     1  UNL1        0.2056
     10 N         -12.0077  -16.8239   19.4178 N.2     1  UNL1       -0.0679
     11 O         -12.4734  -15.4441   19.0580 O.2     1  UNL1       -0.4077
     12 H         -12.4744  -15.1686   18.1624 H       1  UNL1        0.3278
     13 C          -5.7683  -20.1348   20.5330 C.3     1  UNL1        0.0264
     14 C          -4.7391  -19.6011   21.4847 C.3     1  UNL1        0.0047
     15 C          -3.5613  -18.8330   20.9624 C.3     1  UNL1        0.0003
     16 C          -3.3641  -18.6763   19.4836 C.3     1  UNL1        0.0000
     17 C          -0.9148  -17.9117   19.8907 C.3     1  UNL1        0.0000
     18 C          -2.0466  -18.1984   18.9491 C.3     1  UNL1        0.0000
@<TRIPOS>BOND
     1    17    18    1
     2    18    16    1
     3    16    15    1
     4    15    14    1
     5    14    13    1
     6    13     1    1
     7     1     2   ar
     8     2     3   ar
     9     3     4   ar
    10     4     7    1
    11     7     9    1
    12     9    10    2
    13    10    11    1
    14     4     5   ar
    15     5     6   ar
    16     6     1   ar
    17     7     8    1
    18    11    12    1
@<TRIPOS>MOLECULE
*****
 18 18 0 0 0
SMALL
GASTEIGER

@<TRIPOS>ATOM
      1 C          -9.6946  -17.2872   23.6825 C.ar    1  UNL1       -0.0221
      2 C          -9.3355  -16.0518   24.4536 C.ar    1  UNL1       -0.0030
      3 C          -7.9395  -15.5069   24.3894 C.ar    1  UNL1        0.0143
      4 C          -6.9025  -16.1975   23.5541 C.ar    1  UNL1        0.0495
      5 C          -7.2616  -17.4329   22.7829 C.ar    1  UNL1        0.0143
      6 C          -8.6577  -17.9778   22.8471 C.ar    1  UNL1       -0.0030
      7 N          -5.5065  -15.6526   23.4899 N.pl3   1  UNL1       -0.2930
      8 H          -5.3599  -14.6824   23.4096 H       1  UNL1        0.1538
      9 C          -4.3337  -16.5859   23.5479 C.2     1  UNL1        0.2056
     10 N          -3.2146  -16.4466   22.5589 N.2     1  UNL1       -0.0679
     11 O          -2.0417  -17.3800   22.6170 O.2     1  UNL1       -0.4077
     12 H          -1.3427  -17.2930   21.9992 H       1  UNL1        0.3278
     13 C         -11.0907  -17.8321   23.7467 C.3     1  UNL1        0.0264
     14 C         -12.1708  -17.2293   22.8982 C.3     1  UNL1        0.0047
     15 C         -11.8096  -16.3776   21.7175 C.3     1  UNL1        0.0003
     16 C         -11.3413  -17.0194   20.4451 C.3     1  UNL1        0.0000
     17 C         -10.2325  -19.2575   19.7303 C.3     1  UNL1        0.0000
     18 C         -11.4068  -18.5097   20.2885 C.3     1  UNL1        0.0000
@<TRIPOS>BOND
     1    17    18    1
     2    18    16    1
     3    16    15    1
     4    15    14    1
     5    14    13    1
     6    13     1    1
     7     1     2   ar
     8     2     3   ar
     9     3     4   ar
    10     4     7    1
    11     7     9    1
    12     9    10    2
    13    10    11    1
    14     4     5   ar
    15     5     6   ar
    16     6     1   ar
    17     7     8    1
    18    11    12    1
@<TRIPOS>MOLECULE
*****
 18 18 0 0 0
SMALL
GASTEIGER

@<TRIPOS>ATOM
      1 C          -9.5586  -18.7448   23.0797 C.ar    1  UNL1       -0.0221
      2 C          -9.9381  -19.0435   24.4998 C.ar    1  UNL1       -0.0030
      3 C          -9.5854  -18.0754   25.5899 C.ar    1  UNL1        0.0143
      4 C          -8.8532  -16.8085   25.2599 C.ar    1  UNL1        0.0495
      5 C          -8.4738  -16.5098   23.8398 C.ar    1  UNL1        0.0143
      6 C          -8.8265  -17.4780   22.7497 C.ar    1  UNL1       -0.0030
      7 N          -8.5006  -15.8403   26.3500 N.pl3   1  UNL1       -0.2930
      8 H          -9.2110  -15.4394   26.9011 H       1  UNL1        0.1538
      9 C          -7.0655  -15.4830   26.6003 C.2     1  UNL1        0.2056
     10 N          -6.2549  -14.8323   25.5188 N.2     1  UNL1       -0.0679
     11 O          -4.8197  -14.4749   25.7692 O.2     1  UNL1       -0.4077
     12 H          -4.3134  -14.0684   25.0937 H       1  UNL1        0.3278
     13 C          -9.9113  -19.7130   21.9897 C.3     1  UNL1        0.0264
     14 C         -11.2257  -19.5937   21.2769 C.3     1  UNL1        0.0047
     15 C         -11.6268  -18.2881   20.6567 C.3     1  UNL1        0.0003
     16 C         -12.6989  -17.4537   21.2927 C.3     1  UNL1        0.0000
     17 C         -13.4890  -17.9786   23.7114 C.3     1  UNL1        0.0000
     18 C         -12.6534  -17.1689   22.7647 C.3     1  UNL1        0.0000
@<TRIPOS>BOND
     1    17    18    1
     2    18    16    1
     3    16    15    1
     4    15    14    1
     5    14    13    1
     6    13     1    1
     7     1     2   ar
     8     2     3   ar
     9     3     4   ar
    10     4     7    1
    11     7     9    1
    12     9    10    2
    13    10    11    1
    14     4     5   ar
    15     5     6   ar
    16     6     1   ar
    17     7     8    1
    18    11    12    1
