@<TRIPOS>MOLECULE
*****
 22 24 0 0 0
SMALL
GASTEIGER

@<TRIPOS>ATOM
      1 C          -9.0279  -18.7077   21.5973 C.ar    1  UNL1        0.0428
      2 C          -9.6622  -19.4037   20.4297 C.ar    1  UNL1        0.0077
      3 C         -10.7183  -18.7066   19.6243 C.ar    1  UNL1        0.0006
      4 C         -11.1401  -17.3134   19.9864 C.ar    1  UNL1        0.0013
      5 C         -10.5058  -16.6174   21.1540 C.ar    1  UNL1        0.0150
      6 C          -9.4497  -17.3145   21.9594 C.ar    1  UNL1        0.0540
      7 N          -8.8155  -16.6185   23.1270 N.pl3   1  UNL1       -0.3043
      8 C          -7.7312  -15.6074   22.8988 C.3     1  UNL1        0.1079
      9 C          -7.0970  -14.9113   24.0663 C.3     1  UNL1        0.0903
     10 N          -7.5469  -15.2264   25.4622 N.3     1  UNL1       -0.2946
     11 C          -8.6312  -16.2375   25.6904 C.3     1  UNL1        0.0903
     12 C          -9.2654  -16.9336   24.5227 C.3     1  UNL1        0.1079
     13 H          -7.8704  -14.3502   25.8721 H       1  UNL1        0.1233
     14 S          -7.9718  -19.4048   22.4027 S.3     1  UNL1       -0.0857
     15 C          -2.2783  -19.4217   20.5097 C.3     1  UNL1        0.0307
     16 C          -3.7017  -19.4175   20.9830 C.ar    1  UNL1       -0.0258
     17 C          -4.7210  -20.2820   20.3021 C.ar    1  UNL1       -0.0041
     18 C          -6.1444  -20.2777   20.7753 C.ar    1  UNL1        0.0061
     19 C          -6.5485  -19.4091   21.9294 C.ar    1  UNL1        0.0292
     20 C          -5.5291  -18.5446   22.6103 C.ar    1  UNL1        0.0019
     21 C          -4.1058  -18.5488   22.1371 C.ar    1  UNL1       -0.0253
     22 C          -3.0864  -17.6843   22.8181 C.3     1  UNL1        0.0307
@<TRIPOS>BOND
     1    15    16    1
     2    16    17   ar
     3    17    18   ar
     4    18    19   ar
     5    19    14    1
     6    14     1    1
     7     1     2   ar
     8     2     3   ar
     9     3     4   ar
    10     4     5   ar
    11     5     6   ar
    12     6     7    1
    13     7     8    1
    14     8     9    1
    15     9    10    1
    16    10    11    1
    17    11    12    1
    18    19    20   ar
    19    20    21   ar
    20    21    22    1
    21    21    16   ar
    22     6     1   ar
    23    12     7    1
    24    10    13    1
@<TRIPOS>MOLECULE
*****
 22 24 0 0 0
SMALL
GASTEIGER

@<TRIPOS>ATOM
      1 C          -9.9791  -16.8398   21.7933 C.ar    1  UNL1        0.0428
      2 C         -11.2523  -16.0569   21.9200 C.ar    1  UNL1        0.0077
      3 C         -12.5697  -16.7169   21.6395 C.ar    1  UNL1        0.0006
      4 C         -12.6140  -18.1599   21.2322 C.ar    1  UNL1        0.0013
      5 C         -11.3409  -18.9428   21.1055 C.ar    1  UNL1        0.0150
      6 C         -10.0234  -18.2828   21.3860 C.ar    1  UNL1        0.0540
      7 N          -8.7502  -19.0657   21.2593 N.pl3   1  UNL1       -0.3043
      8 C          -8.0891  -19.6257   22.4837 C.3     1  UNL1        0.1079
      9 C          -6.8160  -20.4087   22.3570 C.3     1  UNL1        0.0903
     10 N          -6.2039  -20.6317   21.0057 N.3     1  UNL1       -0.2946
     11 C          -6.8651  -20.0717   19.7813 C.3     1  UNL1        0.0903
     12 C          -8.1383  -19.2887   19.9081 C.3     1  UNL1        0.1079
     13 H          -6.1442  -21.6412   20.8725 H       1  UNL1        0.1233
     14 S          -8.6617  -16.1798   22.0738 S.3     1  UNL1       -0.0857
     15 C          -6.8804  -15.3254   27.7393 C.3     1  UNL1        0.0307
     16 C          -7.3257  -15.5390   26.3229 C.ar    1  UNL1       -0.0258
     17 C          -8.7708  -15.8069   26.0234 C.ar    1  UNL1       -0.0041
     18 C          -9.2162  -16.0205   24.6070 C.ar    1  UNL1        0.0061
     19 C          -8.2163  -15.9662   23.4902 C.ar    1  UNL1        0.0292
     20 C          -6.7712  -15.6983   23.7897 C.ar    1  UNL1        0.0019
     21 C          -6.3259  -15.4847   25.2061 C.ar    1  UNL1       -0.0253
     22 C          -4.8807  -15.2167   25.5056 C.3     1  UNL1        0.0307
@<TRIPOS>BOND
     1    15    16    1
     2    16    17   ar
     3    17    18   ar
     4    18    19   ar
     5    19    14    1
     6    14     1    1
     7     1     2   ar
     8     2     3   ar
     9     3     4   ar
    10     4     5   ar
    11     5     6   ar
    12     6     7    1
    13     7     8    1
    14     8     9    1
    15     9    10    1
    16    10    11    1
    17    11    12    1
    18    19    20   ar
    19    20    21   ar
    20    21    22    1
    21    21    16   ar
    22     6     1   ar
    23    12     7    1
    24    10    13    1
@<TRIPOS>MOLECULE
*****
 22 24 0 0 0
SMALL
GASTEIGER

@<TRIPOS>ATOM
      1 C          -7.4165  -16.0234   24.5656 C.ar    1  UNL1        0.0428
      2 C          -6.2854  -15.3385   25.2740 C.ar    1  UNL1        0.0077
      3 C          -6.2902  -15.2358   26.7705 C.ar    1  UNL1        0.0006
      4 C          -7.4260  -15.8179   27.5586 C.ar    1  UNL1        0.0013
      5 C          -8.5570  -16.5028   26.8503 C.ar    1  UNL1        0.0150
      6 C          -8.5522  -16.6055   25.3537 C.ar    1  UNL1        0.0540
      7 N          -9.6832  -17.2903   24.6454 N.pl3   1  UNL1       -0.3043
      8 C         -10.5163  -16.5325   23.6546 C.3     1  UNL1        0.1079
      9 C         -11.6473  -17.2173   22.9463 C.3     1  UNL1        0.0903
     10 N         -11.9453  -18.6601   23.2287 N.3     1  UNL1       -0.2946
     11 C         -11.1122  -19.4179   24.2195 C.3     1  UNL1        0.0903
     12 C          -9.9812  -18.7330   24.9279 C.3     1  UNL1        0.1079
     13 H         -11.8699  -19.1557   22.3404 H       1  UNL1        0.1233
     14 S          -7.4117  -16.1261   23.0692 S.3     1  UNL1       -0.0857
     15 C          -5.6947  -21.2272   20.4176 C.3     1  UNL1        0.0307
     16 C          -6.1240  -19.9519   21.0805 C.ar    1  UNL1       -0.0258
     17 C          -7.5270  -19.4511   20.9057 C.ar    1  UNL1       -0.0041
     18 C          -7.9563  -18.1758   21.5686 C.ar    1  UNL1        0.0061
     19 C          -6.9824  -17.4014   22.4063 C.ar    1  UNL1        0.0292
     20 C          -5.5794  -17.9022   22.5811 C.ar    1  UNL1        0.0019
     21 C          -5.1502  -19.1774   21.9182 C.ar    1  UNL1       -0.0253
     22 C          -3.7470  -19.6782   22.0931 C.3     1  UNL1        0.0307
@<TRIPOS>BOND
     1    15    16    1
     2    16    17   ar
     3    17    18   ar
     4    18    19   ar
     5    19    14    1
     6    14     1    1
     7     1     2   ar
     8     2     3   ar
     9     3     4   ar
    10     4     5   ar
    11     5     6   ar
    12     6     7    1
    13     7     8    1
    14     8     9    1
    15     9    10    1
    16    10    11    1
    17    11    12    1
    18    19    20   ar
    19    20    21   ar
    20    21    22    1
    21    21    16   ar
    22     6     1   ar
    23    12     7    1
    24    10    13    1
@<TRIPOS>MOLECULE
*****
 22 24 0 0 0
SMALL
GASTEIGER

@<TRIPOS>ATOM
      1 C         -10.0902  -16.8554   21.9209 C.ar    1  UNL1        0.0428
      2 C         -11.3682  -16.1029   22.1463 C.ar    1  UNL1        0.0077
      3 C         -12.6862  -16.8070   22.0153 C.ar    1  UNL1        0.0006
      4 C         -12.7262  -18.2635   21.6589 C.ar    1  UNL1        0.0013
      5 C         -11.4484  -19.0160   21.4336 C.ar    1  UNL1        0.0150
      6 C         -10.1303  -18.3119   21.5646 C.ar    1  UNL1        0.0540
      7 N          -8.8524  -19.0643   21.3392 N.pl3   1  UNL1       -0.3043
      8 C          -8.3390  -19.2700   19.9449 C.3     1  UNL1        0.1079
      9 C          -7.0612  -20.0224   19.7196 C.3     1  UNL1        0.0903
     10 N          -6.2966  -20.5692   20.8886 N.3     1  UNL1       -0.2946
     11 C          -6.8099  -20.3635   22.2829 C.3     1  UNL1        0.0903
     12 C          -8.0879  -19.6110   22.5082 C.3     1  UNL1        0.1079
     13 H          -5.3663  -20.1524   20.8529 H       1  UNL1        0.1233
     14 S          -8.7723  -16.1513   22.0519 S.3     1  UNL1       -0.0857
     15 C          -6.3118  -15.3736   27.4687 C.3     1  UNL1        0.0307
     16 C          -6.9269  -15.5680   26.1145 C.ar    1  UNL1       -0.0258
     17 C          -6.2583  -14.9990   24.8983 C.ar    1  UNL1       -0.0041
     18 C          -6.8734  -15.1934   23.5441 C.ar    1  UNL1        0.0061
     19 C          -8.1572  -15.9568   23.4061 C.ar    1  UNL1        0.0292
     20 C          -8.8258  -16.5259   24.6223 C.ar    1  UNL1        0.0019
     21 C          -8.2107  -16.3315   25.9765 C.ar    1  UNL1       -0.0253
     22 C          -8.8793  -16.9005   27.1927 C.3     1  UNL1        0.0307
@<TRIPOS>BOND
     1    15    16    1
     2    16    17   ar
     3    17    18   ar
     4    18    19   ar
     5    19    14    1
     6    14     1    1
     7     1     2   ar
     8     2     3   ar
     9     3     4   ar
    10     4     5   ar
    11     5     6   ar
    12     6     7    1
    13     7     8    1
    14     8     9    1
    15     9    10    1
    16    10    11    1
    17    11    12    1
    18    19    20   ar
    19    20    21   ar
    20    21    22    1
    21    21    16   ar
    22     6     1   ar
    23    12     7    1
    24    10    13    1
@<TRIPOS>MOLECULE
*****
 22 24 0 0 0
SMALL
GASTEIGER

@<TRIPOS>ATOM
      1 C          -7.1989  -16.1643   24.6988 C.ar    1  UNL1        0.0428
      2 C          -6.1019  -15.4284   25.4098 C.ar    1  UNL1        0.0077
      3 C          -6.2545  -15.0721   26.8588 C.ar    1  UNL1        0.0006
      4 C          -7.5039  -15.4516   27.5970 C.ar    1  UNL1        0.0013
      5 C          -8.6008  -16.1875   26.8861 C.ar    1  UNL1        0.0150
      6 C          -8.4483  -16.5438   25.4370 C.ar    1  UNL1        0.0540
      7 N          -9.5452  -17.2796   24.7262 N.pl3   1  UNL1       -0.3043
      8 C          -9.8485  -18.7039   25.0859 C.3     1  UNL1        0.1079
      9 C         -10.9454  -19.4397   24.3751 C.3     1  UNL1        0.0903
     10 N         -11.7390  -18.7513   23.3044 N.3     1  UNL1       -0.2946
     11 C         -11.4357  -17.3270   22.9447 C.3     1  UNL1        0.0903
     12 C         -10.3387  -16.5912   23.6556 C.3     1  UNL1        0.1079
     13 H         -12.7155  -18.7793   23.5977 H       1  UNL1        0.1233
     14 S          -7.0463  -16.5206   23.2498 S.3     1  UNL1       -0.0857
     15 C          -2.4926  -20.0036   21.4800 C.3     1  UNL1        0.0307
     16 C          -3.6311  -19.1328   21.9225 C.ar    1  UNL1       -0.0258
     17 C          -3.3809  -17.9919   22.8636 C.ar    1  UNL1       -0.0041
     18 C          -4.5193  -17.1212   23.3060 C.ar    1  UNL1        0.0061
     19 C          -5.9079  -17.3913   22.8074 C.ar    1  UNL1        0.0292
     20 C          -6.1581  -18.5322   21.8663 C.ar    1  UNL1        0.0019
     21 C          -5.0197  -19.4029   21.4238 C.ar    1  UNL1       -0.0253
     22 C          -5.2699  -20.5439   20.4826 C.3     1  UNL1        0.0307
@<TRIPOS>BOND
     1    15    16    1
     2    16    17   ar
     3    17    18   ar
     4    18    19   ar
     5    19    14    1
     6    14     1    1
     7     1     2   ar
     8     2     3   ar
     9     3     4   ar
    10     4     5   ar
    11     5     6   ar
    12     6     7    1
    13     7     8    1
    14     8     9    1
    15     9    10    1
    16    10    11    1
    17    11    12    1
    18    19    20   ar
    19    20    21   ar
    20    21    22    1
    21    21    16   ar
    22     6     1   ar
    23    12     7    1
    24    10    13    1
@<TRIPOS>MOLECULE
*****
 22 24 0 0 0
SMALL
GASTEIGER

@<TRIPOS>ATOM
      1 C          -7.3609  -15.6653   24.4352 C.ar    1  UNL1        0.0428
      2 C          -8.4266  -15.2916   25.4225 C.ar    1  UNL1        0.0077
      3 C          -8.0890  -15.1653   26.8786 C.ar    1  UNL1        0.0006
      4 C          -6.6858  -15.4127   27.3474 C.ar    1  UNL1        0.0013
      5 C          -5.6201  -15.7864   26.3602 C.ar    1  UNL1        0.0150
      6 C          -5.9576  -15.9127   24.9041 C.ar    1  UNL1        0.0540
      7 N          -4.8920  -16.2864   23.9168 N.pl3   1  UNL1       -0.3043
      8 C          -4.1588  -15.2163   23.1636 C.3     1  UNL1        0.1079
      9 C          -3.0931  -15.5900   22.1764 C.3     1  UNL1        0.0903
     10 N          -2.7605  -17.0338   21.9424 N.3     1  UNL1       -0.2946
     11 C          -3.4937  -18.1040   22.6956 C.3     1  UNL1        0.0903
     12 C          -4.5594  -17.7302   23.6829 C.3     1  UNL1        0.1079
     13 H          -1.7703  -17.1468   22.1593 H       1  UNL1        0.1233
     14 S          -7.6984  -15.7916   22.9792 S.3     1  UNL1       -0.0857
     15 C         -11.2829  -20.2226   21.1039 C.3     1  UNL1        0.0307
     16 C         -10.3868  -19.1149   21.5727 C.ar    1  UNL1       -0.0258
     17 C          -8.9741  -19.4139   21.9788 C.ar    1  UNL1       -0.0041
     18 C          -8.0780  -18.3062   22.4476 C.ar    1  UNL1        0.0061
     19 C          -8.5945  -16.8993   22.5104 C.ar    1  UNL1        0.0292
     20 C         -10.0071  -16.6003   22.1043 C.ar    1  UNL1        0.0019
     21 C         -10.9033  -17.7080   21.6354 C.ar    1  UNL1       -0.0253
     22 C         -12.3160  -17.4089   21.2293 C.3     1  UNL1        0.0307
@<TRIPOS>BOND
     1    15    16    1
     2    16    17   ar
     3    17    18   ar
     4    18    19   ar
     5    19    14    1
     6    14     1    1
     7     1     2   ar
     8     2     3   ar
     9     3     4   ar
    10     4     5   ar
    11     5     6   ar
    12     6     7    1
    13     7     8    1
    14     8     9    1
    15     9    10    1
    16    10    11    1
    17    11    12    1
    18    19    20   ar
    19    20    21   ar
    20    21    22    1
    21    21    16   ar
    22     6     1   ar
    23    12     7    1
    24    10    13    1
@<TRIPOS>MOLECULE
*****
 22 24 0 0 0
SMALL
GASTEIGER

@<TRIPOS>ATOM
      1 C         -12.1622   -3.6537   19.1562 C.ar    1  UNL1        0.0428
      2 C         -12.5227   -2.2002   19.2426 C.ar    1  UNL1        0.0077
      3 C         -11.8767   -1.2111   18.3182 C.ar    1  UNL1        0.0006
      4 C         -10.8704   -1.6755   17.3074 C.ar    1  UNL1        0.0013
      5 C         -10.5100   -3.1289   17.2210 C.ar    1  UNL1        0.0150
      6 C         -11.1559   -4.1181   18.1454 C.ar    1  UNL1        0.0540
      7 N         -10.7955   -5.5716   18.0590 N.pl3   1  UNL1       -0.3043
      8 C         -11.4935   -6.4600   17.0723 C.3     1  UNL1        0.1079
      9 C         -11.1331   -7.9135   16.9859 C.3     1  UNL1        0.0903
     10 N         -10.0746   -8.4786   17.8862 N.3     1  UNL1       -0.2946
     11 C          -9.3766   -7.5901   18.8728 C.3     1  UNL1        0.0903
     12 C          -9.7371   -6.1366   18.9592 C.3     1  UNL1        0.1079
     13 H          -9.3530   -8.8714   17.2817 H       1  UNL1        0.1233
     14 S         -12.8081   -4.6428   20.0805 S.3     1  UNL1       -0.0857
     15 C         -18.4915   -6.3352   19.1666 C.3     1  UNL1        0.0307
     16 C         -17.0707   -5.9121   19.3951 C.ar    1  UNL1       -0.0258
     17 C         -16.7705   -4.5284   19.8904 C.ar    1  UNL1       -0.0041
     18 C         -15.3497   -4.1054   20.1189 C.ar    1  UNL1        0.0061
     19 C         -14.2290   -5.0659   19.8520 C.ar    1  UNL1        0.0292
     20 C         -14.5291   -6.4496   19.3567 C.ar    1  UNL1        0.0019
     21 C         -15.9499   -6.8727   19.1282 C.ar    1  UNL1       -0.0253
     22 C         -16.2500   -8.2564   18.6329 C.3     1  UNL1        0.0307
@<TRIPOS>BOND
     1    15    16    1
     2    16    17   ar
     3    17    18   ar
     4    18    19   ar
     5    19    14    1
     6    14     1    1
     7     1     2   ar
     8     2     3   ar
     9     3     4   ar
    10     4     5   ar
    11     5     6   ar
    12     6     7    1
    13     7     8    1
    14     8     9    1
    15     9    10    1
    16    10    11    1
    17    11    12    1
    18    19    20   ar
    19    20    21   ar
    20    21    22    1
    21    21    16   ar
    22     6     1   ar
    23    12     7    1
    24    10    13    1
@<TRIPOS>MOLECULE
*****
 22 24 0 0 0
SMALL
GASTEIGER

@<TRIPOS>ATOM
      1 C          -7.0464  -17.1861   23.0508 C.ar    1  UNL1        0.0428
      2 C          -7.4540  -16.0929   23.9936 C.ar    1  UNL1        0.0077
      3 C          -6.4182  -15.3910   24.8209 C.ar    1  UNL1        0.0006
      4 C          -4.9748  -15.7822   24.7054 C.ar    1  UNL1        0.0013
      5 C          -4.5671  -16.8753   23.7626 C.ar    1  UNL1        0.0150
      6 C          -5.6029  -17.5773   22.9353 C.ar    1  UNL1        0.0540
      7 N          -5.1952  -18.6703   21.9925 N.pl3   1  UNL1       -0.3043
      8 C          -3.7991  -18.7068   21.4452 C.3     1  UNL1        0.1079
      9 C          -3.3914  -19.7998   20.5024 C.3     1  UNL1        0.0903
     10 N          -4.3798  -20.8566   20.1069 N.3     1  UNL1       -0.2946
     11 C          -5.7759  -20.8202   20.6542 C.3     1  UNL1        0.0903
     12 C          -6.1836  -19.7270   21.5970 C.3     1  UNL1        0.1079
     13 H          -3.9787  -21.7530   20.3826 H       1  UNL1        0.1233
     14 S          -8.0821  -17.8879   22.2235 S.3     1  UNL1       -0.0857
     15 C         -13.7791  -18.0972   24.0944 C.3     1  UNL1        0.0307
     16 C         -12.3549  -18.0449   23.6267 C.ar    1  UNL1       -0.0258
     17 C         -11.3225  -18.9250   24.2666 C.ar    1  UNL1       -0.0041
     18 C          -9.8983  -18.8727   23.7989 C.ar    1  UNL1        0.0061
     19 C          -9.5064  -17.9403   22.6912 C.ar    1  UNL1        0.0292
     20 C         -10.5388  -17.0602   22.0513 C.ar    1  UNL1        0.0019
     21 C         -11.9630  -17.1125   22.5190 C.ar    1  UNL1       -0.0253
     22 C         -12.9954  -16.2324   21.8789 C.3     1  UNL1        0.0307
@<TRIPOS>BOND
     1    15    16    1
     2    16    17   ar
     3    17    18   ar
     4    18    19   ar
     5    19    14    1
     6    14     1    1
     7     1     2   ar
     8     2     3   ar
     9     3     4   ar
    10     4     5   ar
    11     5     6   ar
    12     6     7    1
    13     7     8    1
    14     8     9    1
    15     9    10    1
    16    10    11    1
    17    11    12    1
    18    19    20   ar
    19    20    21   ar
    20    21    22    1
    21    21    16   ar
    22     6     1   ar
    23    12     7    1
    24    10    13    1
@<TRIPOS>MOLECULE
*****
 22 24 0 0 0
SMALL
GASTEIGER

@<TRIPOS>ATOM
      1 C         -11.7550   -6.4094   17.8966 C.ar    1  UNL1        0.0428
      2 C         -10.9242   -7.6584   17.8979 C.ar    1  UNL1        0.0077
      3 C          -9.5797   -7.6642   18.5629 C.ar    1  UNL1        0.0006
      4 C          -9.0660   -6.4211   19.2267 C.ar    1  UNL1        0.0013
      5 C          -9.8967   -5.1722   19.2255 C.ar    1  UNL1        0.0150
      6 C         -11.2412   -5.1663   18.5605 C.ar    1  UNL1        0.0540
      7 N         -12.0719   -3.9174   18.5593 N.pl3   1  UNL1       -0.3043
      8 C         -11.9929   -2.9651   17.4030 C.3     1  UNL1        0.1079
      9 C         -12.8236   -1.7162   17.4018 C.3     1  UNL1        0.0903
     10 N         -13.7334   -1.4195   18.5569 N.3     1  UNL1       -0.2946
     11 C         -13.8125   -2.3717   19.7132 C.3     1  UNL1        0.0903
     12 C         -12.9817   -3.6207   19.7143 C.3     1  UNL1        0.1079
     13 H         -14.6763   -1.3397   18.1761 H       1  UNL1        0.1233
     14 S         -13.0995   -6.4036   17.2316 S.3     1  UNL1       -0.0857
     15 C         -17.9514   -8.2200   20.2581 C.3     1  UNL1        0.0307
     16 C         -16.7384   -7.7659   19.5015 C.ar    1  UNL1       -0.0258
     17 C         -15.6597   -8.7486   19.1542 C.ar    1  UNL1       -0.0041
     18 C         -14.4467   -8.2945   18.3975 C.ar    1  UNL1        0.0061
     19 C         -14.3125   -6.8577   17.9882 C.ar    1  UNL1        0.0292
     20 C         -15.3911   -5.8750   18.3356 C.ar    1  UNL1        0.0019
     21 C         -16.6041   -6.3291   19.0922 C.ar    1  UNL1       -0.0253
     22 C         -17.6828   -5.3463   19.4395 C.3     1  UNL1        0.0307
@<TRIPOS>BOND
     1    15    16    1
     2    16    17   ar
     3    17    18   ar
     4    18    19   ar
     5    19    14    1
     6    14     1    1
     7     1     2   ar
     8     2     3   ar
     9     3     4   ar
    10     4     5   ar
    11     5     6   ar
    12     6     7    1
    13     7     8    1
    14     8     9    1
    15     9    10    1
    16    10    11    1
    17    11    12    1
    18    19    20   ar
    19    20    21   ar
    20    21    22    1
    21    21    16   ar
    22     6     1   ar
    23    12     7    1
    24    10    13    1
