@<TRIPOS>MOLECULE
*****
 20 22 0 0 0
SMALL
GASTEIGER

@<TRIPOS>ATOM
      1 C         -10.1749  -18.1974   21.8015 C.3     1  UNL1        0.0883
      2 C         -11.1931  -18.5596   20.7612 C.3     1  UNL1        0.0885
      3 N         -11.8446  -17.4842   19.9432 N.3     1  UNL1       -0.2947
      4 C         -11.4779  -16.0468   20.1654 C.3     1  UNL1        0.0903
      5 C         -10.4597  -15.6847   21.2057 C.3     1  UNL1        0.1076
      6 N          -9.8082  -16.7601   22.0237 N.pl3   1  UNL1       -0.3093
      7 H         -12.8490  -17.5601   20.1036 H       1  UNL1        0.1233
      8 C          -8.7900  -16.3979   23.0640 C.2     1  UNL1        0.0295
      9 C          -7.3369  -16.3282   22.6989 C.2     1  UNL1        0.0120
     10 C          -6.3186  -15.9661   23.7392 C.2     1  UNL1        0.0216
     11 C          -6.7537  -15.6736   25.1446 C.2     1  UNL1        0.1008
     12 N          -5.9845  -15.2926   26.3747 N.2     1  UNL1       -0.1482
     13 N          -6.9623  -15.1269   27.5000 N.2     1  UNL1       -0.1467
     14 C          -8.3358  -15.4054   26.9654 C.2     1  UNL1        0.1198
     15 C          -8.2069  -15.7433   25.5097 C.2     1  UNL1        0.0238
     16 C          -9.2251  -16.1054   24.4694 C.3     1  UNL1        0.0705
     17 C          -9.5233  -19.2727   22.6195 C.3     1  UNL1        0.0211
     18 C          -9.6304  -20.9540   24.5974 C.3     1  UNL1        0.0001
     19 C         -10.1748  -19.7531   23.8824 C.3     1  UNL1        0.0017
     20 C         -11.3708  -19.0324   24.4303 C.3     1  UNL1        0.0001
@<TRIPOS>BOND
     1    18    19    1
     2    19    20    1
     3    19    17    1
     4    17     1    1
     5     1     2    1
     6     2     3    1
     7     3     4    1
     8     4     5    1
     9     5     6    1
    10     6     8    1
    11     8     9    2
    12     9    10    1
    13    10    11    2
    14    11    12    1
    15    12    13    2
    16    13    14    1
    17    14    15    2
    18    15    16    1
    19     6     1    1
    20    16     8    1
    21    15    11    1
    22     3     7    1
@<TRIPOS>MOLECULE
*****
 20 22 0 0 0
SMALL
GASTEIGER

@<TRIPOS>ATOM
      1 C          -6.1982  -16.4665   23.5535 C.3     1  UNL1        0.0883
      2 C          -4.7060  -16.6153   23.5886 C.3     1  UNL1        0.0885
      3 N          -4.0510  -17.7716   22.8929 N.3     1  UNL1       -0.2947
      4 C          -4.8883  -18.7791   22.1622 C.3     1  UNL1        0.0903
      5 C          -6.3804  -18.6303   22.1271 C.3     1  UNL1        0.1076
      6 N          -7.0354  -17.4739   22.8228 N.pl3   1  UNL1       -0.3093
      7 H          -3.5268  -18.2835   23.6025 H       1  UNL1        0.1233
      8 C          -8.5276  -17.3252   22.7876 C.2     1  UNL1        0.0295
      9 C          -9.1614  -16.3413   21.8495 C.2     1  UNL1        0.0120
     10 C         -10.6536  -16.1925   21.8144 C.2     1  UNL1        0.0216
     11 C         -11.5120  -17.0277   22.7175 C.2     1  UNL1        0.1008
     12 N         -12.9985  -17.1006   22.9042 N.2     1  UNL1       -0.1482
     13 N         -13.2835  -18.1295   23.9577 N.2     1  UNL1       -0.1467
     14 C         -11.9730  -18.6926   24.4222 C.2     1  UNL1        0.1198
     15 C         -10.8782  -18.0116   23.6557 C.2     1  UNL1        0.0238
     16 C          -9.3860  -18.1604   23.6907 C.3     1  UNL1        0.0705
     17 C          -6.8531  -15.3102   24.2491 C.3     1  UNL1        0.0211
     18 C          -6.1652  -15.4023   26.7528 C.3     1  UNL1        0.0001
     19 C          -7.2302  -15.4215   25.6967 C.3     1  UNL1        0.0017
     20 C          -8.6723  -15.5522   26.0882 C.3     1  UNL1        0.0001
@<TRIPOS>BOND
     1    18    19    1
     2    19    20    1
     3    19    17    1
     4    17     1    1
     5     1     2    1
     6     2     3    1
     7     3     4    1
     8     4     5    1
     9     5     6    1
    10     6     8    1
    11     8     9    2
    12     9    10    1
    13    10    11    2
    14    11    12    1
    15    12    13    2
    16    13    14    1
    17    14    15    2
    18    15    16    1
    19     6     1    1
    20    16     8    1
    21    15    11    1
    22     3     7    1
@<TRIPOS>MOLECULE
*****
 20 22 0 0 0
SMALL
GASTEIGER

@<TRIPOS>ATOM
      1 C         -11.6681  -17.0492   22.6275 C.3     1  UNL1        0.0883
      2 C         -13.1477  -17.1022   22.8692 C.3     1  UNL1        0.0885
      3 N         -13.6992  -17.9774   23.9553 N.3     1  UNL1       -0.2947
      4 C         -12.7714  -18.7996   24.7998 C.3     1  UNL1        0.0903
      5 C         -11.2919  -18.7465   24.5581 C.3     1  UNL1        0.1076
      6 N         -10.7404  -17.8713   23.4720 N.pl3   1  UNL1       -0.3093
      7 H         -14.3458  -18.6281   23.5092 H       1  UNL1        0.1233
      8 C          -9.2608  -17.8182   23.2304 C.2     1  UNL1        0.0295
      9 C          -8.5901  -18.9043   22.4427 C.2     1  UNL1        0.0120
     10 C          -7.1106  -18.8512   22.2011 C.2     1  UNL1        0.0216
     11 C          -6.3019  -17.7120   22.7472 C.2     1  UNL1        0.1008
     12 N          -4.8382  -17.3930   22.6710 N.2     1  UNL1       -0.1482
     13 N          -4.6044  -16.1097   23.4116 N.2     1  UNL1       -0.1467
     14 C          -5.9236  -15.6356   23.9455 C.2     1  UNL1        0.1198
     15 C          -6.9727  -16.6259   23.5349 C.2     1  UNL1        0.0238
     16 C          -8.4522  -16.6790   23.7765 C.3     1  UNL1        0.0705
     17 C         -11.1166  -16.1739   21.5414 C.3     1  UNL1        0.0211
     18 C         -10.9748  -18.0316   19.7305 C.3     1  UNL1        0.0001
     19 C         -11.2228  -16.6010   20.1074 C.3     1  UNL1        0.0017
     20 C         -11.5769  -15.5975   19.0503 C.3     1  UNL1        0.0001
@<TRIPOS>BOND
     1    18    19    1
     2    19    20    1
     3    19    17    1
     4    17     1    1
     5     1     2    1
     6     2     3    1
     7     3     4    1
     8     4     5    1
     9     5     6    1
    10     6     8    1
    11     8     9    2
    12     9    10    1
    13    10    11    2
    14    11    12    1
    15    12    13    2
    16    13    14    1
    17    14    15    2
    18    15    16    1
    19     6     1    1
    20    16     8    1
    21    15    11    1
    22     3     7    1
@<TRIPOS>MOLECULE
*****
 20 22 0 0 0
SMALL
GASTEIGER

@<TRIPOS>ATOM
      1 C         -11.3601  -18.6192   21.5923 C.3     1  UNL1        0.0883
      2 C         -12.7433  -18.0388   21.6047 C.3     1  UNL1        0.0885
      3 N         -13.0258  -16.7584   20.8762 N.3     1  UNL1       -0.2947
      4 C         -11.9253  -16.0585   20.1353 C.3     1  UNL1        0.0903
      5 C         -10.5422  -16.6390   20.1228 C.3     1  UNL1        0.1076
      6 N         -10.2597  -17.9193   20.8514 N.pl3   1  UNL1       -0.3093
      7 H         -13.3813  -16.0983   21.5679 H       1  UNL1        0.1233
      8 C          -8.8765  -18.4998   20.8389 C.2     1  UNL1        0.0295
      9 C          -8.5018  -19.5230   19.8082 C.2     1  UNL1        0.0120
     10 C          -7.1187  -20.1035   19.7957 C.2     1  UNL1        0.0216
     11 C          -6.1103  -19.6606   20.8141 C.2     1  UNL1        0.1008
     12 N          -4.6814  -20.0523   21.0479 N.2     1  UNL1       -0.1482
     13 N          -4.1730  -19.2711   22.2231 N.2     1  UNL1       -0.1467
     14 C          -5.2877  -18.3966   22.7157 C.2     1  UNL1        0.1198
     15 C          -6.4851  -18.6373   21.8448 C.2     1  UNL1        0.0238
     16 C          -7.8682  -18.0569   21.8572 C.3     1  UNL1        0.0705
     17 C         -11.0776  -19.8996   22.3208 C.3     1  UNL1        0.0211
     18 C          -9.3460  -20.6930   24.0879 C.3     1  UNL1        0.0001
     19 C         -10.5405  -19.8632   23.7209 C.3     1  UNL1        0.0017
     20 C         -11.1980  -18.9970   24.7540 C.3     1  UNL1        0.0001
@<TRIPOS>BOND
     1    18    19    1
     2    19    20    1
     3    19    17    1
     4    17     1    1
     5     1     2    1
     6     2     3    1
     7     3     4    1
     8     4     5    1
     9     5     6    1
    10     6     8    1
    11     8     9    2
    12     9    10    1
    13    10    11    2
    14    11    12    1
    15    12    13    2
    16    13    14    1
    17    14    15    2
    18    15    16    1
    19     6     1    1
    20    16     8    1
    21    15    11    1
    22     3     7    1
@<TRIPOS>MOLECULE
*****
 20 22 0 0 0
SMALL
GASTEIGER

@<TRIPOS>ATOM
      1 C          -8.6710  -17.5166   22.9778 C.3     1  UNL1        0.0883
      2 C          -9.6977  -16.6567   23.6536 C.3     1  UNL1        0.0885
      3 N          -9.2675  -15.4598   24.4488 N.3     1  UNL1       -0.2947
      4 C          -7.8107  -15.1227   24.5682 C.3     1  UNL1        0.0903
      5 C          -6.7841  -15.9826   23.8924 C.3     1  UNL1        0.1076
      6 N          -7.2143  -17.1795   23.0972 N.pl3   1  UNL1       -0.3093
      7 H          -9.6171  -15.5953   25.3974 H       1  UNL1        0.1233
      8 C          -6.1876  -18.0394   22.4214 C.2     1  UNL1        0.0295
      9 C          -6.6066  -19.0166   21.3636 C.2     1  UNL1        0.0120
     10 C          -5.5799  -19.8765   20.6878 C.2     1  UNL1        0.0216
     11 C          -4.1342  -19.7590   21.0700 C.2     1  UNL1        0.1008
     12 N          -2.9061  -20.4686   20.5819 N.2     1  UNL1       -0.1482
     13 N          -1.7281  -19.9298   21.3382 N.2     1  UNL1       -0.1467
     14 C          -2.2281  -18.8872   22.2937 C.2     1  UNL1        0.1198
     15 C          -3.7152  -18.7816   22.1280 C.2     1  UNL1        0.0238
     16 C          -4.7419  -17.9218   22.8037 C.3     1  UNL1        0.0705
     17 C          -9.1011  -18.7135   22.1826 C.3     1  UNL1        0.0211
     18 C          -9.4867  -20.4131   24.1096 C.3     1  UNL1        0.0001
     19 C          -9.9362  -19.7807   22.8258 C.3     1  UNL1        0.0017
     20 C         -11.2210  -20.2155   22.1852 C.3     1  UNL1        0.0001
@<TRIPOS>BOND
     1    18    19    1
     2    19    20    1
     3    19    17    1
     4    17     1    1
     5     1     2    1
     6     2     3    1
     7     3     4    1
     8     4     5    1
     9     5     6    1
    10     6     8    1
    11     8     9    2
    12     9    10    1
    13    10    11    2
    14    11    12    1
    15    12    13    2
    16    13    14    1
    17    14    15    2
    18    15    16    1
    19     6     1    1
    20    16     8    1
    21    15    11    1
    22     3     7    1
@<TRIPOS>MOLECULE
*****
 20 22 0 0 0
SMALL
GASTEIGER

@<TRIPOS>ATOM
      1 C          -6.8000  -16.3239   23.6481 C.3     1  UNL1        0.0883
      2 C          -7.7890  -15.6236   24.5323 C.3     1  UNL1        0.0885
      3 N          -7.3474  -15.0554   25.8483 N.3     1  UNL1       -0.2947
      4 C          -5.9170  -15.1874   26.2803 C.3     1  UNL1        0.0903
      5 C          -4.9282  -15.8876   25.3961 C.3     1  UNL1        0.1076
      6 N          -5.3697  -16.4559   24.0800 N.pl3   1  UNL1       -0.3093
      7 H          -7.9148  -15.5035   26.5678 H       1  UNL1        0.1233
      8 C          -4.3807  -17.1562   23.1959 C.2     1  UNL1        0.0295
      9 C          -4.4728  -18.6398   22.9956 C.2     1  UNL1        0.0120
     10 C          -3.4838  -19.3401   22.1114 C.2     1  UNL1        0.0216
     11 C          -2.4028  -18.5566   21.4276 C.2     1  UNL1        0.1008
     12 N          -1.2947  -18.9694   20.5048 N.2     1  UNL1       -0.1482
     13 N          -0.5178  -17.7408   20.1348 N.2     1  UNL1       -0.1467
     14 C          -1.1458  -16.5686   20.8289 C.2     1  UNL1        0.1198
     15 C          -2.3108  -17.0729   21.6279 C.2     1  UNL1        0.0238
     16 C          -3.2998  -16.3727   22.5121 C.3     1  UNL1        0.0705
     17 C          -7.2415  -16.8922   22.3320 C.3     1  UNL1        0.0211
     18 C          -9.7524  -17.2854   21.7925 C.3     1  UNL1        0.0001
     19 C          -8.4294  -17.8062   22.2702 C.3     1  UNL1        0.0017
     20 C          -8.2940  -19.2410   22.6862 C.3     1  UNL1        0.0001
@<TRIPOS>BOND
     1    18    19    1
     2    19    20    1
     3    19    17    1
     4    17     1    1
     5     1     2    1
     6     2     3    1
     7     3     4    1
     8     4     5    1
     9     5     6    1
    10     6     8    1
    11     8     9    2
    12     9    10    1
    13    10    11    2
    14    11    12    1
    15    12    13    2
    16    13    14    1
    17    14    15    2
    18    15    16    1
    19     6     1    1
    20    16     8    1
    21    15    11    1
    22     3     7    1
@<TRIPOS>MOLECULE
*****
 20 22 0 0 0
SMALL
GASTEIGER

@<TRIPOS>ATOM
      1 C         -12.4108   -4.3923   18.8266 C.3     1  UNL1        0.0883
      2 C         -11.9563   -2.9644   18.8936 C.3     1  UNL1        0.0885
      3 N         -12.8721   -1.8641   18.4456 N.3     1  UNL1       -0.2947
      4 C         -14.2423   -2.1917   17.9307 C.3     1  UNL1        0.0903
      5 C         -14.6967   -3.6197   17.8637 C.3     1  UNL1        0.1076
      6 N         -13.7810   -4.7199   18.3117 N.pl3   1  UNL1       -0.3093
      7 H         -12.3888   -1.3643   17.6992 H       1  UNL1        0.1233
      8 C         -14.2355   -6.1479   18.2447 C.2     1  UNL1        0.0295
      9 C         -13.7680   -7.0321   17.1270 C.2     1  UNL1        0.0120
     10 C         -14.2225   -8.4601   17.0600 C.2     1  UNL1        0.0216
     11 C         -15.1445   -9.0037   18.1109 C.2     1  UNL1        0.1008
     12 N         -15.7559  -10.3595   18.3057 N.2     1  UNL1       -0.1482
     13 N         -16.6012  -10.3132   19.5440 N.2     1  UNL1       -0.1467
     14 C         -16.5123   -8.9287   20.1144 C.2     1  UNL1        0.1198
     15 C         -15.6120   -8.1194   19.2287 C.2     1  UNL1        0.0238
     16 C         -15.1575   -6.6915   19.2956 C.3     1  UNL1        0.0705
     17 C         -11.4950   -5.4926   19.2746 C.3     1  UNL1        0.0211
     18 C         -10.3155   -5.4581   16.9599 C.3     1  UNL1        0.0001
     19 C         -10.4808   -6.0577   18.3248 C.3     1  UNL1        0.0017
     20 C          -9.6319   -7.2226   18.7401 C.3     1  UNL1        0.0001
@<TRIPOS>BOND
     1    18    19    1
     2    19    20    1
     3    19    17    1
     4    17     1    1
     5     1     2    1
     6     2     3    1
     7     3     4    1
     8     4     5    1
     9     5     6    1
    10     6     8    1
    11     8     9    2
    12     9    10    1
    13    10    11    2
    14    11    12    1
    15    12    13    2
    16    13    14    1
    17    14    15    2
    18    15    16    1
    19     6     1    1
    20    16     8    1
    21    15    11    1
    22     3     7    1
@<TRIPOS>MOLECULE
*****
 20 22 0 0 0
SMALL
GASTEIGER

@<TRIPOS>ATOM
      1 C         -11.4940   -6.5835   17.1751 C.3     1  UNL1        0.0883
      2 C         -11.0371   -8.0083   17.0689 C.3     1  UNL1        0.0885
      3 N          -9.9408   -8.5126   17.9599 N.3     1  UNL1       -0.2947
      4 C          -9.3015   -7.5922   18.9570 C.3     1  UNL1        0.0903
      5 C          -9.7585   -6.1674   19.0631 C.3     1  UNL1        0.1076
      6 N         -10.8547   -5.6631   18.1721 N.pl3   1  UNL1       -0.3093
      7 H          -9.1960   -8.8483   17.3492 H       1  UNL1        0.1233
      8 C         -11.3117   -4.2383   18.2782 C.2     1  UNL1        0.0295
      9 C         -12.3283   -3.8516   19.3110 C.2     1  UNL1        0.0120
     10 C         -12.7852   -2.4268   19.4172 C.2     1  UNL1        0.0216
     11 C         -12.2254   -1.3887   18.4904 C.2     1  UNL1        0.1008
     12 N         -12.4830    0.0831   18.3590 N.2     1  UNL1       -0.1482
     13 N         -11.6255    0.6061   17.2449 N.2     1  UNL1       -0.1467
     14 C         -10.8379   -0.5425   16.6878 C.2     1  UNL1        0.1198
     15 C         -11.2087   -1.7754   17.4576 C.2     1  UNL1        0.0238
     16 C         -10.7518   -3.2002   17.3515 C.3     1  UNL1        0.0705
     17 C         -12.5903   -6.0791   16.2841 C.3     1  UNL1        0.0211
     18 C         -14.8736   -5.1518   17.1068 C.3     1  UNL1        0.0001
     19 C         -14.0251   -6.3048   16.6590 C.3     1  UNL1        0.0017
     20 C         -14.6113   -7.6835   16.5860 C.3     1  UNL1        0.0001
@<TRIPOS>BOND
     1    18    19    1
     2    19    20    1
     3    19    17    1
     4    17     1    1
     5     1     2    1
     6     2     3    1
     7     3     4    1
     8     4     5    1
     9     5     6    1
    10     6     8    1
    11     8     9    2
    12     9    10    1
    13    10    11    2
    14    11    12    1
    15    12    13    2
    16    13    14    1
    17    14    15    2
    18    15    16    1
    19     6     1    1
    20    16     8    1
    21    15    11    1
    22     3     7    1
@<TRIPOS>MOLECULE
*****
 20 22 0 0 0
SMALL
GASTEIGER

@<TRIPOS>ATOM
      1 C          -6.3904  -17.2712   22.9356 C.3     1  UNL1        0.0883
      2 C          -5.0096  -17.1129   23.5000 C.3     1  UNL1        0.0885
      3 N          -4.7830  -16.2297   24.6910 N.3     1  UNL1       -0.2947
      4 C          -5.9371  -15.5048   25.3176 C.3     1  UNL1        0.0903
      5 C          -7.3178  -15.6631   24.7532 C.3     1  UNL1        0.1076
      6 N          -7.5444  -16.5463   23.5622 N.pl3   1  UNL1       -0.3093
      7 H          -4.1085  -15.5193   24.4067 H       1  UNL1        0.1233
      8 C          -8.9252  -16.7046   22.9978 C.2     1  UNL1        0.0295
      9 C          -9.9464  -17.5220   23.7320 C.2     1  UNL1        0.0120
     10 C         -11.3272  -17.6803   23.1676 C.2     1  UNL1        0.0216
     11 C         -11.6867  -17.0212   21.8690 C.2     1  UNL1        0.1008
     12 N         -12.9578  -16.9987   21.0730 N.2     1  UNL1       -0.1482
     13 N         -12.7222  -16.1674   19.8469 N.2     1  UNL1       -0.1467
     14 C         -11.3055  -15.6761   19.8851 C.2     1  UNL1        0.1198
     15 C         -10.6654  -16.2037   21.1349 C.2     1  UNL1        0.0238
     16 C          -9.2847  -16.0455   21.6993 C.3     1  UNL1        0.0705
     17 C          -6.6171  -18.1544   21.7446 C.3     1  UNL1        0.0211
     18 C          -6.4507  -20.6992   22.2412 C.3     1  UNL1        0.0001
     19 C          -5.8810  -19.4559   21.6250 C.3     1  UNL1        0.0017
     20 C          -4.5752  -19.5142   20.8892 C.3     1  UNL1        0.0001
@<TRIPOS>BOND
     1    18    19    1
     2    19    20    1
     3    19    17    1
     4    17     1    1
     5     1     2    1
     6     2     3    1
     7     3     4    1
     8     4     5    1
     9     5     6    1
    10     6     8    1
    11     8     9    2
    12     9    10    1
    13    10    11    2
    14    11    12    1
    15    12    13    2
    16    13    14    1
    17    14    15    2
    18    15    16    1
    19     6     1    1
    20    16     8    1
    21    15    11    1
    22     3     7    1
