@<TRIPOS>MOLECULE
*****
 36 39 0 0 0
SMALL
GASTEIGER

@<TRIPOS>ATOM
      1 C           4.2689   -1.5680   24.4520 C.2     1  UNL1        0.0307
      2 C           4.1060   -0.9818   25.8231 C.2     1  UNL1        0.2320
      3 N           3.1005    0.1059   26.0591 N.2     1  UNL1       -0.0311
      4 C           2.2579    0.6075   24.9240 C.2     1  UNL1        0.3721
      5 N           1.1927    1.6614   24.8541 N.2     1  UNL1       -0.0307
      6 C           0.6972    1.7265   23.4398 C.2     1  UNL1        0.2390
      7 C           1.4562    0.7129   22.6357 C.2     1  UNL1        0.0896
      8 C           2.4207    0.0213   23.5530 C.2     1  UNL1        0.0774
      9 C           3.4262   -1.0664   23.3170 C.3     1  UNL1        0.0646
     10 C           7.2855   -4.8313   23.7438 C.ar    1  UNL1        0.0590
     11 C           7.3594   -3.9991   24.9896 C.ar    1  UNL1        0.0147
     12 C           6.3538   -2.9113   25.2257 C.ar    1  UNL1        0.0026
     13 C           5.2744   -2.6558   24.2160 C.ar    1  UNL1        0.0192
     14 C           5.2005   -3.4879   22.9702 C.ar    1  UNL1        0.0982
     15 N           6.2060   -4.5757   22.7341 N.ar    1  UNL1       -0.2482
     16 C           8.2910   -5.9190   23.5077 C.3     1  UNL1        0.0458
     17 C           9.3490   -7.8119   24.9387 C.3     1  UNL1        0.0004
     18 C           8.1633   -7.2278   24.2293 C.3     1  UNL1        0.0063
     19 C           1.2814    0.4389   21.1713 C.2     1  UNL1        0.2036
     20 O          -0.0581    0.0211   20.6411 O.2     1  UNL1       -0.2863
     21 C           2.4461    0.5828   20.2371 C.ar    1  UNL1        0.0951
     22 C           2.9256    1.9478   19.8409 C.ar    1  UNL1        0.1454
     23 F           2.2404    3.1688   20.3789 F       1  UNL1       -0.2040
     24 C           4.0903    2.0917   18.9066 C.ar    1  UNL1        0.0312
     25 C           4.7755    0.8706   18.3686 C.ar    1  UNL1        0.0204
     26 C           4.2960   -0.4943   18.7648 C.ar    1  UNL1        0.0920
     27 C           3.1313   -0.6382   19.6990 C.ar    1  UNL1        0.1598
     28 F           2.6519   -2.0032   20.0951 F       1  UNL1       -0.2026
     29 N           4.9812   -1.7154   18.2267 N.pl3   1  UNL1       -0.2166
     30 H           4.4891   -2.3409   17.6472 H       1  UNL1        0.1734
     31 S           6.4162   -1.9835   18.5717 S.O2    1  UNL1        0.0540
     32 O           6.8100   -1.7035   17.1518 O.2     1  UNL1       -0.1545
     33 O           6.0224   -2.2635   19.9918 O.2     1  UNL1       -0.1545
     34 C           7.8511   -2.2515   18.9169 C.3     1  UNL1        0.1724
     35 C           8.2206   -2.6833   20.3050 C.3     1  UNL1        0.0273
     36 C           9.1134   -3.8714   20.5083 C.3     1  UNL1        0.0019
@<TRIPOS>BOND
     1    17    18    1
     2    18    16    1
     3    16    10    1
     4    10    11   ar
     5    11    12   ar
     6    12    13   ar
     7    13     1    1
     8     1     2    2
     9     2     3    1
    10     3     4    2
    11     4     5    1
    12     5     6    2
    13     6     7    1
    14     7    19    1
    15    19    20    2
    16    19    21    1
    17    21    22   ar
    18    22    23    1
    19    22    24   ar
    20    24    25   ar
    21    25    26   ar
    22    26    29    1
    23    29    31    1
    24    31    32    2
    25    31    33    2
    26    31    34    1
    27    34    35    1
    28    35    36    1
    29    26    27   ar
    30    27    28    1
    31     7     8    2
    32     8     9    1
    33    13    14   ar
    34    14    15   ar
    35    15    10   ar
    36     9     1    1
    37     8     4    1
    38    27    21   ar
    39    29    30    1
@<TRIPOS>MOLECULE
*****
 36 39 0 0 0
SMALL
GASTEIGER

@<TRIPOS>ATOM
      1 C           4.3870   -1.6934   24.2566 C.2     1  UNL1        0.0307
      2 C           5.6189   -2.2648   24.8937 C.2     1  UNL1        0.2320
      3 N           6.5380   -3.1414   24.0958 N.2     1  UNL1       -0.0311
      4 C           6.2252   -3.4466   22.6609 C.2     1  UNL1        0.3721
      5 N           6.9389   -4.2722   21.6317 N.2     1  UNL1       -0.0307
      6 C           6.1481   -4.2110   20.3586 C.2     1  UNL1        0.2390
      7 C           4.9456   -3.3476   20.6010 C.2     1  UNL1        0.0896
      8 C           4.9933   -2.8752   22.0238 C.2     1  UNL1        0.0774
      9 C           4.0742   -1.9986   22.8217 C.3     1  UNL1        0.0646
     10 C           1.6294    0.9366   26.6503 C.ar    1  UNL1        0.0590
     11 C           1.5536    0.9373   25.1522 C.ar    1  UNL1        0.0147
     12 C           2.4728    0.0607   24.3543 C.ar    1  UNL1        0.0026
     13 C           3.4677   -0.8167   25.0545 C.ar    1  UNL1        0.0192
     14 C           3.5436   -0.8174   26.5526 C.ar    1  UNL1        0.0982
     15 N           2.6244    0.0592   27.3505 N.ar    1  UNL1       -0.2482
     16 C           0.7103    1.8133   27.4482 C.3     1  UNL1        0.0458
     17 C          -0.9017    0.0338   28.4409 C.3     1  UNL1        0.0004
     18 C          -0.6827    1.3523   27.7598 C.3     1  UNL1        0.0063
     19 C           3.8822   -3.0150   19.5968 C.2     1  UNL1        0.2036
     20 O           2.9545   -4.0859   19.1041 O.2     1  UNL1       -0.2863
     21 C           3.7463   -1.6115   19.0852 C.ar    1  UNL1        0.0951
     22 C           4.8445   -1.0028   18.2646 C.ar    1  UNL1        0.1454
     23 F           6.0785   -1.7975   17.9556 F       1  UNL1       -0.2040
     24 C           4.7086    0.4007   17.7530 C.ar    1  UNL1        0.0312
     25 C           3.4746    1.1955   18.0620 C.ar    1  UNL1        0.0204
     26 C           2.3764    0.5867   18.8826 C.ar    1  UNL1        0.0920
     27 C           2.5123   -0.8168   19.3942 C.ar    1  UNL1        0.1598
     28 F           1.4140   -1.4255   20.2147 F       1  UNL1       -0.2026
     29 N           1.1423    1.3815   19.1916 N.pl3   1  UNL1       -0.2166
     30 H           0.4921    1.5780   18.4790 H       1  UNL1        0.1734
     31 S           0.8990    1.8768   20.5864 S.O2    1  UNL1        0.0540
     32 O          -0.3522    1.0530   20.6608 O.2     1  UNL1       -0.1545
     33 O           2.1503    2.7007   20.5121 O.2     1  UNL1       -0.1545
     34 C           0.6558    2.3722   21.9812 C.3     1  UNL1        0.1724
     35 C          -0.6865    2.9264   22.3569 C.3     1  UNL1        0.0273
     36 C          -0.9715    3.3004   23.7813 C.3     1  UNL1        0.0019
@<TRIPOS>BOND
     1    17    18    1
     2    18    16    1
     3    16    10    1
     4    10    11   ar
     5    11    12   ar
     6    12    13   ar
     7    13     1    1
     8     1     2    2
     9     2     3    1
    10     3     4    2
    11     4     5    1
    12     5     6    2
    13     6     7    1
    14     7    19    1
    15    19    20    2
    16    19    21    1
    17    21    22   ar
    18    22    23    1
    19    22    24   ar
    20    24    25   ar
    21    25    26   ar
    22    26    29    1
    23    29    31    1
    24    31    32    2
    25    31    33    2
    26    31    34    1
    27    34    35    1
    28    35    36    1
    29    26    27   ar
    30    27    28    1
    31     7     8    2
    32     8     9    1
    33    13    14   ar
    34    14    15   ar
    35    15    10   ar
    36     9     1    1
    37     8     4    1
    38    27    21   ar
    39    29    30    1
@<TRIPOS>MOLECULE
*****
 36 39 0 0 0
SMALL
GASTEIGER

@<TRIPOS>ATOM
      1 C           2.1958    0.6656   21.9435 C.2     1  UNL1        0.0307
      2 C           1.9100    1.8143   21.0223 C.2     1  UNL1        0.2320
      3 N           2.2508    1.7099   19.5653 N.2     1  UNL1       -0.0311
      4 C           2.8774    0.4567   19.0295 C.2     1  UNL1        0.3721
      5 N           3.3203    0.0663   17.6505 N.2     1  UNL1       -0.0307
      6 C           3.8797   -1.3237   17.7196 C.2     1  UNL1        0.2390
      7 C           3.7826   -1.7924   19.1412 C.2     1  UNL1        0.0896
      8 C           3.1631   -0.6920   19.9507 C.2     1  UNL1        0.0774
      9 C           2.8223   -0.5875   21.4077 C.3     1  UNL1        0.0646
     10 C           1.1735    0.9788   26.3147 C.ar    1  UNL1        0.0590
     11 C           0.1536    1.3459   25.2778 C.ar    1  UNL1        0.0147
     12 C           0.4944    1.2415   23.8207 C.ar    1  UNL1        0.0026
     13 C           1.8550    0.7700   23.4006 C.ar    1  UNL1        0.0192
     14 C           2.8748    0.4030   24.4375 C.ar    1  UNL1        0.0982
     15 N           2.5341    0.5073   25.8945 N.ar    1  UNL1       -0.2482
     16 C           0.8327    1.0832   27.7717 C.3     1  UNL1        0.0458
     17 C          -1.1205   -0.3887   28.6484 C.3     1  UNL1        0.0004
     18 C          -0.5923    0.9484   28.2202 C.3     1  UNL1        0.0063
     19 C           4.2269   -3.1271   19.6619 C.2     1  UNL1        0.2036
     20 O           3.3694   -4.3390   19.4478 O.2     1  UNL1       -0.2863
     21 C           5.5289   -3.2499   20.3966 C.ar    1  UNL1        0.0951
     22 C           6.8169   -2.9257   19.6996 C.ar    1  UNL1        0.1454
     23 F           6.8030   -2.4786   18.2679 F       1  UNL1       -0.2040
     24 C           8.1188   -3.0485   20.4344 C.ar    1  UNL1        0.0312
     25 C           8.1327   -3.4956   21.8662 C.ar    1  UNL1        0.0204
     26 C           6.8447   -3.8198   22.5631 C.ar    1  UNL1        0.0920
     27 C           5.5428   -3.6970   21.8284 C.ar    1  UNL1        0.1598
     28 F           4.2548   -4.0212   22.5254 F       1  UNL1       -0.2026
     29 N           6.8586   -4.2669   23.9949 N.pl3   1  UNL1       -0.2166
     30 H           6.1872   -3.9195   24.6256 H       1  UNL1        0.1734
     31 S           7.8954   -5.2434   24.4656 S.O2    1  UNL1        0.0540
     32 O           8.1792   -4.3703   25.6518 O.2     1  UNL1       -0.1545
     33 O           7.6116   -6.1165   23.2794 O.2     1  UNL1       -0.1545
     34 C           8.9322   -6.2199   24.9362 C.3     1  UNL1        0.1724
     35 C           8.5230   -7.5941   25.3768 C.3     1  UNL1        0.0273
     36 C           7.2970   -7.7769   26.2214 C.3     1  UNL1        0.0019
@<TRIPOS>BOND
     1    17    18    1
     2    18    16    1
     3    16    10    1
     4    10    11   ar
     5    11    12   ar
     6    12    13   ar
     7    13     1    1
     8     1     2    2
     9     2     3    1
    10     3     4    2
    11     4     5    1
    12     5     6    2
    13     6     7    1
    14     7    19    1
    15    19    20    2
    16    19    21    1
    17    21    22   ar
    18    22    23    1
    19    22    24   ar
    20    24    25   ar
    21    25    26   ar
    22    26    29    1
    23    29    31    1
    24    31    32    2
    25    31    33    2
    26    31    34    1
    27    34    35    1
    28    35    36    1
    29    26    27   ar
    30    27    28    1
    31     7     8    2
    32     8     9    1
    33    13    14   ar
    34    14    15   ar
    35    15    10   ar
    36     9     1    1
    37     8     4    1
    38    27    21   ar
    39    29    30    1
@<TRIPOS>MOLECULE
*****
 36 39 0 0 0
SMALL
GASTEIGER

@<TRIPOS>ATOM
      1 C           3.9313   -1.4096   23.1633 C.2     1  UNL1        0.0307
      2 C           3.2785   -1.4140   21.8129 C.2     1  UNL1        0.2320
      3 N           3.8995   -2.1795   20.6822 N.2     1  UNL1       -0.0311
      4 C           5.1732   -2.9406   20.9021 C.2     1  UNL1        0.3721
      5 N           6.0118   -3.7802   19.9845 N.2     1  UNL1       -0.0307
      6 C           7.1829   -4.2947   20.7680 C.2     1  UNL1        0.2390
      7 C           7.0680   -3.7731   22.1697 C.2     1  UNL1        0.0896
      8 C           5.8260   -2.9362   22.2526 C.2     1  UNL1        0.0774
      9 C           5.2050   -2.1707   23.3832 C.3     1  UNL1        0.0646
     10 C           2.0685    0.8870   26.5555 C.ar    1  UNL1        0.0590
     11 C           1.6055    1.1207   25.1480 C.ar    1  UNL1        0.0147
     12 C           2.2264    0.3552   24.0173 C.ar    1  UNL1        0.0026
     13 C           3.3104   -0.6440   24.2941 C.ar    1  UNL1        0.0192
     14 C           3.7734   -0.8778   25.7015 C.ar    1  UNL1        0.0982
     15 N           3.1525   -0.1123   26.8322 N.ar    1  UNL1       -0.2482
     16 C           1.4477    1.6525   27.6862 C.3     1  UNL1        0.0458
     17 C          -1.1498    1.7072   27.6626 C.3     1  UNL1        0.0004
     18 C           0.1661    2.4013   27.4703 C.3     1  UNL1        0.0063
     19 C           8.0269   -4.0413   23.2916 C.2     1  UNL1        0.2036
     20 O           9.2502   -3.1884   23.4528 O.2     1  UNL1       -0.2863
     21 C           7.7624   -5.1624   24.2524 C.ar    1  UNL1        0.0951
     22 C           8.2194   -6.5533   23.9261 C.ar    1  UNL1        0.1454
     23 F           8.9408   -6.8231   22.6390 F       1  UNL1       -0.2040
     24 C           7.9549   -7.6744   24.8869 C.ar    1  UNL1        0.0312
     25 C           7.2335   -7.4047   26.1740 C.ar    1  UNL1        0.0204
     26 C           6.7765   -6.0138   26.5004 C.ar    1  UNL1        0.0920
     27 C           7.0410   -4.8926   25.5396 C.ar    1  UNL1        0.1598
     28 F           6.5839   -3.5018   25.8660 F       1  UNL1       -0.2026
     29 N           6.0551   -5.7440   27.7875 N.pl3   1  UNL1       -0.2166
     30 H           5.0966   -5.9539   27.8679 H       1  UNL1        0.1734
     31 S           6.7941   -5.1544   28.9521 S.O2    1  UNL1        0.0540
     32 O           7.5338   -6.4461   29.1367 O.2     1  UNL1       -0.1545
     33 O           6.0543   -3.8626   28.7675 O.2     1  UNL1       -0.1545
     34 C           7.5330   -4.5647   30.1167 C.3     1  UNL1        0.1724
     35 C           6.9193   -4.5904   31.4852 C.3     1  UNL1        0.0273
     36 C           6.7588   -3.3156   32.2592 C.3     1  UNL1        0.0019
@<TRIPOS>BOND
     1    17    18    1
     2    18    16    1
     3    16    10    1
     4    10    11   ar
     5    11    12   ar
     6    12    13   ar
     7    13     1    1
     8     1     2    2
     9     2     3    1
    10     3     4    2
    11     4     5    1
    12     5     6    2
    13     6     7    1
    14     7    19    1
    15    19    20    2
    16    19    21    1
    17    21    22   ar
    18    22    23    1
    19    22    24   ar
    20    24    25   ar
    21    25    26   ar
    22    26    29    1
    23    29    31    1
    24    31    32    2
    25    31    33    2
    26    31    34    1
    27    34    35    1
    28    35    36    1
    29    26    27   ar
    30    27    28    1
    31     7     8    2
    32     8     9    1
    33    13    14   ar
    34    14    15   ar
    35    15    10   ar
    36     9     1    1
    37     8     4    1
    38    27    21   ar
    39    29    30    1
@<TRIPOS>MOLECULE
*****
 36 39 0 0 0
SMALL
GASTEIGER

@<TRIPOS>ATOM
      1 C           6.5354   -4.2244   25.5579 C.2     1  UNL1        0.0307
      2 C           6.9435   -5.5665   26.0890 C.2     1  UNL1        0.2320
      3 N           7.1654   -5.7550   27.5604 N.2     1  UNL1       -0.0311
      4 C           6.9792   -4.6013   28.5008 C.2     1  UNL1        0.3721
      5 N           7.1250   -4.4861   29.9893 N.2     1  UNL1       -0.0307
      6 C           6.8070   -3.0727   30.3781 C.2     1  UNL1        0.2390
      7 C           6.4647   -2.3144   29.1300 C.2     1  UNL1        0.0896
      8 C           6.5712   -3.2591   27.9697 C.2     1  UNL1        0.0774
      9 C           6.3493   -3.0707   26.4983 C.3     1  UNL1        0.0646
     10 C           5.8696   -3.6588   21.1434 C.ar    1  UNL1        0.0590
     11 C           4.9098   -3.0615   22.1293 C.ar    1  UNL1        0.0147
     12 C           5.1317   -3.2500   23.6008 C.ar    1  UNL1        0.0026
     13 C           6.3135   -4.0358   24.0864 C.ar    1  UNL1        0.0192
     14 C           7.2733   -4.6332   23.1006 C.ar    1  UNL1        0.0982
     15 N           7.0514   -4.4447   21.6291 N.ar    1  UNL1       -0.2482
     16 C           5.6477   -3.4703   19.6720 C.3     1  UNL1        0.0458
     17 C           3.3044   -4.4210   19.0761 C.3     1  UNL1        0.0004
     18 C           4.7952   -4.4424   18.9115 C.3     1  UNL1        0.0063
     19 C           6.0830   -0.8657   29.0552 C.2     1  UNL1        0.2036
     20 O           7.0192    0.1252   28.4296 O.2     1  UNL1       -0.2863
     21 C           4.7651   -0.4080   29.6061 C.ar    1  UNL1        0.0951
     22 C           4.7200    0.4004   30.8688 C.ar    1  UNL1        0.1454
     23 F           5.9929    0.7510   31.5807 F       1  UNL1       -0.2040
     24 C           3.4021    0.8581   31.4197 C.ar    1  UNL1        0.0312
     25 C           2.1292    0.5075   30.7078 C.ar    1  UNL1        0.0204
     26 C           2.1742   -0.3008   29.4451 C.ar    1  UNL1        0.0920
     27 C           3.4922   -0.7586   28.8942 C.ar    1  UNL1        0.1598
     28 F           3.5371   -1.5669   27.6315 F       1  UNL1       -0.2026
     29 N           0.9013   -0.6515   28.7333 N.pl3   1  UNL1       -0.2166
     30 H           0.6989   -1.5912   28.5206 H       1  UNL1        0.1734
     31 S          -0.0634    0.4298   28.3454 S.O2    1  UNL1        0.0540
     32 O          -1.0630   -0.1108   29.3243 O.2     1  UNL1       -0.1545
     33 O           0.9363    0.9705   27.3664 O.2     1  UNL1       -0.1545
     34 C          -1.0279    1.5111   27.9575 C.3     1  UNL1        0.1724
     35 C          -0.6904    2.4510   26.8383 C.3     1  UNL1        0.0273
     36 C          -1.7427    2.8401   25.8425 C.3     1  UNL1        0.0019
@<TRIPOS>BOND
     1    17    18    1
     2    18    16    1
     3    16    10    1
     4    10    11   ar
     5    11    12   ar
     6    12    13   ar
     7    13     1    1
     8     1     2    2
     9     2     3    1
    10     3     4    2
    11     4     5    1
    12     5     6    2
    13     6     7    1
    14     7    19    1
    15    19    20    2
    16    19    21    1
    17    21    22   ar
    18    22    23    1
    19    22    24   ar
    20    24    25   ar
    21    25    26   ar
    22    26    29    1
    23    29    31    1
    24    31    32    2
    25    31    33    2
    26    31    34    1
    27    34    35    1
    28    35    36    1
    29    26    27   ar
    30    27    28    1
    31     7     8    2
    32     8     9    1
    33    13    14   ar
    34    14    15   ar
    35    15    10   ar
    36     9     1    1
    37     8     4    1
    38    27    21   ar
    39    29    30    1
@<TRIPOS>MOLECULE
*****
 36 39 0 0 0
SMALL
GASTEIGER

@<TRIPOS>ATOM
      1 C          -7.3800  -19.3373   20.4226 C.2     1  UNL1        0.0307
      2 C          -7.9745  -20.3622   19.5029 C.2     1  UNL1        0.2320
      3 N          -9.4630  -20.4504   19.3402 N.2     1  UNL1       -0.0311
      4 C         -10.3570  -19.5135   20.0972 C.2     1  UNL1        0.3721
      5 N         -11.8490  -19.3643   20.1393 N.2     1  UNL1       -0.0307
      6 C         -12.1766  -18.2471   21.0851 C.2     1  UNL1        0.2390
      7 C         -10.8870  -17.7059   21.6275 C.2     1  UNL1        0.0896
      8 C          -9.7625  -18.4886   21.0170 C.2     1  UNL1        0.0774
      9 C          -8.2740  -18.4004   21.1797 C.3     1  UNL1        0.0646
     10 C          -2.9143  -19.0728   20.9109 C.ar    1  UNL1        0.0590
     11 C          -3.5436  -18.7608   19.5855 C.ar    1  UNL1        0.0147
     12 C          -5.0322  -18.8490   19.4228 C.ar    1  UNL1        0.0026
     13 C          -5.8914  -19.2491   20.5854 C.ar    1  UNL1        0.0192
     14 C          -5.2621  -19.5610   21.9108 C.ar    1  UNL1        0.0982
     15 N          -3.7736  -19.4729   22.0735 N.ar    1  UNL1       -0.2482
     16 C          -1.4258  -18.9846   21.0737 C.3     1  UNL1        0.0458
     17 C           0.5140  -17.5322   20.1367 C.3     1  UNL1        0.0004
     18 C          -0.5701  -18.5466   19.9222 C.3     1  UNL1        0.0063
     19 C         -10.7467  -16.5797   22.6083 C.2     1  UNL1        0.2036
     20 O         -11.5142  -15.3072   22.4041 O.2     1  UNL1       -0.2863
     21 C          -9.8387  -16.7259   23.7933 C.ar    1  UNL1        0.0951
     22 C         -10.2028  -17.6636   24.9059 C.ar    1  UNL1        0.1454
     23 F         -11.4749  -18.4552   24.8336 F       1  UNL1       -0.2040
     24 C          -9.2949  -17.8099   26.0909 C.ar    1  UNL1        0.0312
     25 C          -8.0228  -17.0183   26.1633 C.ar    1  UNL1        0.0204
     26 C          -7.6587  -16.0805   25.0507 C.ar    1  UNL1        0.0920
     27 C          -8.5666  -15.9343   23.8657 C.ar    1  UNL1        0.1598
     28 F          -8.2024  -14.9965   22.7531 F       1  UNL1       -0.2026
     29 N          -6.3866  -15.2890   25.1231 N.pl3   1  UNL1       -0.2166
     30 H          -6.3655  -14.4347   25.6119 H       1  UNL1        0.1734
     31 S          -5.1466  -15.7991   24.4506 S.O2    1  UNL1        0.0540
     32 O          -4.8524  -16.6581   25.6445 O.2     1  UNL1       -0.1545
     33 O          -5.4407  -14.9401   23.2566 O.2     1  UNL1       -0.1545
     34 C          -3.9066  -16.3092   23.7780 C.3     1  UNL1        0.1724
     35 C          -3.5634  -15.8520   22.3912 C.3     1  UNL1        0.0273
     36 C          -2.1353  -15.8550   21.9324 C.3     1  UNL1        0.0019
@<TRIPOS>BOND
     1    17    18    1
     2    18    16    1
     3    16    10    1
     4    10    11   ar
     5    11    12   ar
     6    12    13   ar
     7    13     1    1
     8     1     2    2
     9     2     3    1
    10     3     4    2
    11     4     5    1
    12     5     6    2
    13     6     7    1
    14     7    19    1
    15    19    20    2
    16    19    21    1
    17    21    22   ar
    18    22    23    1
    19    22    24   ar
    20    24    25   ar
    21    25    26   ar
    22    26    29    1
    23    29    31    1
    24    31    32    2
    25    31    33    2
    26    31    34    1
    27    34    35    1
    28    35    36    1
    29    26    27   ar
    30    27    28    1
    31     7     8    2
    32     8     9    1
    33    13    14   ar
    34    14    15   ar
    35    15    10   ar
    36     9     1    1
    37     8     4    1
    38    27    21   ar
    39    29    30    1
@<TRIPOS>MOLECULE
*****
 36 39 0 0 0
SMALL
GASTEIGER

@<TRIPOS>ATOM
      1 C           3.6099   -1.3930   22.5325 C.2     1  UNL1        0.0307
      2 C           4.2921   -2.6349   23.0246 C.2     1  UNL1        0.2320
      3 N           4.9922   -3.5403   22.0549 N.2     1  UNL1       -0.0311
      4 C           5.0099   -3.2038   20.5933 C.2     1  UNL1        0.3721
      5 N           5.6149   -3.9000   19.4103 N.2     1  UNL1       -0.0307
      6 C           5.3066   -3.0883   18.1872 C.2     1  UNL1        0.2390
      7 C           4.5110   -1.8905   18.6142 C.2     1  UNL1        0.0896
      8 C           4.3277   -1.9619   20.1012 C.2     1  UNL1        0.0774
      9 C           3.6277   -1.0565   21.0708 C.3     1  UNL1        0.0646
     10 C           1.5098    1.3234   25.4414 C.ar    1  UNL1        0.0590
     11 C           1.0831    1.2905   24.0037 C.ar    1  UNL1        0.0147
     12 C           1.7831    0.3850   23.0341 C.ar    1  UNL1        0.0026
     13 C           2.9099   -0.4875   23.5021 C.ar    1  UNL1        0.0192
     14 C           3.3366   -0.4546   24.9398 C.ar    1  UNL1        0.0982
     15 N           2.6366    0.4508   25.9094 N.ar    1  UNL1       -0.2482
     16 C           0.8098    2.2288   26.4110 C.3     1  UNL1        0.0458
     17 C          -0.9185    0.9997   27.9117 C.3     1  UNL1        0.0004
     18 C          -0.6137    1.9567   26.7975 C.3     1  UNL1        0.0063
     19 C           3.9902   -0.8108   17.7125 C.2     1  UNL1        0.2036
     20 O           3.7272   -1.1044   16.2652 O.2     1  UNL1       -0.2863
     21 C           3.7324    0.5624   18.2581 C.ar    1  UNL1        0.0951
     22 C           4.8773    1.4096   18.7289 C.ar    1  UNL1        0.1454
     23 F           6.2799    0.8834   18.6541 F       1  UNL1       -0.2040
     24 C           4.6194    2.7828   19.2744 C.ar    1  UNL1        0.0312
     25 C           3.2167    3.3090   19.3492 C.ar    1  UNL1        0.0204
     26 C           2.0719    2.4619   18.8784 C.ar    1  UNL1        0.0920
     27 C           2.3297    1.0886   18.3328 C.ar    1  UNL1        0.1598
     28 F           1.1848    0.2416   17.8620 F       1  UNL1       -0.2026
     29 N           0.6692    2.9881   18.9531 N.pl3   1  UNL1       -0.2166
     30 H           0.1399    3.0974   18.1302 H       1  UNL1        0.1734
     31 S           0.0729    3.3476   20.2818 S.O2    1  UNL1        0.0540
     32 O          -0.1086    1.8919   20.5944 O.2     1  UNL1       -0.1545
     33 O           0.2544    4.8035   19.9692 O.2     1  UNL1       -0.1545
     34 C          -0.5233    3.7073   21.6104 C.3     1  UNL1        0.1724
     35 C          -1.9576    3.3792   21.9023 C.3     1  UNL1        0.0273
     36 C          -3.0294    3.7685   20.9277 C.3     1  UNL1        0.0019
@<TRIPOS>BOND
     1    17    18    1
     2    18    16    1
     3    16    10    1
     4    10    11   ar
     5    11    12   ar
     6    12    13   ar
     7    13     1    1
     8     1     2    2
     9     2     3    1
    10     3     4    2
    11     4     5    1
    12     5     6    2
    13     6     7    1
    14     7    19    1
    15    19    20    2
    16    19    21    1
    17    21    22   ar
    18    22    23    1
    19    22    24   ar
    20    24    25   ar
    21    25    26   ar
    22    26    29    1
    23    29    31    1
    24    31    32    2
    25    31    33    2
    26    31    34    1
    27    34    35    1
    28    35    36    1
    29    26    27   ar
    30    27    28    1
    31     7     8    2
    32     8     9    1
    33    13    14   ar
    34    14    15   ar
    35    15    10   ar
    36     9     1    1
    37     8     4    1
    38    27    21   ar
    39    29    30    1
@<TRIPOS>MOLECULE
*****
 36 39 0 0 0
SMALL
GASTEIGER

@<TRIPOS>ATOM
      1 C          -7.2187  -19.4960   21.0047 C.2     1  UNL1        0.0307
      2 C          -6.8998  -20.7858   20.3085 C.2     1  UNL1        0.2320
      3 N          -5.4711  -21.1818   20.0808 N.2     1  UNL1       -0.0311
      4 C          -4.3612  -20.2881   20.5493 C.2     1  UNL1        0.3721
      5 N          -2.8687  -20.4134   20.4664 N.2     1  UNL1       -0.0307
      6 C          -2.2653  -19.2011   21.1114 C.2     1  UNL1        0.2390
      7 C          -3.3848  -18.3265   21.5929 C.2     1  UNL1        0.0896
      8 C          -4.6801  -18.9983   21.2456 C.2     1  UNL1        0.0774
      9 C          -6.1088  -18.6023   21.4733 C.3     1  UNL1        0.0646
     10 C         -11.5049  -18.3077   21.6879 C.ar    1  UNL1        0.0590
     11 C         -11.0248  -19.6626   22.1165 C.ar    1  UNL1        0.0147
     12 C          -9.5960  -20.0587   21.8888 C.ar    1  UNL1        0.0026
     13 C          -8.6474  -19.0999   21.2324 C.ar    1  UNL1        0.0192
     14 C          -9.1275  -17.7450   20.8038 C.ar    1  UNL1        0.0982
     15 N         -10.5562  -17.3489   21.0315 N.ar    1  UNL1       -0.2482
     16 C         -12.9336  -17.9116   21.9156 C.3     1  UNL1        0.0458
     17 C         -14.0889  -18.1636   24.2290 C.3     1  UNL1        0.0004
     18 C         -13.3481  -17.3231   23.2316 C.3     1  UNL1        0.0063
     19 C          -3.2352  -17.0111   22.2981 C.2     1  UNL1        0.2036
     20 O          -2.4848  -15.8898   21.6426 O.2     1  UNL1       -0.2863
     21 C          -3.8359  -16.8169   23.6587 C.ar    1  UNL1        0.0951
     22 C          -3.2653  -17.5424   24.8410 C.ar    1  UNL1        0.1454
     23 F          -2.0938  -18.4622   24.6627 F       1  UNL1       -0.2040
     24 C          -3.8660  -17.3483   26.2017 C.ar    1  UNL1        0.0312
     25 C          -5.0375  -16.4285   26.3800 C.ar    1  UNL1        0.0204
     26 C          -5.6081  -15.7030   25.1977 C.ar    1  UNL1        0.0920
     27 C          -5.0074  -15.8972   23.8371 C.ar    1  UNL1        0.1598
     28 F          -5.5781  -15.1716   22.6548 F       1  UNL1       -0.2026
     29 N          -6.7796  -14.7832   25.3761 N.pl3   1  UNL1       -0.2166
     30 H          -6.6327  -13.8399   25.6165 H       1  UNL1        0.1734
     31 S          -8.1749  -15.3008   25.1881 S.O2    1  UNL1        0.0540
     32 O          -8.2741  -15.5684   26.6606 O.2     1  UNL1       -0.1545
     33 O          -8.0757  -15.0332   23.7154 O.2     1  UNL1       -0.1545
     34 C          -9.5701  -15.8184   24.9999 C.3     1  UNL1        0.1724
     35 C          -9.7916  -17.1852   24.4231 C.3     1  UNL1        0.0273
     36 C          -9.8981  -18.3743   25.3312 C.3     1  UNL1        0.0019
@<TRIPOS>BOND
     1    17    18    1
     2    18    16    1
     3    16    10    1
     4    10    11   ar
     5    11    12   ar
     6    12    13   ar
     7    13     1    1
     8     1     2    2
     9     2     3    1
    10     3     4    2
    11     4     5    1
    12     5     6    2
    13     6     7    1
    14     7    19    1
    15    19    20    2
    16    19    21    1
    17    21    22   ar
    18    22    23    1
    19    22    24   ar
    20    24    25   ar
    21    25    26   ar
    22    26    29    1
    23    29    31    1
    24    31    32    2
    25    31    33    2
    26    31    34    1
    27    34    35    1
    28    35    36    1
    29    26    27   ar
    30    27    28    1
    31     7     8    2
    32     8     9    1
    33    13    14   ar
    34    14    15   ar
    35    15    10   ar
    36     9     1    1
    37     8     4    1
    38    27    21   ar
    39    29    30    1
@<TRIPOS>MOLECULE
*****
 36 39 0 0 0
SMALL
GASTEIGER

@<TRIPOS>ATOM
      1 C           2.3882    0.1330   27.5927 C.2     1  UNL1        0.0307
      2 C           1.2023    0.4999   28.4348 C.2     1  UNL1        0.2320
      3 N           1.2652    0.3475   29.9257 N.2     1  UNL1       -0.0311
      4 C           2.5140   -0.1717   30.5745 C.2     1  UNL1        0.3721
      5 N           2.8678   -0.4271   32.0097 N.2     1  UNL1       -0.0307
      6 C           4.2723   -0.9518   32.0546 C.2     1  UNL1        0.2390
      7 C           4.7865   -1.0207   30.6471 C.2     1  UNL1        0.0896
      8 C           3.6999   -0.5386   29.7324 C.2     1  UNL1        0.0774
      9 C           3.6369   -0.3862   28.2415 C.3     1  UNL1        0.0646
     10 C           2.1995    0.5902   23.1199 C.ar    1  UNL1        0.0590
     11 C           3.1592   -0.3853   23.7343 C.ar    1  UNL1        0.0147
     12 C           3.2221   -0.5376   25.2253 C.ar    1  UNL1        0.0026
     13 C           2.3253    0.2854   26.1018 C.ar    1  UNL1        0.0192
     14 C           1.3656    1.2609   25.4874 C.ar    1  UNL1        0.0982
     15 N           1.3027    1.4133   23.9965 N.ar    1  UNL1       -0.2482
     16 C           2.1366    0.7426   21.6290 C.3     1  UNL1        0.0458
     17 C           2.3880   -1.3569   20.1194 C.3     1  UNL1        0.0004
     18 C           2.9807   -0.1315   20.7496 C.3     1  UNL1        0.0063
     19 C           6.1484   -1.4894   30.2280 C.2     1  UNL1        0.2036
     20 O           7.2175   -0.4899   29.8997 O.2     1  UNL1       -0.2863
     21 C           6.4411   -2.9578   30.1371 C.ar    1  UNL1        0.0951
     22 C           6.9409   -3.6988   31.3417 C.ar    1  UNL1        0.1454
     23 F           7.1479   -2.9716   32.6371 F       1  UNL1       -0.2040
     24 C           7.2337   -5.1672   31.2508 C.ar    1  UNL1        0.0312
     25 C           7.0266   -5.8945   29.9553 C.ar    1  UNL1        0.0204
     26 C           6.5268   -5.1534   28.7508 C.ar    1  UNL1        0.0920
     27 C           6.2341   -3.6850   28.8416 C.ar    1  UNL1        0.1598
     28 F           5.7343   -2.9440   27.6370 F       1  UNL1       -0.2026
     29 N           6.3198   -5.8806   27.4553 N.pl3   1  UNL1       -0.2166
     30 H           5.4100   -6.1197   27.1649 H       1  UNL1        0.1734
     31 S           7.4991   -6.2436   26.6023 S.O2    1  UNL1        0.0540
     32 O           7.3306   -4.9705   25.8274 O.2     1  UNL1       -0.1545
     33 O           7.6677   -7.5169   27.3772 O.2     1  UNL1       -0.1545
     34 C           8.6783   -6.6067   25.7493 C.3     1  UNL1        0.1724
     35 C           8.5262   -7.6149   24.6492 C.3     1  UNL1        0.0273
     36 C           8.7489   -7.2079   23.2227 C.3     1  UNL1        0.0019
@<TRIPOS>BOND
     1    17    18    1
     2    18    16    1
     3    16    10    1
     4    10    11   ar
     5    11    12   ar
     6    12    13   ar
     7    13     1    1
     8     1     2    2
     9     2     3    1
    10     3     4    2
    11     4     5    1
    12     5     6    2
    13     6     7    1
    14     7    19    1
    15    19    20    2
    16    19    21    1
    17    21    22   ar
    18    22    23    1
    19    22    24   ar
    20    24    25   ar
    21    25    26   ar
    22    26    29    1
    23    29    31    1
    24    31    32    2
    25    31    33    2
    26    31    34    1
    27    34    35    1
    28    35    36    1
    29    26    27   ar
    30    27    28    1
    31     7     8    2
    32     8     9    1
    33    13    14   ar
    34    14    15   ar
    35    15    10   ar
    36     9     1    1
    37     8     4    1
    38    27    21   ar
    39    29    30    1
