@<TRIPOS>MOLECULE
*****
 24 27 0 0 0
SMALL
GASTEIGER

@<TRIPOS>ATOM
      1 C          -4.2532  -18.1842   22.7345 C.3     1  UNL1        0.1315
      2 C          -5.6012  -18.4743   22.1437 C.3     1  UNL1        0.1025
      3 N          -5.7274  -19.4365   20.9999 N.3     1  UNL1       -0.2579
      4 C          -4.5057  -20.1086   20.4469 C.3     1  UNL1        0.1051
      5 C          -3.1578  -19.8185   21.0377 C.3     1  UNL1        0.1594
      6 O          -3.0316  -18.8564   22.1815 O.3     1  UNL1       -0.3533
      7 C          -4.1270  -17.2220   23.8783 C.3     1  UNL1        0.0357
      8 C          -4.9286  -15.9542   23.8838 C.3     1  UNL1        0.0289
      9 C          -8.2973  -15.4349   26.8218 C.ar    1  UNL1       -0.0000
     10 C          -6.8746  -15.3435   27.2882 C.ar    1  UNL1       -0.0003
     11 C          -5.7517  -15.5166   26.3089 C.ar    1  UNL1       -0.0043
     12 C          -6.0515  -15.7811   24.8631 C.ar    1  UNL1       -0.0221
     13 C          -7.4742  -15.8726   24.3968 C.ar    1  UNL1       -0.0043
     14 C          -8.5971  -15.6995   25.3761 C.ar    1  UNL1       -0.0003
     15 C          -7.0753  -19.7266   20.4092 C.3     1  UNL1        0.1978
     16 C          -8.3184  -19.2958   21.1296 C.2     1  UNL1        0.3675
     17 N          -9.3348  -18.3149   20.6250 N.2     1  UNL1       -0.0337
     18 C         -10.4080  -18.1832   21.6647 C.2     1  UNL1        0.2318
     19 C         -11.6612  -17.3604   21.7150 C.2     1  UNL1        0.0498
     20 C         -12.5611  -17.4371   22.9125 C.2     1  UNL1       -0.0002
     21 C         -12.2080  -18.3366   24.0597 C.2     1  UNL1       -0.0172
     22 C         -10.9548  -19.1594   24.0094 C.3     1  UNL1        0.1037
     23 C         -10.0548  -19.0827   22.8119 C.2     1  UNL1        0.2175
     24 N          -8.7634  -19.7704   22.4812 N.2     1  UNL1       -0.0375
@<TRIPOS>BOND
     1     9    10   ar
     2    10    11   ar
     3    11    12   ar
     4    12     8    1
     5     8     7    1
     6     1     7    1
     7     1     2    1
     8     2     3    1
     9     3    15    1
    10    15    16    1
    11    16    17    2
    12    17    18    1
    13    18    19    2
    14    19    20    1
    15    20    21    2
    16    21    22    1
    17    22    23    1
    18    23    24    2
    19     3     4    1
    20     4     5    1
    21     5     6    1
    22    12    13   ar
    23    13    14   ar
    24    14     9   ar
    25     6     1    1
    26    24    16    1
    27    23    18    1
@<TRIPOS>MOLECULE
*****
 24 27 0 0 0
SMALL
GASTEIGER

@<TRIPOS>ATOM
      1 C          -7.9293  -19.5816   20.0988 C.3     1  UNL1        0.1315
      2 C          -8.2232  -18.3890   20.9597 C.3     1  UNL1        0.1025
      3 N          -9.5672  -17.7264   20.8898 N.3     1  UNL1       -0.2579
      4 C         -10.6171  -18.2566   19.9589 C.3     1  UNL1        0.1051
      5 C         -10.3232  -19.4492   19.0980 C.3     1  UNL1        0.1594
      6 O          -8.9792  -20.1117   19.1679 O.3     1  UNL1       -0.3533
      7 C          -6.5853  -20.2442   20.1687 C.3     1  UNL1        0.0357
      8 C          -5.8792  -20.3707   21.4860 C.3     1  UNL1        0.0289
      9 C          -2.2193  -17.8903   22.3245 C.ar    1  UNL1       -0.0000
     10 C          -2.1451  -19.0330   21.3555 C.ar    1  UNL1       -0.0003
     11 C          -3.3650  -19.8598   21.0760 C.ar    1  UNL1       -0.0043
     12 C          -4.6592  -19.5439   21.7655 C.ar    1  UNL1       -0.0221
     13 C          -4.7334  -18.4013   22.7345 C.ar    1  UNL1       -0.0043
     14 C          -3.5135  -17.5745   23.0139 C.ar    1  UNL1       -0.0003
     15 C          -9.8611  -16.5338   21.7507 C.3     1  UNL1        0.1978
     16 C          -8.9895  -16.2289   22.9327 C.2     1  UNL1        0.3675
     17 N          -7.5391  -15.8495   22.8843 N.2     1  UNL1       -0.0337
     18 C          -7.0685  -15.6360   24.2924 C.2     1  UNL1        0.2318
     19 C          -5.7339  -15.2482   24.8567 C.2     1  UNL1        0.0498
     20 C          -5.5588  -15.1080   26.3398 C.2     1  UNL1       -0.0002
     21 C          -6.7183  -15.3555   27.2586 C.2     1  UNL1       -0.0172
     22 C          -8.0529  -15.7433   26.6943 C.3     1  UNL1        0.1037
     23 C          -8.2280  -15.8836   25.2112 C.2     1  UNL1        0.2175
     24 N          -9.4152  -16.2500   24.3709 N.2     1  UNL1       -0.0375
@<TRIPOS>BOND
     1     9    10   ar
     2    10    11   ar
     3    11    12   ar
     4    12     8    1
     5     8     7    1
     6     1     7    1
     7     1     2    1
     8     2     3    1
     9     3    15    1
    10    15    16    1
    11    16    17    2
    12    17    18    1
    13    18    19    2
    14    19    20    1
    15    20    21    2
    16    21    22    1
    17    22    23    1
    18    23    24    2
    19     3     4    1
    20     4     5    1
    21     5     6    1
    22    12    13   ar
    23    13    14   ar
    24    14     9   ar
    25     6     1    1
    26    24    16    1
    27    23    18    1
@<TRIPOS>MOLECULE
*****
 24 27 0 0 0
SMALL
GASTEIGER

@<TRIPOS>ATOM
      1 C          -9.5587  -18.0682   22.6458 C.3     1  UNL1        0.1315
      2 C          -8.2571  -18.8102   22.5725 C.3     1  UNL1        0.1025
      3 N          -7.8535  -19.4926   21.2992 N.3     1  UNL1       -0.2579
      4 C          -8.7515  -19.4331   20.0991 C.3     1  UNL1        0.1051
      5 C         -10.0530  -18.6911   20.1724 C.3     1  UNL1        0.1594
      6 O         -10.4567  -18.0087   21.4457 O.3     1  UNL1       -0.3533
      7 C          -9.9624  -17.3858   23.9191 C.3     1  UNL1        0.0357
      8 C          -9.4777  -15.9968   24.2118 C.3     1  UNL1        0.0289
      9 C          -5.5001  -15.3788   26.2234 C.ar    1  UNL1       -0.0000
     10 C          -6.7506  -15.4706   27.0467 C.ar    1  UNL1       -0.0003
     11 C          -8.0765  -15.6766   26.3762 C.ar    1  UNL1       -0.0043
     12 C          -8.1518  -15.7908   24.8824 C.ar    1  UNL1       -0.0221
     13 C          -6.9013  -15.6990   24.0592 C.ar    1  UNL1       -0.0043
     14 C          -5.5754  -15.4930   24.7297 C.ar    1  UNL1       -0.0003
     15 C          -6.5520  -20.2346   21.2259 C.3     1  UNL1        0.1978
     16 C          -5.2698  -19.4821   21.0264 C.2     1  UNL1        0.3675
     17 N          -4.6958  -18.4558   21.9576 N.2     1  UNL1       -0.0337
     18 C          -3.4078  -17.9631   21.3674 C.2     1  UNL1        0.2318
     19 C          -2.4085  -16.9505   21.8426 C.2     1  UNL1        0.0498
     20 C          -1.1871  -16.6597   21.0218 C.2     1  UNL1       -0.0002
     21 C          -0.9651  -17.3815   19.7258 C.2     1  UNL1       -0.0172
     22 C          -1.9645  -18.3941   19.2505 C.3     1  UNL1        0.1037
     23 C          -3.1858  -18.6849   20.0713 C.2     1  UNL1        0.2175
     24 N          -4.3366  -19.6237   19.8606 N.2     1  UNL1       -0.0375
@<TRIPOS>BOND
     1     9    10   ar
     2    10    11   ar
     3    11    12   ar
     4    12     8    1
     5     8     7    1
     6     1     7    1
     7     1     2    1
     8     2     3    1
     9     3    15    1
    10    15    16    1
    11    16    17    2
    12    17    18    1
    13    18    19    2
    14    19    20    1
    15    20    21    2
    16    21    22    1
    17    22    23    1
    18    23    24    2
    19     3     4    1
    20     4     5    1
    21     5     6    1
    22    12    13   ar
    23    13    14   ar
    24    14     9   ar
    25     6     1    1
    26    24    16    1
    27    23    18    1
@<TRIPOS>MOLECULE
*****
 24 27 0 0 0
SMALL
GASTEIGER

@<TRIPOS>ATOM
      1 C          -9.3926  -18.3931   22.5780 C.3     1  UNL1        0.1315
      2 C          -8.0651  -19.0815   22.4589 C.3     1  UNL1        0.1025
      3 N          -7.6411  -19.6710   21.1464 N.3     1  UNL1       -0.2579
      4 C          -8.5445  -19.5721   19.9529 C.3     1  UNL1        0.1051
      5 C          -9.8718  -18.8837   20.0721 C.3     1  UNL1        0.1594
      6 O         -10.2959  -18.2942   21.3846 O.3     1  UNL1       -0.3533
      7 C          -9.8167  -17.8036   23.8905 C.3     1  UNL1        0.0357
      8 C          -9.5179  -16.3664   24.1986 C.3     1  UNL1        0.0289
      9 C          -5.6712  -15.2585   26.2543 C.ar    1  UNL1       -0.0000
     10 C          -5.7166  -15.3734   24.7593 C.ar    1  UNL1       -0.0003
     11 C          -6.9988  -15.7427   24.0741 C.ar    1  UNL1       -0.0043
     12 C          -8.2357  -15.9971   24.8838 C.ar    1  UNL1       -0.0221
     13 C          -8.1902  -15.8822   26.3787 C.ar    1  UNL1       -0.0043
     14 C          -6.9080  -15.5129   27.0639 C.ar    1  UNL1       -0.0003
     15 C          -6.3137  -20.3593   21.0273 C.3     1  UNL1        0.1978
     16 C          -5.0568  -19.5493   20.9080 C.2     1  UNL1        0.3675
     17 N          -4.0413  -19.6541   19.8091 N.2     1  UNL1       -0.0337
     18 C          -2.9517  -18.6619   20.0887 C.2     1  UNL1        0.2318
     19 C          -1.6922  -18.3195   19.3495 C.2     1  UNL1        0.0498
     20 C          -0.7747  -17.2590   19.8821 C.2     1  UNL1       -0.0002
     21 C          -1.1168  -16.5411   21.1540 C.2     1  UNL1       -0.0172
     22 C          -2.3762  -16.8835   21.8931 C.3     1  UNL1        0.1037
     23 C          -3.2937  -17.9439   21.3605 C.2     1  UNL1        0.2175
     24 N          -4.5947  -18.4924   21.8669 N.2     1  UNL1       -0.0375
@<TRIPOS>BOND
     1     9    10   ar
     2    10    11   ar
     3    11    12   ar
     4    12     8    1
     5     8     7    1
     6     1     7    1
     7     1     2    1
     8     2     3    1
     9     3    15    1
    10    15    16    1
    11    16    17    2
    12    17    18    1
    13    18    19    2
    14    19    20    1
    15    20    21    2
    16    21    22    1
    17    22    23    1
    18    23    24    2
    19     3     4    1
    20     4     5    1
    21     5     6    1
    22    12    13   ar
    23    13    14   ar
    24    14     9   ar
    25     6     1    1
    26    24    16    1
    27    23    18    1
@<TRIPOS>MOLECULE
*****
 24 27 0 0 0
SMALL
GASTEIGER

@<TRIPOS>ATOM
      1 C          -4.7480  -19.7676   20.9514 C.3     1  UNL1        0.1315
      2 C          -4.7929  -18.4830   21.7247 C.3     1  UNL1        0.1025
      3 N          -3.5174  -17.8241   22.1591 N.3     1  UNL1       -0.2579
      4 C          -2.1968  -18.4497   21.8202 C.3     1  UNL1        0.1051
      5 C          -2.1519  -19.7342   21.0469 C.3     1  UNL1        0.1594
      6 O          -3.4275  -20.3931   20.6125 O.3     1  UNL1       -0.3533
      7 C          -6.0236  -20.4265   20.5170 C.3     1  UNL1        0.0357
      8 C          -7.1773  -19.5909   20.0474 C.3     1  UNL1        0.0289
      9 C         -11.0134  -19.5267   22.3990 C.ar    1  UNL1       -0.0000
     10 C         -11.0521  -19.4942   20.8998 C.ar    1  UNL1       -0.0003
     11 C          -9.7734  -19.5156   20.1159 C.ar    1  UNL1       -0.0043
     12 C          -8.4560  -19.5695   20.8313 C.ar    1  UNL1       -0.0221
     13 C          -8.4174  -19.6019   22.3304 C.ar    1  UNL1       -0.0043
     14 C          -9.6961  -19.5805   23.1142 C.ar    1  UNL1       -0.0003
     15 C          -3.5623  -16.5396   22.9324 C.3     1  UNL1        0.1978
     16 C          -4.7299  -16.2425   23.8259 C.2     1  UNL1        0.3675
     17 N          -6.1353  -15.9690   23.3786 N.2     1  UNL1       -0.0337
     18 C          -6.9711  -15.7242   24.5999 C.2     1  UNL1        0.2318
     19 C          -8.4267  -15.4058   24.7726 C.2     1  UNL1        0.0498
     20 C          -8.9935  -15.2097   26.1474 C.2     1  UNL1       -0.0002
     21 C          -8.1047  -15.3319   27.3495 C.2     1  UNL1       -0.0172
     22 C          -6.6491  -15.6503   27.1768 C.3     1  UNL1        0.1037
     23 C          -6.0823  -15.8464   25.8020 C.2     1  UNL1        0.2175
     24 N          -4.6972  -16.1668   25.3236 N.2     1  UNL1       -0.0375
@<TRIPOS>BOND
     1     9    10   ar
     2    10    11   ar
     3    11    12   ar
     4    12     8    1
     5     8     7    1
     6     1     7    1
     7     1     2    1
     8     2     3    1
     9     3    15    1
    10    15    16    1
    11    16    17    2
    12    17    18    1
    13    18    19    2
    14    19    20    1
    15    20    21    2
    16    21    22    1
    17    22    23    1
    18    23    24    2
    19     3     4    1
    20     4     5    1
    21     5     6    1
    22    12    13   ar
    23    13    14   ar
    24    14     9   ar
    25     6     1    1
    26    24    16    1
    27    23    18    1
@<TRIPOS>MOLECULE
*****
 24 27 0 0 0
SMALL
GASTEIGER

@<TRIPOS>ATOM
      1 C          -9.0533  -17.6919   21.0180 C.3     1  UNL1        0.1315
      2 C          -7.7526  -18.3015   21.4500 C.3     1  UNL1        0.1025
      3 N          -7.2384  -19.5339   20.7667 N.3     1  UNL1       -0.2579
      4 C          -8.0249  -20.1566   19.6514 C.3     1  UNL1        0.1051
      5 C          -9.3255  -19.5469   19.2195 C.3     1  UNL1        0.1594
      6 O          -9.8397  -18.3145   19.9028 O.3     1  UNL1       -0.3533
      7 C          -9.5675  -16.4595   21.7012 C.3     1  UNL1        0.0357
      8 C         -11.0415  -16.2787   21.9124 C.3     1  UNL1        0.0289
      9 C         -13.2079  -18.8081   24.9388 C.ar    1  UNL1       -0.0000
     10 C         -13.9842  -17.9391   23.9941 C.ar    1  UNL1       -0.0003
     11 C         -13.2621  -17.0960   22.9854 C.ar    1  UNL1       -0.0043
     12 C         -11.7636  -17.1219   22.9212 C.ar    1  UNL1       -0.0221
     13 C         -10.9874  -17.9908   23.8658 C.ar    1  UNL1       -0.0043
     14 C         -11.7095  -18.8340   24.8746 C.ar    1  UNL1       -0.0003
     15 C          -5.9378  -20.1436   21.1987 C.3     1  UNL1        0.1978
     16 C          -4.6565  -19.3856   21.0149 C.2     1  UNL1        0.3675
     17 N          -4.2536  -18.1431   21.7523 N.2     1  UNL1       -0.0337
     18 C          -2.9012  -17.7267   21.2546 C.2     1  UNL1        0.2318
     19 C          -2.0081  -16.5777   21.6180 C.2     1  UNL1        0.0498
     20 C          -0.6820  -16.4139   20.9364 C.2     1  UNL1       -0.0002
     21 C          -0.2491  -17.3991   19.8914 C.2     1  UNL1       -0.0172
     22 C          -1.1422  -18.5481   19.5281 C.3     1  UNL1        0.1037
     23 C          -2.4683  -18.7119   20.2097 C.2     1  UNL1        0.2175
     24 N          -3.5531  -19.7371   20.0615 N.2     1  UNL1       -0.0375
@<TRIPOS>BOND
     1     9    10   ar
     2    10    11   ar
     3    11    12   ar
     4    12     8    1
     5     8     7    1
     6     1     7    1
     7     1     2    1
     8     2     3    1
     9     3    15    1
    10    15    16    1
    11    16    17    2
    12    17    18    1
    13    18    19    2
    14    19    20    1
    15    20    21    2
    16    21    22    1
    17    22    23    1
    18    23    24    2
    19     3     4    1
    20     4     5    1
    21     5     6    1
    22    12    13   ar
    23    13    14   ar
    24    14     9   ar
    25     6     1    1
    26    24    16    1
    27    23    18    1
@<TRIPOS>MOLECULE
*****
 24 27 0 0 0
SMALL
GASTEIGER

@<TRIPOS>ATOM
      1 C         -17.2290   -6.3960   19.3368 C.3     1  UNL1        0.1315
      2 C         -15.9279   -6.8097   18.7155 C.3     1  UNL1        0.1025
      3 N         -15.4986   -8.2463   18.7602 N.3     1  UNL1       -0.2579
      4 C         -16.3705   -9.2692   19.4263 C.3     1  UNL1        0.1051
      5 C         -17.6715   -8.8554   20.0476 C.3     1  UNL1        0.1594
      6 O         -18.1008   -7.4189   20.0029 O.3     1  UNL1       -0.3533
      7 C         -17.6582   -4.9594   19.2921 C.3     1  UNL1        0.0357
      8 C         -16.8796   -3.9203   20.0430 C.3     1  UNL1        0.0289
      9 C         -12.7963   -2.6926   18.6046 C.ar    1  UNL1       -0.0000
     10 C         -13.9500   -2.7269   17.6465 C.ar    1  UNL1       -0.0003
     11 C         -15.3111   -3.1361   18.1260 C.ar    1  UNL1       -0.0043
     12 C         -15.5185   -3.5111   19.5635 C.ar    1  UNL1       -0.0221
     13 C         -14.3648   -3.4768   20.5215 C.ar    1  UNL1       -0.0043
     14 C         -13.0037   -3.0676   20.0421 C.ar    1  UNL1       -0.0003
     15 C         -14.1976   -8.6600   18.1389 C.3     1  UNL1        0.1978
     16 C         -13.1000   -7.6539   17.9567 C.2     1  UNL1        0.3675
     17 N         -12.2253   -7.0972   19.0406 N.2     1  UNL1       -0.0337
     18 C         -11.2692   -6.1271   18.4123 C.2     1  UNL1        0.2318
     19 C         -10.1768   -5.2772   18.9906 C.2     1  UNL1        0.0498
     20 C          -9.3682   -4.3846   18.0966 C.2     1  UNL1       -0.0002
     21 C          -9.6519   -4.3418   16.6243 C.2     1  UNL1       -0.0172
     22 C         -10.7442   -5.1917   16.0460 C.3     1  UNL1        0.1037
     23 C         -11.5529   -6.0843   16.9400 C.2     1  UNL1        0.2175
     24 N         -12.6844   -7.0280   16.6584 N.2     1  UNL1       -0.0375
@<TRIPOS>BOND
     1     9    10   ar
     2    10    11   ar
     3    11    12   ar
     4    12     8    1
     5     8     7    1
     6     1     7    1
     7     1     2    1
     8     2     3    1
     9     3    15    1
    10    15    16    1
    11    16    17    2
    12    17    18    1
    13    18    19    2
    14    19    20    1
    15    20    21    2
    16    21    22    1
    17    22    23    1
    18    23    24    2
    19     3     4    1
    20     4     5    1
    21     5     6    1
    22    12    13   ar
    23    13    14   ar
    24    14     9   ar
    25     6     1    1
    26    24    16    1
    27    23    18    1
@<TRIPOS>MOLECULE
*****
 24 27 0 0 0
SMALL
GASTEIGER

@<TRIPOS>ATOM
      1 C         -11.1406   -7.3566   17.0681 C.3     1  UNL1        0.1315
      2 C         -11.0619   -5.8674   17.2304 C.3     1  UNL1        0.1025
      3 N         -10.1430   -5.2722   18.2557 N.3     1  UNL1       -0.2579
      4 C          -9.3027   -6.1662   19.1188 C.3     1  UNL1        0.1051
      5 C          -9.3814   -7.6553   18.9565 C.3     1  UNL1        0.1594
      6 O         -10.3003   -8.2505   17.9311 O.3     1  UNL1       -0.3533
      7 C         -12.0595   -7.9518   16.0427 C.3     1  UNL1        0.0357
      8 C         -13.4951   -7.5215   15.9824 C.3     1  UNL1        0.0289
      9 C         -16.1392   -7.9936   19.5929 C.ar    1  UNL1       -0.0000
     10 C         -15.8050   -9.1864   18.7469 C.ar    1  UNL1       -0.0003
     11 C         -14.9237   -9.0290   17.5434 C.ar    1  UNL1       -0.0043
     12 C         -14.3765   -7.6788   17.1859 C.ar    1  UNL1       -0.0221
     13 C         -14.7107   -6.4861   18.0319 C.ar    1  UNL1       -0.0043
     14 C         -15.5920   -6.6435   19.2354 C.ar    1  UNL1       -0.0003
     15 C         -10.0644   -3.7831   18.4181 C.3     1  UNL1        0.1978
     16 C         -11.3135   -2.9876   18.6561 C.2     1  UNL1        0.3675
     17 N         -11.5886   -1.6042   18.1456 N.2     1  UNL1       -0.0337
     18 C         -12.9521   -1.1974   18.6204 C.2     1  UNL1        0.2318
     19 C         -13.7500    0.0575   18.4246 C.2     1  UNL1        0.0498
     20 C         -15.1156    0.1805   19.0328 C.2     1  UNL1       -0.0002
     21 C         -15.6833   -0.9515   19.8368 C.2     1  UNL1       -0.0172
     22 C         -14.8853   -2.2064   20.0327 C.3     1  UNL1        0.1037
     23 C         -13.5197   -2.3293   19.4245 C.2     1  UNL1        0.2175
     24 N         -12.5070   -3.4357   19.4466 N.2     1  UNL1       -0.0375
@<TRIPOS>BOND
     1     9    10   ar
     2    10    11   ar
     3    11    12   ar
     4    12     8    1
     5     8     7    1
     6     1     7    1
     7     1     2    1
     8     2     3    1
     9     3    15    1
    10    15    16    1
    11    16    17    2
    12    17    18    1
    13    18    19    2
    14    19    20    1
    15    20    21    2
    16    21    22    1
    17    22    23    1
    18    23    24    2
    19     3     4    1
    20     4     5    1
    21     5     6    1
    22    12    13   ar
    23    13    14   ar
    24    14     9   ar
    25     6     1    1
    26    24    16    1
    27    23    18    1
@<TRIPOS>MOLECULE
*****
 24 27 0 0 0
SMALL
GASTEIGER

@<TRIPOS>ATOM
      1 C         -14.8290   -7.3493   18.6459 C.3     1  UNL1        0.1315
      2 C         -14.3239   -6.0944   19.2942 C.3     1  UNL1        0.1025
      3 N         -15.2945   -5.0726   19.8079 N.3     1  UNL1       -0.2579
      4 C         -16.7702   -5.3057   19.6733 C.3     1  UNL1        0.1051
      5 C         -17.2752   -6.5605   19.0251 C.3     1  UNL1        0.1594
      6 O         -16.3046   -7.5823   18.5113 O.3     1  UNL1       -0.3533
      7 C         -13.8584   -8.3711   18.1322 C.3     1  UNL1        0.0357
      8 C         -12.9194   -8.0193   17.0167 C.3     1  UNL1        0.0289
      9 C          -9.5319   -5.1488   17.7479 C.ar    1  UNL1       -0.0000
     10 C         -10.3945   -4.9963   16.5302 C.ar    1  UNL1       -0.0003
     11 C         -11.5237   -5.9532   16.2865 C.ar    1  UNL1       -0.0043
     12 C         -11.7902   -7.0625   17.2604 C.ar    1  UNL1       -0.0221
     13 C         -10.9276   -7.2149   18.4780 C.ar    1  UNL1       -0.0043
     14 C          -9.7984   -6.2580   18.7217 C.ar    1  UNL1       -0.0003
     15 C         -14.7894   -3.8178   20.4561 C.3     1  UNL1        0.1978
     16 C         -13.9505   -2.8534   19.6712 C.2     1  UNL1        0.3675
     17 N         -12.5342   -3.0738   19.2291 N.2     1  UNL1       -0.0337
     18 C         -12.0890   -1.8558   18.4752 C.2     1  UNL1        0.2318
     19 C         -10.7919   -1.5072   17.8074 C.2     1  UNL1        0.0498
     20 C         -10.6361   -0.1854   17.1156 C.2     1  UNL1       -0.0002
     21 C         -11.7773    0.7877   17.0917 C.2     1  UNL1       -0.0172
     22 C         -13.0744    0.4391   17.7595 C.3     1  UNL1        0.1037
     23 C         -13.2302   -0.8827   18.4512 C.2     1  UNL1        0.2175
     24 N         -14.3807   -1.4992   19.1904 N.2     1  UNL1       -0.0375
@<TRIPOS>BOND
     1     9    10   ar
     2    10    11   ar
     3    11    12   ar
     4    12     8    1
     5     8     7    1
     6     1     7    1
     7     1     2    1
     8     2     3    1
     9     3    15    1
    10    15    16    1
    11    16    17    2
    12    17    18    1
    13    18    19    2
    14    19    20    1
    15    20    21    2
    16    21    22    1
    17    22    23    1
    18    23    24    2
    19     3     4    1
    20     4     5    1
    21     5     6    1
    22    12    13   ar
    23    13    14   ar
    24    14     9   ar
    25     6     1    1
    26    24    16    1
    27    23    18    1
