@<TRIPOS>MOLECULE
*****
 21 23 0 0 0
SMALL
GASTEIGER

@<TRIPOS>ATOM
      1 C          -6.7150  -18.9046   20.1989 C.3     1  UNL1        0.0521
      2 C          -7.2448  -18.2443   21.4373 C.ar    1  UNL1        0.0604
      3 N          -6.3084  -17.5277   22.3643 N.ar    1  UNL1       -0.2496
      4 C          -6.8382  -16.8674   23.6027 C.ar    1  UNL1        0.0809
      5 C          -5.9018  -16.1509   24.5298 C.ar    1  UNL1        0.0199
      6 C          -6.4317  -15.4906   25.7680 C.ar    1  UNL1        0.0129
      7 C          -7.8980  -15.5470   26.0791 C.ar    1  UNL1        0.0578
      8 CL         -8.4278  -14.8867   27.3175 Cl      1  UNL1       -0.0822
      9 C          -8.8344  -16.2636   25.1521 C.ar    1  UNL1        0.0129
     10 C          -8.3045  -16.9238   23.9138 C.ar    1  UNL1        0.0185
     11 C          -9.2410  -17.6404   22.9866 C.ar    1  UNL1        0.0037
     12 C          -8.7111  -18.3007   21.7484 C.ar    1  UNL1        0.0276
     13 C         -10.7073  -17.6968   23.2978 C.ar    1  UNL1        0.0001
     14 C         -11.2271  -18.7026   24.2819 C.ar    1  UNL1        0.0000
     15 C         -12.6933  -18.7589   24.5930 C.ar    1  UNL1        0.0000
     16 C         -13.6399  -17.8095   23.9201 C.ar    1  UNL1        0.0000
     17 C         -13.1201  -16.8037   22.9361 C.ar    1  UNL1        0.0000
     18 C         -11.6538  -16.7474   22.6249 C.ar    1  UNL1        0.0000
     19 C          -9.6476  -19.0173   20.8212 C.2     1  UNL1        0.0740
     20 O         -10.2674  -20.3178   21.2390 O.co2   1  UNL1       -0.5446
     21 O          -9.9642  -18.4334   19.4763 O.co2   1  UNL1       -0.5446
@<TRIPOS>UNITY_ATOM_ATTR
20 1
charge -1
@<TRIPOS>BOND
     1     1     2    1
     2     2     3   ar
     3     3     4   ar
     4     4     5   ar
     5     5     6   ar
     6     6     7   ar
     7     7     8    1
     8     7     9   ar
     9     9    10   ar
    10    10    11   ar
    11    11    13    1
    12    13    14   ar
    13    14    15   ar
    14    15    16   ar
    15    16    17   ar
    16    17    18   ar
    17    11    12   ar
    18    12    19    1
    19    19    20   ar
    20    19    21   ar
    21    12     2   ar
    22    10     4   ar
    23    18    13   ar
@<TRIPOS>MOLECULE
*****
 21 23 0 0 0
SMALL
GASTEIGER

@<TRIPOS>ATOM
      1 C         -11.4854  -18.3293   19.8284 C.3     1  UNL1        0.0521
      2 C         -10.1727  -18.3244   20.5543 C.ar    1  UNL1        0.0604
      3 N          -8.9515  -18.8988   19.8997 N.ar    1  UNL1       -0.2496
      4 C          -7.6388  -18.8938   20.6256 C.ar    1  UNL1        0.0809
      5 C          -6.4175  -19.4682   19.9709 C.ar    1  UNL1        0.0199
      6 C          -5.1049  -19.4633   20.6968 C.ar    1  UNL1        0.0129
      7 C          -5.0135  -18.8839   22.0774 C.ar    1  UNL1        0.0578
      8 CL         -3.7008  -18.8790   22.8033 Cl      1  UNL1       -0.0822
      9 C          -6.2348  -18.3095   22.7321 C.ar    1  UNL1        0.0129
     10 C          -7.5474  -18.3145   22.0062 C.ar    1  UNL1        0.0185
     11 C          -8.7687  -17.7401   22.6608 C.ar    1  UNL1        0.0037
     12 C         -10.0813  -17.7450   21.9349 C.ar    1  UNL1        0.0276
     13 C          -8.6773  -17.1607   24.0414 C.ar    1  UNL1        0.0001
     14 C          -8.1179  -15.7833   24.2412 C.ar    1  UNL1        0.0000
     15 C          -8.0265  -15.2039   25.6218 C.ar    1  UNL1        0.0000
     16 C          -8.4945  -16.0020   26.8026 C.ar    1  UNL1        0.0000
     17 C          -9.0539  -17.3794   26.6027 C.ar    1  UNL1        0.0000
     18 C          -9.1453  -17.9587   25.2221 C.ar    1  UNL1        0.0000
     19 C         -11.3026  -17.1706   22.5896 C.2     1  UNL1        0.0740
     20 O         -12.1564  -18.0326   23.4717 O.co2   1  UNL1       -0.5446
     21 O         -11.6701  -15.7343   22.3622 O.co2   1  UNL1       -0.5446
@<TRIPOS>UNITY_ATOM_ATTR
20 1
charge -1
@<TRIPOS>BOND
     1     1     2    1
     2     2     3   ar
     3     3     4   ar
     4     4     5   ar
     5     5     6   ar
     6     6     7   ar
     7     7     8    1
     8     7     9   ar
     9     9    10   ar
    10    10    11   ar
    11    11    13    1
    12    13    14   ar
    13    14    15   ar
    14    15    16   ar
    15    16    17   ar
    16    17    18   ar
    17    11    12   ar
    18    12    19    1
    19    19    20   ar
    20    19    21   ar
    21    12     2   ar
    22    10     4   ar
    23    18    13   ar
@<TRIPOS>MOLECULE
*****
 21 23 0 0 0
SMALL
GASTEIGER

@<TRIPOS>ATOM
      1 C          -5.6380  -15.9683   24.8127 C.3     1  UNL1        0.0521
      2 C          -6.5045  -16.7117   23.8397 C.ar    1  UNL1        0.0604
      3 N          -5.8870  -17.3965   22.6567 N.ar    1  UNL1       -0.2496
      4 C          -6.7536  -18.1399   21.6837 C.ar    1  UNL1        0.0809
      5 C          -6.1361  -18.8247   20.5007 C.ar    1  UNL1        0.0199
      6 C          -7.0027  -19.5680   19.5278 C.ar    1  UNL1        0.0129
      7 C          -8.4868  -19.6264   19.7380 C.ar    1  UNL1        0.0578
      8 CL         -9.3533  -20.3697   18.7650 Cl      1  UNL1       -0.0822
      9 C          -9.1043  -18.9415   20.9210 C.ar    1  UNL1        0.0129
     10 C          -8.2377  -18.1983   21.8939 C.ar    1  UNL1        0.0185
     11 C          -8.8552  -17.5133   23.0770 C.ar    1  UNL1        0.0037
     12 C          -7.9886  -16.7701   24.0499 C.ar    1  UNL1        0.0276
     13 C         -10.3392  -17.5717   23.2871 C.ar    1  UNL1        0.0001
     14 C         -10.9263  -18.5988   24.2095 C.ar    1  UNL1        0.0000
     15 C         -12.4103  -18.6572   24.4196 C.ar    1  UNL1        0.0000
     16 C         -13.3073  -17.6885   23.7074 C.ar    1  UNL1        0.0000
     17 C         -12.7203  -16.6616   22.7851 C.ar    1  UNL1        0.0000
     18 C         -11.2362  -16.6032   22.5750 C.ar    1  UNL1        0.0000
     19 C          -8.6061  -16.0851   25.2330 C.2     1  UNL1        0.0740
     20 O          -9.2487  -14.7397   25.0695 O.co2   1  UNL1       -0.5446
     21 O          -8.5809  -16.7457   26.5794 O.co2   1  UNL1       -0.5446
@<TRIPOS>UNITY_ATOM_ATTR
20 1
charge -1
@<TRIPOS>BOND
     1     1     2    1
     2     2     3   ar
     3     3     4   ar
     4     4     5   ar
     5     5     6   ar
     6     6     7   ar
     7     7     8    1
     8     7     9   ar
     9     9    10   ar
    10    10    11   ar
    11    11    13    1
    12    13    14   ar
    13    14    15   ar
    14    15    16   ar
    15    16    17   ar
    16    17    18   ar
    17    11    12   ar
    18    12    19    1
    19    19    20   ar
    20    19    21   ar
    21    12     2   ar
    22    10     4   ar
    23    18    13   ar
@<TRIPOS>MOLECULE
*****
 21 23 0 0 0
SMALL
GASTEIGER

@<TRIPOS>ATOM
      1 C          -4.6591  -19.9400   20.3316 C.3     1  UNL1        0.0521
      2 C          -6.0249  -19.4171   20.6649 C.ar    1  UNL1        0.0604
      3 N          -7.1995  -19.7879   19.8088 N.ar    1  UNL1       -0.2496
      4 C          -8.5653  -19.2649   20.1422 C.ar    1  UNL1        0.0809
      5 C          -9.7399  -19.6357   19.2861 C.ar    1  UNL1        0.0199
      6 C         -11.1057  -19.1128   19.6195 C.ar    1  UNL1        0.0129
      7 C         -11.2969  -18.2191   20.8089 C.ar    1  UNL1        0.0578
      8 CL        -12.6627  -17.6961   21.1422 Cl      1  UNL1       -0.0822
      9 C         -10.1223  -17.8483   21.6649 C.ar    1  UNL1        0.0129
     10 C          -8.7565  -18.3712   21.3316 C.ar    1  UNL1        0.0185
     11 C          -7.5819  -18.0004   22.1876 C.ar    1  UNL1        0.0037
     12 C          -6.2161  -18.5233   21.8543 C.ar    1  UNL1        0.0276
     13 C          -7.7731  -17.1067   23.3770 C.ar    1  UNL1        0.0001
     14 C          -8.3981  -17.6475   24.6288 C.ar    1  UNL1        0.0000
     15 C          -8.5893  -16.7538   25.8182 C.ar    1  UNL1        0.0000
     16 C          -8.1555  -15.3192   25.7558 C.ar    1  UNL1        0.0000
     17 C          -7.5305  -14.7784   24.5041 C.ar    1  UNL1        0.0000
     18 C          -7.3393  -15.6722   23.3147 C.ar    1  UNL1        0.0000
     19 C          -5.0415  -18.1526   22.7104 C.2     1  UNL1        0.0740
     20 O          -4.6580  -16.7117   22.8742 O.co2   1  UNL1       -0.5446
     21 O          -4.2504  -19.2226   23.4025 O.co2   1  UNL1       -0.5446
@<TRIPOS>UNITY_ATOM_ATTR
20 1
charge -1
@<TRIPOS>BOND
     1     1     2    1
     2     2     3   ar
     3     3     4   ar
     4     4     5   ar
     5     5     6   ar
     6     6     7   ar
     7     7     8    1
     8     7     9   ar
     9     9    10   ar
    10    10    11   ar
    11    11    13    1
    12    13    14   ar
    13    14    15   ar
    14    15    16   ar
    15    16    17   ar
    16    17    18   ar
    17    11    12   ar
    18    12    19    1
    19    19    20   ar
    20    19    21   ar
    21    12     2   ar
    22    10     4   ar
    23    18    13   ar
@<TRIPOS>MOLECULE
*****
 21 23 0 0 0
SMALL
GASTEIGER

@<TRIPOS>ATOM
      1 C          -6.1904  -18.9438   20.1593 C.3     1  UNL1        0.0521
      2 C          -7.4102  -18.5800   20.9529 C.ar    1  UNL1        0.0604
      3 N          -8.7761  -18.8376   20.3890 N.ar    1  UNL1       -0.2496
      4 C          -9.9960  -18.4738   21.1825 C.ar    1  UNL1        0.0809
      5 C         -11.3619  -18.7314   20.6187 C.ar    1  UNL1        0.0199
      6 C         -12.5816  -18.3676   21.4122 C.ar    1  UNL1        0.0129
      7 C         -12.4356  -17.7463   22.7696 C.ar    1  UNL1        0.0578
      8 CL        -13.6554  -17.3825   23.5632 Cl      1  UNL1       -0.0822
      9 C         -11.0697  -17.4887   23.3335 C.ar    1  UNL1        0.0129
     10 C          -9.8499  -17.8525   22.5400 C.ar    1  UNL1        0.0185
     11 C          -8.4839  -17.5949   23.1038 C.ar    1  UNL1        0.0037
     12 C          -7.2642  -17.9587   22.3103 C.ar    1  UNL1        0.0276
     13 C          -8.3379  -16.9735   24.4612 C.ar    1  UNL1        0.0001
     14 C          -7.7197  -15.6139   24.6011 C.ar    1  UNL1        0.0000
     15 C          -7.5736  -14.9926   25.9586 C.ar    1  UNL1        0.0000
     16 C          -8.0457  -15.7308   27.1761 C.ar    1  UNL1        0.0000
     17 C          -8.6638  -17.0903   27.0361 C.ar    1  UNL1        0.0000
     18 C          -8.8099  -17.7117   25.6787 C.ar    1  UNL1        0.0000
     19 C          -5.8982  -17.7011   22.8742 C.2     1  UNL1        0.0740
     20 O          -5.4232  -16.2926   23.0752 O.co2   1  UNL1       -0.5446
     21 O          -5.0073  -18.8520   23.2370 O.co2   1  UNL1       -0.5446
@<TRIPOS>UNITY_ATOM_ATTR
20 1
charge -1
@<TRIPOS>BOND
     1     1     2    1
     2     2     3   ar
     3     3     4   ar
     4     4     5   ar
     5     5     6   ar
     6     6     7   ar
     7     7     8    1
     8     7     9   ar
     9     9    10   ar
    10    10    11   ar
    11    11    13    1
    12    13    14   ar
    13    14    15   ar
    14    15    16   ar
    15    16    17   ar
    16    17    18   ar
    17    11    12   ar
    18    12    19    1
    19    19    20   ar
    20    19    21   ar
    21    12     2   ar
    22    10     4   ar
    23    18    13   ar
@<TRIPOS>MOLECULE
*****
 21 23 0 0 0
SMALL
GASTEIGER

@<TRIPOS>ATOM
      1 C           6.1646   -2.8037   18.1862 C.3     1  UNL1        0.0521
      2 C           5.3094   -2.0418   19.1549 C.ar    1  UNL1        0.0604
      3 N           5.2570   -2.4558   20.5957 N.ar    1  UNL1       -0.2496
      4 C           4.4018   -1.6940   21.5643 C.ar    1  UNL1        0.0809
      5 C           4.3494   -2.1080   23.0051 C.ar    1  UNL1        0.0199
      6 C           3.4942   -1.3462   23.9737 C.ar    1  UNL1        0.0129
      7 C           2.6914   -0.1703   23.5015 C.ar    1  UNL1        0.0578
      8 CL          1.8362    0.5916   24.4702 Cl      1  UNL1       -0.0822
      9 C           2.7438    0.2437   22.0608 C.ar    1  UNL1        0.0129
     10 C           3.5990   -0.5181   21.0922 C.ar    1  UNL1        0.0185
     11 C           3.6515   -0.1041   19.6514 C.ar    1  UNL1        0.0037
     12 C           4.5066   -0.8660   18.6828 C.ar    1  UNL1        0.0276
     13 C           2.8487    1.0717   19.1792 C.ar    1  UNL1        0.0001
     14 C           3.4718    2.4355   19.1334 C.ar    1  UNL1        0.0000
     15 C           2.6690    3.6113   18.6612 C.ar    1  UNL1        0.0000
     16 C           1.2432    3.4234   18.2349 C.ar    1  UNL1        0.0000
     17 C           0.6201    2.0598   18.2808 C.ar    1  UNL1        0.0000
     18 C           1.4229    0.8839   18.7529 C.ar    1  UNL1        0.0000
     19 C           4.5591   -0.4520   17.2419 C.2     1  UNL1        0.0740
     20 O           3.6604   -1.1122   16.2387 O.co2   1  UNL1       -0.5446
     21 O           5.5102    0.6222   16.8044 O.co2   1  UNL1       -0.5446
@<TRIPOS>UNITY_ATOM_ATTR
20 1
charge -1
@<TRIPOS>BOND
     1     1     2    1
     2     2     3   ar
     3     3     4   ar
     4     4     5   ar
     5     5     6   ar
     6     6     7   ar
     7     7     8    1
     8     7     9   ar
     9     9    10   ar
    10    10    11   ar
    11    11    13    1
    12    13    14   ar
    13    14    15   ar
    14    15    16   ar
    15    16    17   ar
    16    17    18   ar
    17    11    12   ar
    18    12    19    1
    19    19    20   ar
    20    19    21   ar
    21    12     2   ar
    22    10     4   ar
    23    18    13   ar
@<TRIPOS>MOLECULE
*****
 21 23 0 0 0
SMALL
GASTEIGER

@<TRIPOS>ATOM
      1 C           7.4382    1.4052   17.0914 C.3     1  UNL1        0.0521
      2 C           6.1342    1.0789   17.7570 C.ar    1  UNL1        0.0604
      3 N           5.0363    2.1001   17.7970 N.ar    1  UNL1       -0.2496
      4 C           3.7322    1.7738   18.4626 C.ar    1  UNL1        0.0809
      5 C           2.6343    2.7950   18.5025 C.ar    1  UNL1        0.0199
      6 C           1.3304    2.4687   19.1681 C.ar    1  UNL1        0.0129
      7 C           1.1243    1.1210   19.7938 C.ar    1  UNL1        0.0578
      8 CL         -0.1798    0.7947   20.4595 Cl      1  UNL1       -0.0822
      9 C           2.2222    0.0998   19.7539 C.ar    1  UNL1        0.0129
     10 C           3.5261    0.4262   19.0883 C.ar    1  UNL1        0.0185
     11 C           4.6241   -0.5951   19.0483 C.ar    1  UNL1        0.0037
     12 C           5.9281   -0.2687   18.3827 C.ar    1  UNL1        0.0276
     13 C           4.4180   -1.9427   19.6740 C.ar    1  UNL1        0.0001
     14 C           4.7667   -2.1611   21.1165 C.ar    1  UNL1        0.0000
     15 C           4.5607   -3.5087   21.7422 C.ar    1  UNL1        0.0000
     16 C           4.0059   -4.6379   20.9254 C.ar    1  UNL1        0.0000
     17 C           3.6572   -4.4195   19.4829 C.ar    1  UNL1        0.0000
     18 C           3.8633   -3.0719   18.8573 C.ar    1  UNL1        0.0000
     19 C           7.0261   -1.2900   18.3428 C.2     1  UNL1        0.0740
     20 O           7.0076   -2.3708   17.3028 O.co2   1  UNL1       -0.5446
     21 O           8.1425   -1.2305   19.3428 O.co2   1  UNL1       -0.5446
@<TRIPOS>UNITY_ATOM_ATTR
20 1
charge -1
@<TRIPOS>BOND
     1     1     2    1
     2     2     3   ar
     3     3     4   ar
     4     4     5   ar
     5     5     6   ar
     6     6     7   ar
     7     7     8    1
     8     7     9   ar
     9     9    10   ar
    10    10    11   ar
    11    11    13    1
    12    13    14   ar
    13    14    15   ar
    14    15    16   ar
    15    16    17   ar
    16    17    18   ar
    17    11    12   ar
    18    12    19    1
    19    19    20   ar
    20    19    21   ar
    21    12     2   ar
    22    10     4   ar
    23    18    13   ar
@<TRIPOS>MOLECULE
*****
 21 23 0 0 0
SMALL
GASTEIGER

@<TRIPOS>ATOM
      1 C           3.5341   -0.9282   25.5827 C.3     1  UNL1        0.0521
      2 C           3.1439   -0.6029   24.1713 C.ar    1  UNL1        0.0604
      3 N           2.0577    0.3967   23.9049 N.ar    1  UNL1       -0.2496
      4 C           1.6674    0.7219   22.4935 C.ar    1  UNL1        0.0809
      5 C           0.5812    1.7215   22.2271 C.ar    1  UNL1        0.0199
      6 C           0.1910    2.0467   20.8158 C.ar    1  UNL1        0.0129
      7 C           0.8870    1.3724   19.6708 C.ar    1  UNL1        0.0578
      8 CL          0.4967    1.6977   18.2594 Cl      1  UNL1       -0.0822
      9 C           1.9732    0.3728   19.9372 C.ar    1  UNL1        0.0129
     10 C           2.3634    0.0476   21.3486 C.ar    1  UNL1        0.0185
     11 C           3.4496   -0.9520   21.6150 C.ar    1  UNL1        0.0037
     12 C           3.8398   -1.2773   23.0264 C.ar    1  UNL1        0.0276
     13 C           4.1456   -1.6264   20.4701 C.ar    1  UNL1        0.0001
     14 C           3.5908   -2.8977   19.8990 C.ar    1  UNL1        0.0000
     15 C           4.2867   -3.5720   18.7541 C.ar    1  UNL1        0.0000
     16 C           5.5376   -2.9751   18.1802 C.ar    1  UNL1        0.0000
     17 C           6.0923   -1.7038   18.7513 C.ar    1  UNL1        0.0000
     18 C           5.3963   -1.0295   19.8962 C.ar    1  UNL1        0.0000
     19 C           4.9261   -2.2769   23.2928 C.2     1  UNL1        0.0740
     20 O           6.3067   -1.8081   23.6452 O.co2   1  UNL1       -0.5446
     21 O           4.6317   -3.7452   23.2069 O.co2   1  UNL1       -0.5446
@<TRIPOS>UNITY_ATOM_ATTR
20 1
charge -1
@<TRIPOS>BOND
     1     1     2    1
     2     2     3   ar
     3     3     4   ar
     4     4     5   ar
     5     5     6   ar
     6     6     7   ar
     7     7     8    1
     8     7     9   ar
     9     9    10   ar
    10    10    11   ar
    11    11    13    1
    12    13    14   ar
    13    14    15   ar
    14    15    16   ar
    15    16    17   ar
    16    17    18   ar
    17    11    12   ar
    18    12    19    1
    19    19    20   ar
    20    19    21   ar
    21    12     2   ar
    22    10     4   ar
    23    18    13   ar
@<TRIPOS>MOLECULE
*****
 21 23 0 0 0
SMALL
GASTEIGER

@<TRIPOS>ATOM
      1 C           1.4738    1.1211   23.1903 C.3     1  UNL1        0.0521
      2 C           2.5208    0.0478   23.2332 C.ar    1  UNL1        0.0604
      3 N           3.1786   -0.3069   24.5337 N.ar    1  UNL1       -0.2496
      4 C           4.2257   -1.3802   24.5766 C.ar    1  UNL1        0.0809
      5 C           4.8834   -1.7348   25.8772 C.ar    1  UNL1        0.0199
      6 C           5.9304   -2.8080   25.9199 C.ar    1  UNL1        0.0129
      7 C           6.3197   -3.5267   24.6621 C.ar    1  UNL1        0.0578
      8 CL          7.3667   -4.6000   24.7050 Cl      1  UNL1       -0.0822
      9 C           5.6619   -3.1720   23.3616 C.ar    1  UNL1        0.0129
     10 C           4.6149   -2.0988   23.3188 C.ar    1  UNL1        0.0185
     11 C           3.9571   -1.7441   22.0181 C.ar    1  UNL1        0.0037
     12 C           2.9101   -0.6708   21.9754 C.ar    1  UNL1        0.0276
     13 C           4.3464   -2.4627   20.7603 C.ar    1  UNL1        0.0001
     14 C           5.4160   -1.8970   19.8738 C.ar    1  UNL1        0.0000
     15 C           5.8053   -2.6156   18.6160 C.ar    1  UNL1        0.0000
     16 C           5.1249   -3.8999   18.2447 C.ar    1  UNL1        0.0000
     17 C           4.0553   -4.4656   19.1313 C.ar    1  UNL1        0.0000
     18 C           3.6661   -3.7469   20.3891 C.ar    1  UNL1        0.0000
     19 C           2.2523   -0.3162   20.6747 C.2     1  UNL1        0.0740
     20 O           0.9651   -0.9776   20.2804 O.co2   1  UNL1       -0.5446
     21 O           2.8818    0.6999   19.7685 O.co2   1  UNL1       -0.5446
@<TRIPOS>UNITY_ATOM_ATTR
20 1
charge -1
@<TRIPOS>BOND
     1     1     2    1
     2     2     3   ar
     3     3     4   ar
     4     4     5   ar
     5     5     6   ar
     6     6     7   ar
     7     7     8    1
     8     7     9   ar
     9     9    10   ar
    10    10    11   ar
    11    11    13    1
    12    13    14   ar
    13    14    15   ar
    14    15    16   ar
    15    16    17   ar
    16    17    18   ar
    17    11    12   ar
    18    12    19    1
    19    19    20   ar
    20    19    21   ar
    21    12     2   ar
    22    10     4   ar
    23    18    13   ar
