@<TRIPOS>MOLECULE
*****
 29 32 0 0 0
SMALL
GASTEIGER

@<TRIPOS>ATOM
      1 C           6.6139   -3.9899   28.9977 C.ar    1  UNL1        0.0785
      2 C           6.2686   -2.5305   28.9695 C.ar    1  UNL1        0.0183
      3 C           6.1345   -1.7666   30.2534 C.ar    1  UNL1        0.0168
      4 C           6.3458   -2.4620   31.5655 C.ar    1  UNL1        0.0636
      5 C           6.6911   -3.9214   31.5937 C.ar    1  UNL1        0.0462
      6 C           6.8251   -4.6854   30.3098 C.ar    1  UNL1        0.1547
      7 F           7.1705   -6.1449   30.3380 F       1  UNL1       -0.2028
      8 N           6.2118   -1.6981   32.8494 N.am    1  UNL1       -0.2010
      9 C           7.2639   -0.8291   33.4723 C.2     1  UNL1        0.2589
     10 O           8.6347   -0.5714   32.9206 O.2     1  UNL1       -0.2691
     11 C           6.7045   -0.2629   34.7437 C.ar    1  UNL1        0.0588
     12 C           7.2873    0.6582   35.7741 C.ar    1  UNL1        0.0070
     13 C           6.4723    1.0602   36.9674 C.ar    1  UNL1        0.0298
     14 C           5.0745    0.5411   37.1304 C.ar    1  UNL1        0.1403
     15 F           4.2595    0.9432   38.3238 F       1  UNL1       -0.2042
     16 C           4.4916   -0.3800   36.1000 C.ar    1  UNL1        0.0343
     17 C           5.3066   -0.7820   34.9067 C.ar    1  UNL1        0.0609
     18 C           5.0021   -1.6690   33.7359 C.2     1  UNL1        0.2590
     19 O           3.7141   -2.3988   33.4942 O.2     1  UNL1       -0.2691
     20 C           8.1029   -4.9706   27.1080 C.2     1  UNL1        0.2840
     21 O           9.3239   -4.4235   27.7861 O.2     1  UNL1       -0.2665
     22 N           6.7479   -4.7539   27.7138 N.am    1  UNL1       -0.2761
     23 H           5.9465   -5.1130   27.2687 H       1  UNL1        0.1553
     24 C           7.9394   -8.2133   26.7793 C.3     1  UNL1        0.0345
     25 C           8.1617   -7.2251   25.6730 C.ar    1  UNL1        0.0204
     26 C           8.3480   -7.5538   24.2213 C.ar    1  UNL1        0.0396
     27 C           8.5383   -6.2665   23.4753 C.ar    1  UNL1        0.1795
     28 O           8.4696   -5.1422   24.4658 O.2     1  UNL1       -0.4461
     29 C           8.2369   -5.7346   25.8241 C.ar    1  UNL1        0.1948
@<TRIPOS>BOND
     1    24    25    1
     2    25    26   ar
     3    26    27   ar
     4    27    28   ar
     5    28    29   ar
     6    29    20    1
     7    20    21    2
     8    20    22   am
     9    22     1    1
    10     1     2   ar
    11     2     3   ar
    12     3     4   ar
    13     4     8    1
    14     8     9   am
    15     9    10    2
    16     9    11    1
    17    11    12   ar
    18    12    13   ar
    19    13    14   ar
    20    14    15    1
    21    14    16   ar
    22    16    17   ar
    23    17    18    1
    24    18    19    2
    25     4     5   ar
    26     5     6   ar
    27     6     7    1
    28    29    25   ar
    29     6     1   ar
    30    18     8   am
    31    17    11   ar
    32    22    23    1
@<TRIPOS>MOLECULE
*****
 29 32 0 0 0
SMALL
GASTEIGER

@<TRIPOS>ATOM
      1 C          -5.1291  -18.1923   22.3670 C.ar    1  UNL1        0.0785
      2 C          -5.9647  -19.3727   21.9689 C.ar    1  UNL1        0.0183
      3 C          -7.4385  -19.3766   22.2477 C.ar    1  UNL1        0.0168
      4 C          -8.0769  -18.2000   22.9246 C.ar    1  UNL1        0.0636
      5 C          -7.2413  -17.0197   23.3228 C.ar    1  UNL1        0.0462
      6 C          -5.7675  -17.0158   23.0440 C.ar    1  UNL1        0.1547
      7 F          -4.9319  -15.8353   23.4422 F       1  UNL1       -0.2028
      8 N          -9.5507  -18.2039   23.2034 N.am    1  UNL1       -0.2010
      9 C         -10.6256  -17.7287   22.2714 C.2     1  UNL1        0.2589
     10 O         -10.4154  -17.1661   20.8968 O.2     1  UNL1       -0.2691
     11 C         -11.9477  -17.9147   22.9551 C.ar    1  UNL1        0.0588
     12 C         -13.3530  -17.6230   22.5192 C.ar    1  UNL1        0.0070
     13 C         -14.5004  -17.9214   23.4380 C.ar    1  UNL1        0.0298
     14 C         -14.2426  -18.5117   24.7927 C.ar    1  UNL1        0.1403
     15 F         -15.3902  -18.8101   25.7115 F       1  UNL1       -0.2042
     16 C         -12.8373  -18.8034   25.2286 C.ar    1  UNL1        0.0343
     17 C         -11.6899  -18.5050   24.3098 C.ar    1  UNL1        0.0609
     18 C         -10.2085  -18.6837   24.4633 C.2     1  UNL1        0.2590
     19 O          -9.5079  -19.2438   25.6655 O.2     1  UNL1       -0.2691
     20 C          -3.1598  -18.1883   20.6725 C.2     1  UNL1        0.2840
     21 O          -4.1382  -18.1921   19.5354 O.2     1  UNL1       -0.2665
     22 N          -3.6553  -18.1885   22.0882 N.am    1  UNL1       -0.2761
     23 H          -3.0132  -18.1860   22.8345 H       1  UNL1        0.1553
     24 C          -1.0932  -15.7446   21.3107 C.3     1  UNL1        0.0345
     25 C          -0.7360  -17.0611   20.6871 C.ar    1  UNL1        0.0204
     26 C           0.6338  -17.4857   20.2472 C.ar    1  UNL1        0.0396
     27 C           0.5305  -18.8713   19.6820 C.ar    1  UNL1        0.1795
     28 O          -0.9032  -19.3031   19.7725 O.2     1  UNL1       -0.4461
     29 C          -1.6859  -18.1845   20.3937 C.ar    1  UNL1        0.1948
@<TRIPOS>BOND
     1    24    25    1
     2    25    26   ar
     3    26    27   ar
     4    27    28   ar
     5    28    29   ar
     6    29    20    1
     7    20    21    2
     8    20    22   am
     9    22     1    1
    10     1     2   ar
    11     2     3   ar
    12     3     4   ar
    13     4     8    1
    14     8     9   am
    15     9    10    2
    16     9    11    1
    17    11    12   ar
    18    12    13   ar
    19    13    14   ar
    20    14    15    1
    21    14    16   ar
    22    16    17   ar
    23    17    18    1
    24    18    19    2
    25     4     5   ar
    26     5     6   ar
    27     6     7    1
    28    29    25   ar
    29     6     1   ar
    30    18     8   am
    31    17    11   ar
    32    22    23    1
@<TRIPOS>MOLECULE
*****
 29 32 0 0 0
SMALL
GASTEIGER

@<TRIPOS>ATOM
      1 C           5.1944   -0.9345   34.6246 C.ar    1  UNL1        0.0785
      2 C           4.2624   -1.9110   33.9706 C.ar    1  UNL1        0.0183
      3 C           4.7055   -2.6733   32.7571 C.ar    1  UNL1        0.0168
      4 C           6.0806   -2.4589   32.1975 C.ar    1  UNL1        0.0636
      5 C           7.0126   -1.4824   32.8515 C.ar    1  UNL1        0.0462
      6 C           6.5695   -0.7202   34.0651 C.ar    1  UNL1        0.1547
      7 F           7.5015    0.2564   34.7190 F       1  UNL1       -0.2028
      8 N           6.5237   -3.2212   30.9840 N.am    1  UNL1       -0.2010
      9 C           6.7311   -2.6514   29.6120 C.2     1  UNL1        0.2589
     10 O           6.5318   -1.2193   29.2127 O.2     1  UNL1       -0.2691
     11 C           7.1727   -3.7651   28.7094 C.ar    1  UNL1        0.0588
     12 C           7.5237   -3.7961   27.2514 C.ar    1  UNL1        0.0070
     13 C           7.9402   -5.0852   26.6076 C.ar    1  UNL1        0.0298
     14 C           8.0058   -6.3433   27.4217 C.ar    1  UNL1        0.1403
     15 F           8.4223   -7.6325   26.7778 F       1  UNL1       -0.2042
     16 C           7.6548   -6.3123   28.8797 C.ar    1  UNL1        0.0343
     17 C           7.2383   -5.0232   29.5236 C.ar    1  UNL1        0.0609
     18 C           6.8372   -4.6870   30.9293 C.2     1  UNL1        0.2590
     19 O           6.7626   -5.6480   32.0786 O.2     1  UNL1       -0.2691
     20 C           3.9802    1.1048   35.6816 C.2     1  UNL1        0.2840
     21 O           3.6522    1.6197   34.3114 O.2     1  UNL1       -0.2665
     22 N           4.7513   -0.1723   35.8382 N.am    1  UNL1       -0.2761
     23 H           4.9665   -0.5102   36.7374 H       1  UNL1        0.1553
     24 C           5.9323    2.3741   37.9680 C.3     1  UNL1        0.0345
     25 C           4.4345    2.4504   37.9461 C.ar    1  UNL1        0.0204
     26 C           3.5708    3.1236   38.9713 C.ar    1  UNL1        0.0396
     27 C           2.1398    2.9562   38.5539 C.ar    1  UNL1        0.1795
     28 O           2.1190    2.1796   37.2708 O.2     1  UNL1       -0.4461
     29 C           3.5371    1.8670   36.8951 C.ar    1  UNL1        0.1948
@<TRIPOS>BOND
     1    24    25    1
     2    25    26   ar
     3    26    27   ar
     4    27    28   ar
     5    28    29   ar
     6    29    20    1
     7    20    21    2
     8    20    22   am
     9    22     1    1
    10     1     2   ar
    11     2     3   ar
    12     3     4   ar
    13     4     8    1
    14     8     9   am
    15     9    10    2
    16     9    11    1
    17    11    12   ar
    18    12    13   ar
    19    13    14   ar
    20    14    15    1
    21    14    16   ar
    22    16    17   ar
    23    17    18    1
    24    18    19    2
    25     4     5   ar
    26     5     6   ar
    27     6     7    1
    28    29    25   ar
    29     6     1   ar
    30    18     8   am
    31    17    11   ar
    32    22    23    1
@<TRIPOS>MOLECULE
*****
 29 32 0 0 0
SMALL
GASTEIGER

@<TRIPOS>ATOM
      1 C           5.1005   -0.4528   28.6045 C.ar    1  UNL1        0.0785
      2 C           6.2293   -0.4084   27.6177 C.ar    1  UNL1        0.0183
      3 C           5.9965   -0.8163   26.1931 C.ar    1  UNL1        0.0168
      4 C           4.6350   -1.2686   25.7554 C.ar    1  UNL1        0.0636
      5 C           3.5063   -1.3130   26.7422 C.ar    1  UNL1        0.0462
      6 C           3.7390   -0.9052   28.1668 C.ar    1  UNL1        0.1547
      7 F           2.6102   -0.9496   29.1537 F       1  UNL1       -0.2028
      8 N           4.4023   -1.6765   24.3308 N.am    1  UNL1       -0.2010
      9 C           3.5317   -0.9620   23.3400 C.2     1  UNL1        0.2589
     10 O           2.7410    0.2859   23.6000 O.2     1  UNL1       -0.2691
     11 C           3.5906   -1.7144   22.0437 C.ar    1  UNL1        0.0588
     12 C           2.9355   -1.4778   20.7153 C.ar    1  UNL1        0.0070
     13 C           3.1874   -2.4209   19.5764 C.ar    1  UNL1        0.0298
     14 C           4.0944   -3.6005   19.7659 C.ar    1  UNL1        0.1403
     15 F           4.3463   -4.5435   18.6269 F       1  UNL1       -0.2042
     16 C           4.7495   -3.8370   21.0944 C.ar    1  UNL1        0.0343
     17 C           4.4976   -2.8940   22.2333 C.ar    1  UNL1        0.0609
     18 C           4.9992   -2.8706   23.6467 C.2     1  UNL1        0.2590
     19 O           5.9337   -3.8664   24.2672 O.2     1  UNL1       -0.2691
     20 C           5.8323   -1.0496   31.0249 C.2     1  UNL1        0.2840
     21 O           6.0985   -2.4622   30.5962 O.2     1  UNL1       -0.2665
     22 N           5.3333   -0.0450   30.0291 N.am    1  UNL1       -0.2761
     23 H           5.1586    0.8822   30.3105 H       1  UNL1        0.1553
     24 C           4.3549   -2.3108   33.6472 C.3     1  UNL1        0.0345
     25 C           5.3859   -1.2215   33.6549 C.ar    1  UNL1        0.0204
     26 C           5.9189   -0.5205   34.8692 C.ar    1  UNL1        0.0396
     27 C           6.9275    0.4925   34.4144 C.ar    1  UNL1        0.1795
     28 O           7.0177    0.4175   32.9190 O.2     1  UNL1       -0.4461
     29 C           6.0650   -0.6417   32.4495 C.ar    1  UNL1        0.1948
@<TRIPOS>BOND
     1    24    25    1
     2    25    26   ar
     3    26    27   ar
     4    27    28   ar
     5    28    29   ar
     6    29    20    1
     7    20    21    2
     8    20    22   am
     9    22     1    1
    10     1     2   ar
    11     2     3   ar
    12     3     4   ar
    13     4     8    1
    14     8     9   am
    15     9    10    2
    16     9    11    1
    17    11    12   ar
    18    12    13   ar
    19    13    14   ar
    20    14    15    1
    21    14    16   ar
    22    16    17   ar
    23    17    18    1
    24    18    19    2
    25     4     5   ar
    26     5     6   ar
    27     6     7    1
    28    29    25   ar
    29     6     1   ar
    30    18     8   am
    31    17    11   ar
    32    22    23    1
@<TRIPOS>MOLECULE
*****
 29 32 0 0 0
SMALL
GASTEIGER

@<TRIPOS>ATOM
      1 C           0.6701    2.5820   28.9177 C.ar    1  UNL1        0.0785
      2 C           0.3554    3.9990   28.5395 C.ar    1  UNL1        0.0183
      3 C          -0.6674    4.2828   27.4796 C.ar    1  UNL1        0.0168
      4 C          -1.3754    3.1497   26.7980 C.ar    1  UNL1        0.0636
      5 C          -1.0607    1.7328   27.1762 C.ar    1  UNL1        0.0462
      6 C          -0.0379    1.4489   28.2361 C.ar    1  UNL1        0.1547
      7 F           0.2768    0.0318   28.6143 F       1  UNL1       -0.2028
      8 N          -2.3982    3.4336   25.7381 N.am    1  UNL1       -0.2010
      9 C          -2.1733    3.3706   24.2564 C.2     1  UNL1        0.2589
     10 O          -0.8861    3.0126   23.5744 O.2     1  UNL1       -0.2691
     11 C          -3.4615    3.7284   23.5763 C.ar    1  UNL1        0.0588
     12 C          -3.8367    3.8321   22.1277 C.ar    1  UNL1        0.0070
     13 C          -5.2330    4.2200   21.7406 C.ar    1  UNL1        0.0298
     14 C          -6.2541    4.5041   22.8020 C.ar    1  UNL1        0.1403
     15 F          -7.6504    4.8921   22.4147 F       1  UNL1       -0.2042
     16 C          -5.8789    4.4004   24.2506 C.ar    1  UNL1        0.0343
     17 C          -4.4826    4.0125   24.6377 C.ar    1  UNL1        0.0609
     18 C          -3.8254    3.8303   25.9737 C.2     1  UNL1        0.2590
     19 O          -4.4805    4.0128   27.3107 O.2     1  UNL1       -0.2691
     20 C           1.2566    1.8357   31.3362 C.2     1  UNL1        0.2840
     21 O          -0.2026    1.6572   31.6350 O.2     1  UNL1       -0.2665
     22 N           1.6928    2.2981   29.9776 N.am    1  UNL1       -0.2761
     23 H           2.6505    2.4153   29.7816 H       1  UNL1        0.1553
     24 C           3.3031   -0.7055   31.3955 C.3     1  UNL1        0.0345
     25 C           3.2200    0.3838   32.4233 C.ar    1  UNL1        0.0204
     26 C           4.0631    0.4963   33.6590 C.ar    1  UNL1        0.0396
     27 C           3.6434    1.7338   34.3954 C.ar    1  UNL1        0.1795
     28 O           2.5410    2.3862   33.6149 O.2     1  UNL1       -0.4461
     29 C           2.2793    1.5519   32.3961 C.ar    1  UNL1        0.1948
@<TRIPOS>BOND
     1    24    25    1
     2    25    26   ar
     3    26    27   ar
     4    27    28   ar
     5    28    29   ar
     6    29    20    1
     7    20    21    2
     8    20    22   am
     9    22     1    1
    10     1     2   ar
    11     2     3   ar
    12     3     4   ar
    13     4     8    1
    14     8     9   am
    15     9    10    2
    16     9    11    1
    17    11    12   ar
    18    12    13   ar
    19    13    14   ar
    20    14    15    1
    21    14    16   ar
    22    16    17   ar
    23    17    18    1
    24    18    19    2
    25     4     5   ar
    26     5     6   ar
    27     6     7    1
    28    29    25   ar
    29     6     1   ar
    30    18     8   am
    31    17    11   ar
    32    22    23    1
@<TRIPOS>MOLECULE
*****
 29 32 0 0 0
SMALL
GASTEIGER

@<TRIPOS>ATOM
      1 C           6.5428   -2.4903   31.8079 C.ar    1  UNL1        0.0785
      2 C           5.0491   -2.4168   31.9233 C.ar    1  UNL1        0.0183
      3 C           4.4182   -1.4784   32.9090 C.ar    1  UNL1        0.0168
      4 C           5.2811   -0.6136   33.7793 C.ar    1  UNL1        0.0636
      5 C           6.7748   -0.6871   33.6639 C.ar    1  UNL1        0.0462
      6 C           7.4057   -1.6254   32.6782 C.ar    1  UNL1        0.1547
      7 F           8.8995   -1.6989   32.5628 F       1  UNL1       -0.2028
      8 N           4.6503    0.3247   34.7650 N.am    1  UNL1       -0.2010
      9 C           3.6213    1.3704   34.4527 C.2     1  UNL1        0.2589
     10 O           3.0424    1.6615   33.0999 O.2     1  UNL1       -0.2691
     11 C           3.2728    2.0741   35.7308 C.ar    1  UNL1        0.0588
     12 C           2.3197    3.1921   36.0333 C.ar    1  UNL1        0.0070
     13 C           2.1802    3.6992   37.4381 C.ar    1  UNL1        0.0298
     14 C           2.9938    3.0883   38.5403 C.ar    1  UNL1        0.1403
     15 F           2.8543    3.5955   39.9451 F       1  UNL1       -0.2042
     16 C           3.9469    1.9703   38.2377 C.ar    1  UNL1        0.0343
     17 C           4.0864    1.4632   36.8330 C.ar    1  UNL1        0.0609
     18 C           4.9377    0.3820   36.2361 C.2     1  UNL1        0.2590
     19 O           5.9065   -0.4889   36.9798 O.2     1  UNL1       -0.2691
     20 C           7.1781   -4.9046   31.0888 C.2     1  UNL1        0.2840
     21 O           6.5518   -5.4425   32.3413 O.2     1  UNL1       -0.2665
     22 N           7.1736   -3.4286   30.8222 N.am    1  UNL1       -0.2761
     23 H           7.5847   -3.0756   30.0002 H       1  UNL1        0.1553
     24 C           6.2344   -5.3586   27.9980 C.3     1  UNL1        0.0345
     25 C           7.3751   -6.0516   28.6824 C.ar    1  UNL1        0.0204
     26 C           8.2824   -7.0750   28.0663 C.ar    1  UNL1        0.0396
     27 C           9.2769   -7.4988   29.1062 C.ar    1  UNL1        0.1795
     28 O           8.9843   -6.7373   30.3650 O.2     1  UNL1       -0.4461
     29 C           7.8089   -5.8429   30.1031 C.ar    1  UNL1        0.1948
@<TRIPOS>BOND
     1    24    25    1
     2    25    26   ar
     3    26    27   ar
     4    27    28   ar
     5    28    29   ar
     6    29    20    1
     7    20    21    2
     8    20    22   am
     9    22     1    1
    10     1     2   ar
    11     2     3   ar
    12     3     4   ar
    13     4     8    1
    14     8     9   am
    15     9    10    2
    16     9    11    1
    17    11    12   ar
    18    12    13   ar
    19    13    14   ar
    20    14    15    1
    21    14    16   ar
    22    16    17   ar
    23    17    18    1
    24    18    19    2
    25     4     5   ar
    26     5     6   ar
    27     6     7    1
    28    29    25   ar
    29     6     1   ar
    30    18     8   am
    31    17    11   ar
    32    22    23    1
@<TRIPOS>MOLECULE
*****
 29 32 0 0 0
SMALL
GASTEIGER

@<TRIPOS>ATOM
      1 C          -5.7010  -18.8569   21.2254 C.ar    1  UNL1        0.0785
      2 C          -6.0444  -17.7990   22.2317 C.ar    1  UNL1        0.0183
      3 C          -7.4351  -17.7157   22.7875 C.ar    1  UNL1        0.0168
      4 C          -8.4825  -18.6903   22.3368 C.ar    1  UNL1        0.0636
      5 C          -8.1391  -19.7482   21.3305 C.ar    1  UNL1        0.0462
      6 C          -6.7483  -19.8315   20.7747 C.ar    1  UNL1        0.1547
      7 F          -6.4049  -20.8895   19.7683 F       1  UNL1       -0.2028
      8 N          -9.8733  -18.6070   22.8926 N.am    1  UNL1       -0.2010
      9 C         -11.1055  -18.2189   22.1304 C.2     1  UNL1        0.2589
     10 O         -11.1634  -17.8459   20.6787 O.2     1  UNL1       -0.2691
     11 C         -12.2698  -18.2692   23.0748 C.ar    1  UNL1        0.0588
     12 C         -13.7305  -17.9875   22.8832 C.ar    1  UNL1        0.0070
     13 C         -14.6786  -18.1250   24.0374 C.ar    1  UNL1        0.0298
     14 C         -14.1659  -18.5442   25.3833 C.ar    1  UNL1        0.1403
     15 F         -15.1140  -18.6817   26.5375 F       1  UNL1       -0.2042
     16 C         -12.7052  -18.8260   25.5749 C.ar    1  UNL1        0.0343
     17 C         -11.7571  -18.6885   24.4207 C.ar    1  UNL1        0.0609
     18 C         -10.2760  -18.8972   24.3081 C.2     1  UNL1        0.2590
     19 O          -9.3586  -19.3217   25.4163 O.2     1  UNL1       -0.2691
     20 C          -3.2459  -18.0087   21.1691 C.2     1  UNL1        0.2840
     21 O          -3.5723  -16.9939   22.2245 O.2     1  UNL1       -0.2665
     22 N          -4.3102  -18.9402   20.6696 N.am    1  UNL1       -0.2761
     23 H          -4.0959  -19.6063   19.9770 H       1  UNL1        0.1553
     24 C          -2.3685  -17.3694   18.0916 C.3     1  UNL1        0.0345
     25 C          -1.4519  -17.7981   19.1988 C.ar    1  UNL1        0.0204
     26 C           0.0291  -18.0083   19.0858 C.ar    1  UNL1        0.0396
     27 C           0.5410  -18.4321   20.4306 C.ar    1  UNL1        0.1795
     28 O          -0.6235  -18.4838   21.3746 O.2     1  UNL1       -0.4461
     29 C          -1.8551  -18.0920   20.6134 C.ar    1  UNL1        0.1948
@<TRIPOS>BOND
     1    24    25    1
     2    25    26   ar
     3    26    27   ar
     4    27    28   ar
     5    28    29   ar
     6    29    20    1
     7    20    21    2
     8    20    22   am
     9    22     1    1
    10     1     2   ar
    11     2     3   ar
    12     3     4   ar
    13     4     8    1
    14     8     9   am
    15     9    10    2
    16     9    11    1
    17    11    12   ar
    18    12    13   ar
    19    13    14   ar
    20    14    15    1
    21    14    16   ar
    22    16    17   ar
    23    17    18    1
    24    18    19    2
    25     4     5   ar
    26     5     6   ar
    27     6     7    1
    28    29    25   ar
    29     6     1   ar
    30    18     8   am
    31    17    11   ar
    32    22    23    1
@<TRIPOS>MOLECULE
*****
 29 32 0 0 0
SMALL
GASTEIGER

@<TRIPOS>ATOM
      1 C           4.2289    0.0617   28.9585 C.ar    1  UNL1        0.0785
      2 C           4.1924   -1.2923   28.3141 C.ar    1  UNL1        0.0183
      3 C           3.8548   -1.4211   26.8582 C.ar    1  UNL1        0.0168
      4 C           3.5537   -0.1959   26.0469 C.ar    1  UNL1        0.0636
      5 C           3.5903    1.1580   26.6913 C.ar    1  UNL1        0.0462
      6 C           3.9279    1.2869   28.1472 C.ar    1  UNL1        0.1547
      7 F           3.9644    2.6409   28.7916 F       1  UNL1       -0.2028
      8 N           3.2161   -0.3248   24.5910 N.am    1  UNL1       -0.2010
      9 C           3.8686   -1.2571   23.6138 C.2     1  UNL1        0.2589
     10 O           4.9733   -2.2242   23.9208 O.2     1  UNL1       -0.2691
     11 C           3.2225   -1.0524   22.2756 C.ar    1  UNL1        0.0588
     12 C           3.4561   -1.6934   20.9398 C.ar    1  UNL1        0.0070
     13 C           2.6378   -1.2756   19.7541 C.ar    1  UNL1        0.0298
     14 C           1.5860   -0.2168   19.9043 C.ar    1  UNL1        0.1403
     15 F           0.7677    0.2010   18.7186 F       1  UNL1       -0.2042
     16 C           1.3524    0.4242   21.2402 C.ar    1  UNL1        0.0343
     17 C           2.1707    0.0064   22.4258 C.ar    1  UNL1        0.0609
     18 C           2.1667    0.4560   23.8568 C.2     1  UNL1        0.2590
     19 O           1.2707    1.5028   24.4496 O.2     1  UNL1       -0.2691
     20 C           3.5847   -0.2606   31.4547 C.2     1  UNL1        0.2840
     21 O           2.2651   -0.8406   31.0393 O.2     1  UNL1       -0.2665
     22 N           4.5665    0.1906   30.4144 N.am    1  UNL1       -0.2761
     23 H           5.4325    0.5712   30.6870 H       1  UNL1        0.1553
     24 C           4.4962   -2.6893   33.4347 C.3     1  UNL1        0.0345
     25 C           4.3413   -1.2482   33.8206 C.ar    1  UNL1        0.0204
     26 C           4.5781   -0.6702   35.1845 C.ar    1  UNL1        0.0396
     27 C           4.3055    0.8033   35.1173 C.ar    1  UNL1        0.1795
     28 O           3.9002    1.1360   33.7119 O.2     1  UNL1       -0.4461
     29 C           3.9223   -0.1317   32.9105 C.ar    1  UNL1        0.1948
@<TRIPOS>BOND
     1    24    25    1
     2    25    26   ar
     3    26    27   ar
     4    27    28   ar
     5    28    29   ar
     6    29    20    1
     7    20    21    2
     8    20    22   am
     9    22     1    1
    10     1     2   ar
    11     2     3   ar
    12     3     4   ar
    13     4     8    1
    14     8     9   am
    15     9    10    2
    16     9    11    1
    17    11    12   ar
    18    12    13   ar
    19    13    14   ar
    20    14    15    1
    21    14    16   ar
    22    16    17   ar
    23    17    18    1
    24    18    19    2
    25     4     5   ar
    26     5     6   ar
    27     6     7    1
    28    29    25   ar
    29     6     1   ar
    30    18     8   am
    31    17    11   ar
    32    22    23    1
@<TRIPOS>MOLECULE
*****
 29 32 0 0 0
SMALL
GASTEIGER

@<TRIPOS>ATOM
      1 C           7.8456   -3.5746   29.5261 C.ar    1  UNL1        0.0785
      2 C           8.0076   -4.2271   30.8669 C.ar    1  UNL1        0.0183
      3 C           7.5985   -3.4960   32.1112 C.ar    1  UNL1        0.0168
      4 C           7.0274   -2.1123   32.0145 C.ar    1  UNL1        0.0636
      5 C           6.8654   -1.4599   30.6736 C.ar    1  UNL1        0.0462
      6 C           7.2745   -2.1910   29.4294 C.ar    1  UNL1        0.1547
      7 F           7.1125   -1.5385   28.0885 F       1  UNL1       -0.2028
      8 N           6.6183   -1.3812   33.2587 N.am    1  UNL1       -0.2010
      9 C           7.4731   -0.4318   34.0448 C.2     1  UNL1        0.2589
     10 O           8.8871   -0.0468   33.7248 O.2     1  UNL1       -0.2691
     11 C           6.6657    0.0651   35.2073 C.ar    1  UNL1        0.0588
     12 C           6.9884    1.0194   36.3186 C.ar    1  UNL1        0.0070
     13 C           5.9572    1.3314   37.3622 C.ar    1  UNL1        0.0298
     14 C           4.6033    0.6891   37.2945 C.ar    1  UNL1        0.1403
     15 F           3.5721    1.0012   38.3383 F       1  UNL1       -0.2042
     16 C           4.2807   -0.2652   36.1832 C.ar    1  UNL1        0.0343
     17 C           5.3119   -0.5772   35.1396 C.ar    1  UNL1        0.0609
     18 C           5.2826   -1.4711   33.9353 C.2     1  UNL1        0.2590
     19 O           4.1215   -2.3079   33.4865 O.2     1  UNL1       -0.2691
     20 C           7.2953   -5.2464   27.6150 C.2     1  UNL1        0.2840
     21 O           5.9268   -5.4559   28.1923 O.2     1  UNL1       -0.2665
     22 N           8.2547   -4.3058   28.2819 N.am    1  UNL1       -0.2761
     23 H           9.1529   -4.1683   27.9029 H       1  UNL1        0.1553
     24 C           6.8122   -4.2360   24.5498 C.3     1  UNL1        0.0345
     25 C           7.4823   -5.5130   24.9618 C.ar    1  UNL1        0.0204
     26 C           8.0481   -6.5500   24.0373 C.ar    1  UNL1        0.0396
     27 C           8.6199   -7.6553   24.8748 C.ar    1  UNL1        0.1795
     28 O           8.4075   -7.3015   26.3170 O.2     1  UNL1       -0.4461
     29 C           7.7044   -5.9775   26.3708 C.ar    1  UNL1        0.1948
@<TRIPOS>BOND
     1    24    25    1
     2    25    26   ar
     3    26    27   ar
     4    27    28   ar
     5    28    29   ar
     6    29    20    1
     7    20    21    2
     8    20    22   am
     9    22     1    1
    10     1     2   ar
    11     2     3   ar
    12     3     4   ar
    13     4     8    1
    14     8     9   am
    15     9    10    2
    16     9    11    1
    17    11    12   ar
    18    12    13   ar
    19    13    14   ar
    20    14    15    1
    21    14    16   ar
    22    16    17   ar
    23    17    18    1
    24    18    19    2
    25     4     5   ar
    26     5     6   ar
    27     6     7    1
    28    29    25   ar
    29     6     1   ar
    30    18     8   am
    31    17    11   ar
    32    22    23    1
