@<TRIPOS>MOLECULE
*****
 19 20 0 0 0
SMALL
GASTEIGER

@<TRIPOS>ATOM
      1 N         -10.1355  -17.3083   21.8049 N.3     1  UNL1       -0.2702
      2 C         -12.4127  -16.3207   22.5725 C.3     1  UNL1        0.0173
      3 C         -11.4116  -16.5866   21.4875 C.3     1  UNL1        0.0579
      4 C         -11.6867  -16.1310   20.0851 C.3     1  UNL1        0.0173
      5 C          -8.8558  -16.5397   21.9517 C.3     1  UNL1        0.0991
      6 C          -8.3362  -16.2019   23.3177 C.ar    1  UNL1       -0.0053
      7 C          -9.2905  -16.0346   24.4629 C.ar    1  UNL1       -0.0020
      8 C          -8.7709  -15.6968   25.8288 C.ar    1  UNL1        0.0120
      9 C          -7.2971  -15.5263   26.0497 C.ar    1  UNL1        0.0682
     10 CL         -6.7776  -15.1885   27.4157 Cl      1  UNL1       -0.0814
     11 C          -6.3429  -15.6935   24.9045 C.ar    1  UNL1        0.0679
     12 CL         -4.8690  -15.5229   25.1253 Cl      1  UNL1       -0.0814
     13 C          -6.8624  -16.0313   23.5386 C.ar    1  UNL1        0.0093
     14 C         -10.1391  -18.7986   21.9755 C.3     1  UNL1        0.0750
     15 C         -10.1899  -19.3959   23.3505 C.3     1  UNL1        0.0474
     16 C         -11.0462  -19.1912   24.5649 C.3     1  UNL1        0.0713
     17 N         -10.2618  -20.2407   25.2950 N.3     1  UNL1       -0.2973
     18 C          -9.4054  -20.4455   24.0806 C.3     1  UNL1        0.0713
     19 H         -10.8088  -21.0593   25.5616 H       1  UNL1        0.1233
@<TRIPOS>BOND
     1     2     3    1
     2     3     4    1
     3     3     1    1
     4     1     5    1
     5     5     6    1
     6     6     7   ar
     7     7     8   ar
     8     8     9   ar
     9     9    10    1
    10     9    11   ar
    11    11    12    1
    12    11    13   ar
    13     1    14    1
    14    14    15    1
    15    15    16    1
    16    16    17    1
    17    17    18    1
    18    13     6   ar
    19    18    15    1
    20    17    19    1
@<TRIPOS>MOLECULE
*****
 19 20 0 0 0
SMALL
GASTEIGER

@<TRIPOS>ATOM
      1 N         -10.6421  -18.9611   20.9614 N.3     1  UNL1       -0.2702
      2 C         -12.8973  -17.7881   21.4979 C.3     1  UNL1        0.0173
      3 C         -11.5127  -17.7402   20.9230 C.3     1  UNL1        0.0579
      4 C         -10.9987  -16.4716   20.3097 C.3     1  UNL1        0.0173
      5 C          -9.4399  -19.0534   20.0692 C.3     1  UNL1        0.0991
      6 C          -8.0637  -19.0811   20.6654 C.ar    1  UNL1       -0.0053
      7 C          -7.7584  -18.2640   21.8857 C.ar    1  UNL1       -0.0020
      8 C          -6.3823  -18.2916   22.4818 C.ar    1  UNL1        0.0120
      9 C          -5.3114  -19.1364   21.8577 C.ar    1  UNL1        0.0682
     10 CL         -3.9352  -19.1640   22.4539 Cl      1  UNL1       -0.0814
     11 C          -5.6166  -19.9534   20.6374 C.ar    1  UNL1        0.0679
     12 CL         -4.5457  -20.7982   20.0132 Cl      1  UNL1       -0.0814
     13 C          -6.9927  -19.9258   20.0412 C.ar    1  UNL1        0.0093
     14 C         -10.9737  -20.0898   21.8922 C.3     1  UNL1        0.0750
     15 C         -10.6242  -19.9892   23.3474 C.3     1  UNL1        0.0474
     16 C         -11.1582  -19.2142   24.5154 C.3     1  UNL1        0.0713
     17 N         -10.1299  -19.8469   25.4054 N.3     1  UNL1       -0.2973
     18 C          -9.5959  -20.6220   24.2375 C.3     1  UNL1        0.0713
     19 H         -10.5216  -20.4279   26.1467 H       1  UNL1        0.1233
@<TRIPOS>BOND
     1     2     3    1
     2     3     4    1
     3     3     1    1
     4     1     5    1
     5     5     6    1
     6     6     7   ar
     7     7     8   ar
     8     8     9   ar
     9     9    10    1
    10     9    11   ar
    11    11    12    1
    12    11    13   ar
    13     1    14    1
    14    14    15    1
    15    15    16    1
    16    16    17    1
    17    17    18    1
    18    13     6   ar
    19    18    15    1
    20    17    19    1
@<TRIPOS>MOLECULE
*****
 19 20 0 0 0
SMALL
GASTEIGER

@<TRIPOS>ATOM
      1 N         -10.5203  -17.8253   22.4405 N.3     1  UNL1       -0.2702
      2 C         -12.9523  -17.9605   23.3445 C.3     1  UNL1        0.0173
      3 C         -11.5060  -18.3458   23.4442 C.3     1  UNL1        0.0579
      4 C         -11.0454  -19.2515   24.5476 C.3     1  UNL1        0.0173
      5 C         -10.0069  -16.4203   22.5523 C.3     1  UNL1        0.0991
      6 C          -8.8622  -16.1110   23.4710 C.ar    1  UNL1       -0.0053
      7 C          -7.4683  -16.0130   22.9257 C.ar    1  UNL1       -0.0020
      8 C          -6.3236  -15.7036   23.8444 C.ar    1  UNL1        0.0120
      9 C          -6.5729  -15.4923   25.3084 C.ar    1  UNL1        0.0682
     10 CL         -5.4282  -15.1829   26.2271 Cl      1  UNL1       -0.0814
     11 C          -7.9668  -15.5902   25.8536 C.ar    1  UNL1        0.0679
     12 CL         -8.2161  -15.3789   27.3176 Cl      1  UNL1       -0.0814
     13 C          -9.1115  -15.8996   24.9350 C.ar    1  UNL1        0.0093
     14 C         -10.0480  -18.7098   21.3248 C.3     1  UNL1        0.0750
     15 C          -8.6319  -19.2042   21.3079 C.3     1  UNL1        0.0474
     16 C          -7.6783  -19.7262   22.3415 C.3     1  UNL1        0.0713
     17 N          -6.6293  -19.9035   21.2841 N.3     1  UNL1       -0.2973
     18 C          -7.5829  -19.3815   20.2505 C.3     1  UNL1        0.0713
     19 H          -6.3455  -20.8722   21.1373 H       1  UNL1        0.1233
@<TRIPOS>BOND
     1     2     3    1
     2     3     4    1
     3     3     1    1
     4     1     5    1
     5     5     6    1
     6     6     7   ar
     7     7     8   ar
     8     8     9   ar
     9     9    10    1
    10     9    11   ar
    11    11    12    1
    12    11    13   ar
    13     1    14    1
    14    14    15    1
    15    15    16    1
    16    16    17    1
    17    17    18    1
    18    13     6   ar
    19    18    15    1
    20    17    19    1
@<TRIPOS>MOLECULE
*****
 19 20 0 0 0
SMALL
GASTEIGER

@<TRIPOS>ATOM
      1 N          -8.1041  -19.2869   21.4824 N.3     1  UNL1       -0.2702
      2 C          -8.5165  -19.8921   18.9896 C.3     1  UNL1        0.0173
      3 C          -8.9719  -19.2370   20.2599 C.3     1  UNL1        0.0579
      4 C         -10.2950  -18.5320   20.3076 C.3     1  UNL1        0.0173
      5 C          -6.8656  -20.1331   21.4890 C.3     1  UNL1        0.0991
      6 C          -5.5276  -19.5062   21.2307 C.ar    1  UNL1       -0.0053
      7 C          -4.9901  -19.4352   19.8321 C.ar    1  UNL1       -0.0020
      8 C          -3.6521  -18.8084   19.5738 C.ar    1  UNL1        0.0120
      9 C          -2.8516  -18.2525   20.7141 C.ar    1  UNL1        0.0682
     10 CL         -1.5135  -17.6256   20.4558 Cl      1  UNL1       -0.0814
     11 C          -3.3891  -18.3235   22.1127 C.ar    1  UNL1        0.0679
     12 CL         -2.5886  -17.7676   23.2529 Cl      1  UNL1       -0.0814
     13 C          -4.7271  -18.9503   22.3709 C.ar    1  UNL1        0.0093
     14 C          -8.4749  -18.4906   22.6984 C.3     1  UNL1        0.0750
     15 C          -9.2216  -19.1436   23.8235 C.3     1  UNL1        0.0474
     16 C          -9.5302  -20.5595   24.2110 C.3     1  UNL1        0.0713
     17 N         -10.2776  -20.0671   25.4148 N.3     1  UNL1       -0.2973
     18 C          -9.9690  -18.6513   25.0273 C.3     1  UNL1        0.0713
     19 H          -9.8693  -20.3538   26.3044 H       1  UNL1        0.1233
@<TRIPOS>BOND
     1     2     3    1
     2     3     4    1
     3     3     1    1
     4     1     5    1
     5     5     6    1
     6     6     7   ar
     7     7     8   ar
     8     8     9   ar
     9     9    10    1
    10     9    11   ar
    11    11    12    1
    12    11    13   ar
    13     1    14    1
    14    14    15    1
    15    15    16    1
    16    16    17    1
    17    17    18    1
    18    13     6   ar
    19    18    15    1
    20    17    19    1
@<TRIPOS>MOLECULE
*****
 19 20 0 0 0
SMALL
GASTEIGER

@<TRIPOS>ATOM
      1 N          -8.0618  -19.3252   22.3056 N.3     1  UNL1       -0.2702
      2 C         -10.5923  -19.7377   21.8852 C.3     1  UNL1        0.0173
      3 C          -9.3951  -19.8172   22.7855 C.3     1  UNL1        0.0579
      4 C          -9.5312  -20.3888   24.1657 C.3     1  UNL1        0.0173
      5 C          -6.8886  -20.2587   22.2637 C.3     1  UNL1        0.0991
      6 C          -5.5791  -19.7928   21.6995 C.ar    1  UNL1       -0.0053
      7 C          -5.2302  -20.0886   20.2710 C.ar    1  UNL1       -0.0020
      8 C          -3.9208  -19.6227   19.7069 C.ar    1  UNL1        0.0120
      9 C          -2.9602  -18.8609   20.5713 C.ar    1  UNL1        0.0682
     10 CL         -1.6508  -18.3950   20.0071 Cl      1  UNL1       -0.0814
     11 C          -3.3092  -18.5651   21.9998 C.ar    1  UNL1        0.0679
     12 CL         -2.3486  -17.8034   22.8642 Cl      1  UNL1       -0.0814
     13 C          -4.6186  -19.0311   22.5639 C.ar    1  UNL1        0.0093
     14 C          -7.9019  -17.8994   21.8676 C.3     1  UNL1        0.0750
     15 C          -8.1436  -16.7841   22.8411 C.3     1  UNL1        0.0474
     16 C          -7.3423  -15.6172   23.3375 C.3     1  UNL1        0.0713
     17 N          -8.4854  -15.2069   24.2178 N.3     1  UNL1       -0.2973
     18 C          -9.2866  -16.3738   23.7215 C.3     1  UNL1        0.0713
     19 H          -8.8851  -14.2979   23.9846 H       1  UNL1        0.1233
@<TRIPOS>BOND
     1     2     3    1
     2     3     4    1
     3     3     1    1
     4     1     5    1
     5     5     6    1
     6     6     7   ar
     7     7     8   ar
     8     8     9   ar
     9     9    10    1
    10     9    11   ar
    11    11    12    1
    12    11    13   ar
    13     1    14    1
    14    14    15    1
    15    15    16    1
    16    16    17    1
    17    17    18    1
    18    13     6   ar
    19    18    15    1
    20    17    19    1
@<TRIPOS>MOLECULE
*****
 19 20 0 0 0
SMALL
GASTEIGER

@<TRIPOS>ATOM
      1 N          -8.7194  -18.6314   21.9657 N.3     1  UNL1       -0.2702
      2 C          -8.1661  -16.1450   22.4774 C.3     1  UNL1        0.0173
      3 C          -8.8101  -17.4406   22.8733 C.3     1  UNL1        0.0579
      4 C          -9.5448  -17.5454   24.1768 C.3     1  UNL1        0.0173
      5 C          -7.7545  -19.7376   22.2741 C.3     1  UNL1        0.0991
      6 C          -6.3316  -19.6432   21.8087 C.ar    1  UNL1       -0.0053
      7 C          -5.8676  -20.4654   20.6431 C.ar    1  UNL1       -0.0020
      8 C          -4.4447  -20.3709   20.1778 C.ar    1  UNL1        0.0120
      9 C          -3.4859  -19.4543   20.8780 C.ar    1  UNL1        0.0682
     10 CL         -2.0630  -19.3599   20.4127 Cl      1  UNL1       -0.0814
     11 C          -3.9499  -18.6321   22.0436 C.ar    1  UNL1        0.0679
     12 CL         -2.9910  -17.7155   22.7439 Cl      1  UNL1       -0.0814
     13 C          -5.3727  -18.7266   22.5090 C.ar    1  UNL1        0.0093
     14 C          -9.5936  -18.7159   20.7497 C.3     1  UNL1        0.0750
     15 C         -10.8568  -17.9103   20.6767 C.3     1  UNL1        0.0474
     16 C         -11.2716  -16.6491   19.9786 C.3     1  UNL1        0.0713
     17 N         -12.6432  -16.7710   20.5734 N.3     1  UNL1       -0.2973
     18 C         -12.2284  -18.0322   21.2715 C.3     1  UNL1        0.0713
     19 H         -13.3853  -16.9005   19.8857 H       1  UNL1        0.1233
@<TRIPOS>BOND
     1     2     3    1
     2     3     4    1
     3     3     1    1
     4     1     5    1
     5     5     6    1
     6     6     7   ar
     7     7     8   ar
     8     8     9   ar
     9     9    10    1
    10     9    11   ar
    11    11    12    1
    12    11    13   ar
    13     1    14    1
    14    14    15    1
    15    15    16    1
    16    16    17    1
    17    17    18    1
    18    13     6   ar
    19    18    15    1
    20    17    19    1
@<TRIPOS>MOLECULE
*****
 19 20 0 0 0
SMALL
GASTEIGER

@<TRIPOS>ATOM
      1 N         -10.0339  -18.1435   22.1832 N.3     1  UNL1       -0.2702
      2 C         -10.5393  -19.1837   19.8567 C.3     1  UNL1        0.0173
      3 C          -9.5571  -18.8119   20.9279 C.3     1  UNL1        0.0579
      4 C          -8.0984  -19.1086   20.7437 C.3     1  UNL1        0.0173
      5 C          -9.7522  -16.6879   22.4113 C.3     1  UNL1        0.0991
      6 C          -8.6978  -16.2730   23.3943 C.ar    1  UNL1       -0.0053
      7 C          -7.2683  -16.1550   22.9556 C.ar    1  UNL1       -0.0020
      8 C          -6.2140  -15.7401   23.9386 C.ar    1  UNL1        0.0120
      9 C          -6.5893  -15.4433   25.3603 C.ar    1  UNL1        0.0682
     10 CL         -5.5349  -15.0284   26.3433 Cl      1  UNL1       -0.0814
     11 C          -8.0188  -15.5613   25.7989 C.ar    1  UNL1        0.0679
     12 CL         -8.3940  -15.2645   27.2206 Cl      1  UNL1       -0.0814
     13 C          -9.0731  -15.9762   24.8159 C.ar    1  UNL1        0.0093
     14 C         -10.7923  -18.9306   23.2105 C.3     1  UNL1        0.0750
     15 C         -12.1638  -18.4912   23.6298 C.3     1  UNL1        0.0474
     16 C         -13.0256  -18.7127   24.8374 C.3     1  UNL1        0.0713
     17 N         -14.1035  -17.8699   24.2227 N.3     1  UNL1       -0.2973
     18 C         -13.2417  -17.6484   23.0151 C.3     1  UNL1        0.0713
     19 H         -14.3156  -17.0196   24.7445 H       1  UNL1        0.1233
@<TRIPOS>BOND
     1     2     3    1
     2     3     4    1
     3     3     1    1
     4     1     5    1
     5     5     6    1
     6     6     7   ar
     7     7     8   ar
     8     8     9   ar
     9     9    10    1
    10     9    11   ar
    11    11    12    1
    12    11    13   ar
    13     1    14    1
    14    14    15    1
    15    15    16    1
    16    16    17    1
    17    17    18    1
    18    13     6   ar
    19    18    15    1
    20    17    19    1
@<TRIPOS>MOLECULE
*****
 19 20 0 0 0
SMALL
GASTEIGER

@<TRIPOS>ATOM
      1 N          -7.2016  -18.6554   22.2717 N.3     1  UNL1       -0.2702
      2 C          -4.6278  -18.5771   22.6175 C.3     1  UNL1        0.0173
      3 C          -5.8240  -19.1011   21.8796 C.3     1  UNL1        0.0579
      4 C          -5.6427  -20.0708   20.7497 C.3     1  UNL1        0.0173
      5 C          -8.2271  -19.6676   22.6884 C.3     1  UNL1        0.0991
      6 C          -9.6223  -19.2284   23.0213 C.ar    1  UNL1       -0.0053
      7 C         -10.1204  -19.3197   24.4332 C.ar    1  UNL1       -0.0020
      8 C         -11.5155  -18.8806   24.7661 C.ar    1  UNL1        0.0120
      9 C         -12.4124  -18.3501   23.6871 C.ar    1  UNL1        0.0682
     10 CL        -13.8076  -17.9110   24.0201 Cl      1  UNL1       -0.0814
     11 C         -11.9143  -18.2589   22.2752 C.ar    1  UNL1        0.0679
     12 CL        -12.8112  -17.7284   21.1963 Cl      1  UNL1       -0.0814
     13 C         -10.5192  -18.6980   21.9423 C.ar    1  UNL1        0.0093
     14 C          -7.5535  -17.1974   22.2471 C.3     1  UNL1        0.0750
     15 C          -7.4136  -16.3711   23.4911 C.3     1  UNL1        0.0474
     16 C          -6.3080  -15.5720   24.1148 C.3     1  UNL1        0.0713
     17 N          -7.2158  -15.2024   25.2504 N.3     1  UNL1       -0.2973
     18 C          -8.3214  -16.0015   24.6266 C.3     1  UNL1        0.0713
     19 H          -7.4114  -14.2037   25.3190 H       1  UNL1        0.1233
@<TRIPOS>BOND
     1     2     3    1
     2     3     4    1
     3     3     1    1
     4     1     5    1
     5     5     6    1
     6     6     7   ar
     7     7     8   ar
     8     8     9   ar
     9     9    10    1
    10     9    11   ar
    11    11    12    1
    12    11    13   ar
    13     1    14    1
    14    14    15    1
    15    15    16    1
    16    16    17    1
    17    17    18    1
    18    13     6   ar
    19    18    15    1
    20    17    19    1
@<TRIPOS>MOLECULE
*****
 19 20 0 0 0
SMALL
GASTEIGER

@<TRIPOS>ATOM
      1 N         -10.3003  -17.5261   21.9349 N.3     1  UNL1       -0.2702
      2 C         -12.7384  -17.6936   22.8170 C.3     1  UNL1        0.0173
      3 C         -11.7606  -17.2186   21.7833 C.3     1  UNL1        0.0579
      4 C         -12.2432  -16.4363   20.5980 C.3     1  UNL1        0.0173
      5 C          -9.3023  -16.4088   22.0083 C.3     1  UNL1        0.0991
      6 C          -8.5934  -16.1198   23.2983 C.ar    1  UNL1       -0.0053
      7 C          -9.3723  -16.0217   24.5764 C.ar    1  UNL1       -0.0020
      8 C          -8.6635  -15.7327   25.8664 C.ar    1  UNL1        0.0120
      9 C          -7.1757  -15.5419   25.8782 C.ar    1  UNL1        0.0682
     10 CL         -6.4668  -15.2530   27.1682 Cl      1  UNL1       -0.0814
     11 C          -6.3968  -15.6401   24.6000 C.ar    1  UNL1        0.0679
     12 CL         -4.9090  -15.4492   24.6118 Cl      1  UNL1       -0.0814
     13 C          -7.1057  -15.9290   23.3101 C.ar    1  UNL1        0.0093
     14 C          -9.8381  -18.9510   22.0131 C.3     1  UNL1        0.0750
     15 C          -8.5125  -19.3426   21.4306 C.3     1  UNL1        0.0474
     16 C          -7.9675  -19.4937   20.0413 C.3     1  UNL1        0.0713
     17 N          -6.6377  -19.8962   20.6067 N.3     1  UNL1       -0.2973
     18 C          -7.1827  -19.7451   21.9960 C.3     1  UNL1        0.0713
     19 H          -5.8787  -19.2521   20.3848 H       1  UNL1        0.1233
@<TRIPOS>BOND
     1     2     3    1
     2     3     4    1
     3     3     1    1
     4     1     5    1
     5     5     6    1
     6     6     7   ar
     7     7     8   ar
     8     8     9   ar
     9     9    10    1
    10     9    11   ar
    11    11    12    1
    12    11    13   ar
    13     1    14    1
    14    14    15    1
    15    15    16    1
    16    16    17    1
    17    17    18    1
    18    13     6   ar
    19    18    15    1
    20    17    19    1
