@<TRIPOS>MOLECULE
*****
 28 31 0 0 0
SMALL
GASTEIGER

@<TRIPOS>ATOM
      1 N           4.9066    2.0031   18.4902 N.3     1  UNL1       -0.3205
      2 C           3.4341    1.7734   18.6602 C.3     1  UNL1        0.0766
      3 C           2.3646    2.8232   18.5957 C.3     1  UNL1        0.1079
      4 N           1.0420    2.1520   18.8202 N.pl3   1  UNL1       -0.2914
      5 C           1.2941    0.6874   19.0235 C.3     1  UNL1        0.0980
      6 C           2.7724    0.4534   18.9246 C.3     1  UNL1        0.0602
      7 H           5.0788    2.9942   18.3213 H       1  UNL1        0.1189
      8 H           5.2462    1.4590   17.6971 H       1  UNL1        0.1189
      9 C           3.4671   -0.8686   19.0655 C.ar    1  UNL1        0.0103
     10 C           3.4558   -1.5852   20.3832 C.ar    1  UNL1        0.0300
     11 C           4.1505   -2.9071   20.5240 C.ar    1  UNL1        0.1672
     12 F           4.1392   -3.6237   21.8418 F       1  UNL1       -0.2018
     13 C           4.8565   -3.5124   19.3472 C.ar    1  UNL1        0.1696
     14 F           5.5512   -4.8344   19.4880 F       1  UNL1       -0.2017
     15 C           4.8678   -2.7958   18.0294 C.ar    1  UNL1        0.0612
     16 C           4.1731   -1.4740   17.8886 C.ar    1  UNL1        0.1386
     17 F           4.1844   -0.7573   16.5708 F       1  UNL1       -0.2044
     18 C          -0.2974    2.8271   18.8382 C.ar    1  UNL1        0.1350
     19 C          -1.1223    2.8236   20.0910 C.ar    1  UNL1        0.0535
     20 C          -2.4616    3.4986   20.1089 C.ar    1  UNL1        0.0863
     21 N          -2.9762    4.1771   18.8741 N.ar    1  UNL1       -0.2239
     22 C          -2.1513    4.1807   17.6213 C.ar    1  UNL1        0.2000
     23 N          -0.8119    3.5057   17.6033 N.ar    1  UNL1       -0.2090
     24 C          -3.2866    3.4951   21.3618 C.ar    1  UNL1        0.0248
     25 C          -4.7277    3.0926   21.4674 C.ar    1  UNL1        0.0090
     26 C          -5.1469    3.2422   22.8998 C.ar    1  UNL1        0.0355
     27 S          -3.9649    3.7372   23.6795 S.2     1  UNL1       -0.0859
     28 C          -2.8152    3.8935   22.7289 C.ar    1  UNL1        0.0369
@<TRIPOS>BOND
     1     1     2    1
     2     2     3    1
     3     3     4    1
     4     4    18    1
     5    18    19   ar
     6    19    20   ar
     7    20    24    1
     8    24    25   ar
     9    25    26   ar
    10    26    27   ar
    11    27    28   ar
    12    20    21   ar
    13    21    22   ar
    14    22    23   ar
    15     4     5    1
    16     5     6    1
    17     6     9    1
    18     9    10   ar
    19    10    11   ar
    20    11    12    1
    21    11    13   ar
    22    13    14    1
    23    13    15   ar
    24    15    16   ar
    25    16    17    1
    26     6     2    1
    27    16     9   ar
    28    23    18   ar
    29    28    24   ar
    30     1     7    1
    31     1     8    1
@<TRIPOS>MOLECULE
*****
 28 31 0 0 0
SMALL
GASTEIGER

@<TRIPOS>ATOM
      1 N           0.5916    1.0404   18.1146 N.3     1  UNL1       -0.3205
      2 C           0.8285    1.0433   19.5957 C.3     1  UNL1        0.0766
      3 C           0.0089    1.7731   20.6183 C.3     1  UNL1        0.1079
      4 N           0.6005    1.4978   21.9690 N.pl3   1  UNL1       -0.2914
      5 C           1.7858    0.5979   21.7812 C.3     1  UNL1        0.0980
      6 C           1.9268    0.3171   20.3145 C.3     1  UNL1        0.0602
      7 H          -0.2220    1.6166   17.8993 H       1  UNL1        0.1189
      8 H           0.4248    0.0849   17.7989 H       1  UNL1        0.1189
      9 C           2.9809   -0.5397   19.6782 C.ar    1  UNL1        0.0103
     10 C           2.8442   -2.0333   19.6948 C.ar    1  UNL1        0.0300
     11 C           3.8983   -2.8901   19.0585 C.ar    1  UNL1        0.1672
     12 F           3.7616   -4.3837   19.0751 F       1  UNL1       -0.2018
     13 C           5.0890   -2.2531   18.4056 C.ar    1  UNL1        0.1696
     14 F           6.1431   -3.1099   17.7693 F       1  UNL1       -0.2017
     15 C           5.2258   -0.7594   18.3890 C.ar    1  UNL1        0.0612
     16 C           4.1717    0.0972   19.0252 C.ar    1  UNL1        0.1386
     17 F           4.3084    1.5910   19.0086 F       1  UNL1       -0.2044
     18 C           0.0954    2.0292   23.2777 C.ar    1  UNL1        0.1350
     19 C           0.3775    1.2842   24.5486 C.ar    1  UNL1        0.0535
     20 C          -0.1276    1.8156   25.8573 C.ar    1  UNL1        0.0863
     21 N          -0.9147    3.0919   25.8949 N.ar    1  UNL1       -0.2239
     22 C          -1.1968    3.8368   24.6239 C.ar    1  UNL1        0.2000
     23 N          -0.6917    3.3055   23.3153 N.ar    1  UNL1       -0.2090
     24 C           0.1544    1.0706   27.1283 C.ar    1  UNL1        0.0248
     25 C          -0.8676    0.4316   28.0211 C.ar    1  UNL1        0.0090
     26 C          -0.1456   -0.2001   29.1743 C.ar    1  UNL1        0.0355
     27 S           1.3227    0.0485   28.9942 S.2     1  UNL1       -0.0859
     28 C           1.5081    0.8338   27.7297 C.ar    1  UNL1        0.0369
@<TRIPOS>BOND
     1     1     2    1
     2     2     3    1
     3     3     4    1
     4     4    18    1
     5    18    19   ar
     6    19    20   ar
     7    20    24    1
     8    24    25   ar
     9    25    26   ar
    10    26    27   ar
    11    27    28   ar
    12    20    21   ar
    13    21    22   ar
    14    22    23   ar
    15     4     5    1
    16     5     6    1
    17     6     9    1
    18     9    10   ar
    19    10    11   ar
    20    11    12    1
    21    11    13   ar
    22    13    14    1
    23    13    15   ar
    24    15    16   ar
    25    16    17    1
    26     6     2    1
    27    16     9   ar
    28    23    18   ar
    29    28    24   ar
    30     1     7    1
    31     1     8    1
@<TRIPOS>MOLECULE
*****
 28 31 0 0 0
SMALL
GASTEIGER

@<TRIPOS>ATOM
      1 N         -11.0885  -19.1963   18.9732 N.3     1  UNL1       -0.3205
      2 C          -9.8244  -19.3146   19.7719 C.3     1  UNL1        0.0766
      3 C          -8.4722  -19.6780   19.2338 C.3     1  UNL1        0.1079
      4 N          -7.5026  -19.6784   20.3784 N.pl3   1  UNL1       -0.2914
      5 C          -8.2555  -19.3152   21.6238 C.3     1  UNL1        0.0980
      6 C          -9.6904  -19.0904   21.2491 C.3     1  UNL1        0.0602
      7 H         -10.8923  -19.4023   17.9937 H       1  UNL1        0.1189
      8 H         -11.4544  -18.2477   19.0545 H       1  UNL1        0.1189
      9 C         -10.7972  -18.7084   22.1868 C.ar    1  UNL1        0.0103
     10 C         -11.5978  -17.4652   21.9351 C.ar    1  UNL1        0.0300
     11 C         -12.7046  -17.0833   22.8728 C.ar    1  UNL1        0.1672
     12 F         -13.5052  -15.8401   22.6212 F       1  UNL1       -0.2018
     13 C         -13.0106  -17.9445   24.0621 C.ar    1  UNL1        0.1696
     14 F         -14.1173  -17.5626   24.9998 F       1  UNL1       -0.2017
     15 C         -12.2099  -19.1878   24.3138 C.ar    1  UNL1        0.0612
     16 C         -11.1033  -19.5697   23.3761 C.ar    1  UNL1        0.1386
     17 F         -10.3025  -20.8130   23.6277 F       1  UNL1       -0.2044
     18 C          -6.0373  -19.9876   20.2925 C.ar    1  UNL1        0.1350
     19 C          -5.0274  -18.8983   20.5009 C.ar    1  UNL1        0.0535
     20 C          -3.5622  -19.2075   20.4150 C.ar    1  UNL1        0.0863
     21 N          -3.1068  -20.6061   20.1206 N.ar    1  UNL1       -0.2239
     22 C          -4.1167  -21.6954   19.9122 C.ar    1  UNL1        0.2000
     23 N          -5.5819  -21.3862   19.9981 N.ar    1  UNL1       -0.2090
     24 C          -2.5522  -18.1182   20.6235 C.ar    1  UNL1        0.0248
     25 C          -2.6252  -17.0343   21.6579 C.ar    1  UNL1        0.0090
     26 C          -1.4101  -16.1678   21.5078 C.ar    1  UNL1        0.0355
     27 S          -0.5860  -16.7161   20.3807 S.2     1  UNL1       -0.0859
     28 C          -1.2919  -17.9215   19.8342 C.ar    1  UNL1        0.0369
@<TRIPOS>BOND
     1     1     2    1
     2     2     3    1
     3     3     4    1
     4     4    18    1
     5    18    19   ar
     6    19    20   ar
     7    20    24    1
     8    24    25   ar
     9    25    26   ar
    10    26    27   ar
    11    27    28   ar
    12    20    21   ar
    13    21    22   ar
    14    22    23   ar
    15     4     5    1
    16     5     6    1
    17     6     9    1
    18     9    10   ar
    19    10    11   ar
    20    11    12    1
    21    11    13   ar
    22    13    14    1
    23    13    15   ar
    24    15    16   ar
    25    16    17    1
    26     6     2    1
    27    16     9   ar
    28    23    18   ar
    29    28    24   ar
    30     1     7    1
    31     1     8    1
@<TRIPOS>MOLECULE
*****
 28 31 0 0 0
SMALL
GASTEIGER

@<TRIPOS>ATOM
      1 N           6.4525   -0.8894   20.1634 N.3     1  UNL1       -0.3205
      2 C           6.1383   -1.8621   21.2612 C.3     1  UNL1        0.0766
      3 C           7.1060   -2.8142   21.8992 C.3     1  UNL1        0.1079
      4 N           6.3670   -3.5941   22.9461 N.pl3   1  UNL1       -0.2914
      5 C           4.9426   -3.1239   22.9550 C.3     1  UNL1        0.0980
      6 C           4.8013   -2.0535   21.9138 C.3     1  UNL1        0.0602
      7 H           7.4369   -0.9704   19.9089 H       1  UNL1        0.1189
      8 H           6.2614    0.0595   20.4850 H       1  UNL1        0.1189
      9 C           3.5437   -1.3057   21.5831 C.ar    1  UNL1        0.0103
     10 C           3.0127   -0.2739   22.5336 C.ar    1  UNL1        0.0300
     11 C           1.7551    0.4739   22.2029 C.ar    1  UNL1        0.1672
     12 F           1.2241    1.5056   23.1534 F       1  UNL1       -0.2018
     13 C           1.0286    0.1898   20.9217 C.ar    1  UNL1        0.1696
     14 F          -0.2290    0.9376   20.5910 F       1  UNL1       -0.2017
     15 C           1.5596   -0.8420   19.9712 C.ar    1  UNL1        0.0612
     16 C           2.8171   -1.5897   20.3019 C.ar    1  UNL1        0.1386
     17 F           3.3482   -2.6215   19.3514 F       1  UNL1       -0.2044
     18 C           6.9501   -4.6574   23.8289 C.ar    1  UNL1        0.1350
     19 C           6.8323   -4.5422   25.3198 C.ar    1  UNL1        0.0535
     20 C           7.4154   -5.6055   26.2026 C.ar    1  UNL1        0.0863
     21 N           8.1162   -6.7840   25.5945 N.ar    1  UNL1       -0.2239
     22 C           8.2340   -6.8993   24.1036 C.ar    1  UNL1        0.2000
     23 N           7.6509   -5.8360   23.2208 N.ar    1  UNL1       -0.2090
     24 C           7.2977   -5.4902   27.6936 C.ar    1  UNL1        0.0248
     25 C           6.5532   -4.4228   28.4393 C.ar    1  UNL1        0.0090
     26 C           6.6991   -4.6951   29.9072 C.ar    1  UNL1        0.0355
     27 S           7.5339   -5.9309   30.0686 S.2     1  UNL1       -0.0859
     28 C           7.9038   -6.4223   28.7005 C.ar    1  UNL1        0.0369
@<TRIPOS>BOND
     1     1     2    1
     2     2     3    1
     3     3     4    1
     4     4    18    1
     5    18    19   ar
     6    19    20   ar
     7    20    24    1
     8    24    25   ar
     9    25    26   ar
    10    26    27   ar
    11    27    28   ar
    12    20    21   ar
    13    21    22   ar
    14    22    23   ar
    15     4     5    1
    16     5     6    1
    17     6     9    1
    18     9    10   ar
    19    10    11   ar
    20    11    12    1
    21    11    13   ar
    22    13    14    1
    23    13    15   ar
    24    15    16   ar
    25    16    17    1
    26     6     2    1
    27    16     9   ar
    28    23    18   ar
    29    28    24   ar
    30     1     7    1
    31     1     8    1
@<TRIPOS>MOLECULE
*****
 28 31 0 0 0
SMALL
GASTEIGER

@<TRIPOS>ATOM
      1 N           7.3488   -1.4274   26.2344 N.3     1  UNL1       -0.3205
      2 C           6.7923   -2.3294   25.1730 C.3     1  UNL1        0.0766
      3 C           6.1370   -1.8902   23.8972 C.3     1  UNL1        0.1079
      4 N           5.7331   -3.1184   23.1367 N.pl3   1  UNL1       -0.2914
      5 C           6.1388   -4.3168   23.9425 C.3     1  UNL1        0.0980
      6 C           6.7934   -3.8292   25.2010 C.3     1  UNL1        0.0602
      7 H           7.2149   -0.4546   25.9583 H       1  UNL1        0.1189
      8 H           8.3449   -1.6137   26.3509 H       1  UNL1        0.1189
      9 C           7.3512   -4.6902   26.2953 C.ar    1  UNL1        0.0103
     10 C           6.6216   -4.8107   27.6004 C.ar    1  UNL1        0.0300
     11 C           7.1794   -5.6717   28.6948 C.ar    1  UNL1        0.1672
     12 F           6.4499   -5.7921   29.9998 F       1  UNL1       -0.2018
     13 C           8.4667   -6.4122   28.4840 C.ar    1  UNL1        0.1696
     14 F           9.0244   -7.2732   29.5783 F       1  UNL1       -0.2017
     15 C           9.1963   -6.2918   27.1788 C.ar    1  UNL1        0.0612
     16 C           8.6385   -5.4308   26.0846 C.ar    1  UNL1        0.1386
     17 F           9.3680   -5.3103   24.7794 F       1  UNL1       -0.2044
     18 C           5.0444   -3.1438   21.8043 C.ar    1  UNL1        0.1350
     19 C           4.1011   -2.0404   21.4265 C.ar    1  UNL1        0.0535
     20 C           3.4125   -2.0658   20.0942 C.ar    1  UNL1        0.0863
     21 N           3.6672   -3.1946   19.1397 N.ar    1  UNL1       -0.2239
     22 C           4.6105   -4.2979   19.5175 C.ar    1  UNL1        0.2000
     23 N           5.2991   -4.2725   20.8498 N.ar    1  UNL1       -0.2090
     24 C           2.4692   -0.9624   19.7164 C.ar    1  UNL1        0.0248
     25 C           1.1901   -0.6166   20.4194 C.ar    1  UNL1        0.0090
     26 C           0.5697    0.5484   19.7066 C.ar    1  UNL1        0.0355
     27 S           1.4655    0.9226   18.5630 S.2     1  UNL1       -0.0859
     28 C           2.6394   -0.0112   18.5691 C.ar    1  UNL1        0.0369
@<TRIPOS>BOND
     1     1     2    1
     2     2     3    1
     3     3     4    1
     4     4    18    1
     5    18    19   ar
     6    19    20   ar
     7    20    24    1
     8    24    25   ar
     9    25    26   ar
    10    26    27   ar
    11    27    28   ar
    12    20    21   ar
    13    21    22   ar
    14    22    23   ar
    15     4     5    1
    16     5     6    1
    17     6     9    1
    18     9    10   ar
    19    10    11   ar
    20    11    12    1
    21    11    13   ar
    22    13    14    1
    23    13    15   ar
    24    15    16   ar
    25    16    17    1
    26     6     2    1
    27    16     9   ar
    28    23    18   ar
    29    28    24   ar
    30     1     7    1
    31     1     8    1
@<TRIPOS>MOLECULE
*****
 28 31 0 0 0
SMALL
GASTEIGER

@<TRIPOS>ATOM
      1 N           3.2112    3.3803   20.6486 N.3     1  UNL1       -0.3205
      2 C           1.7891    2.9032   20.6381 C.3     1  UNL1        0.0766
      3 C           0.5914    3.6915   21.0787 C.3     1  UNL1        0.1079
      4 N          -0.6229    2.8296   20.8981 N.pl3   1  UNL1       -0.2914
      5 C          -0.1756    1.5086   20.3458 C.3     1  UNL1        0.0980
      6 C           1.3150    1.5541   20.1851 C.3     1  UNL1        0.0602
      7 H           3.2468    4.3353   21.0051 H       1  UNL1        0.1189
      8 H           3.5845    3.3574   19.6997 H       1  UNL1        0.1189
      9 C           2.1798    0.4452   19.6631 C.ar    1  UNL1        0.0103
     10 C           2.5822    0.4247   18.2182 C.ar    1  UNL1        0.0300
     11 C           3.4470   -0.6843   17.6962 C.ar    1  UNL1        0.1672
     12 F           3.8494   -0.7048   16.2514 F       1  UNL1       -0.2018
     13 C           3.9093   -1.7726   18.6191 C.ar    1  UNL1        0.1696
     14 F           4.7741   -2.8815   18.0971 F       1  UNL1       -0.2017
     15 C           3.5069   -1.7521   20.0640 C.ar    1  UNL1        0.0612
     16 C           2.6422   -0.6432   20.5859 C.ar    1  UNL1        0.1386
     17 F           2.2397   -0.6226   22.0309 F       1  UNL1       -0.2044
     18 C          -2.0362    3.2201   21.2142 C.ar    1  UNL1        0.1350
     19 C          -2.4260    3.5481   22.6250 C.ar    1  UNL1        0.0535
     20 C          -3.8393    3.9387   22.9411 C.ar    1  UNL1        0.0863
     21 N          -4.8629    4.0012   21.8464 N.ar    1  UNL1       -0.2239
     22 C          -4.4731    3.6731   20.4356 C.ar    1  UNL1        0.2000
     23 N          -3.0598    3.2826   20.1195 N.ar    1  UNL1       -0.2090
     24 C          -4.2292    4.2667   24.3520 C.ar    1  UNL1        0.0248
     25 C          -3.6140    3.6914   25.5932 C.ar    1  UNL1        0.0090
     26 C          -4.3073    4.2968   26.7776 C.ar    1  UNL1        0.0355
     27 S          -5.3510    5.2463   26.2684 S.2     1  UNL1       -0.0859
     28 C          -5.3027    5.2277   24.7693 C.ar    1  UNL1        0.0369
@<TRIPOS>BOND
     1     1     2    1
     2     2     3    1
     3     3     4    1
     4     4    18    1
     5    18    19   ar
     6    19    20   ar
     7    20    24    1
     8    24    25   ar
     9    25    26   ar
    10    26    27   ar
    11    27    28   ar
    12    20    21   ar
    13    21    22   ar
    14    22    23   ar
    15     4     5    1
    16     5     6    1
    17     6     9    1
    18     9    10   ar
    19    10    11   ar
    20    11    12    1
    21    11    13   ar
    22    13    14    1
    23    13    15   ar
    24    15    16   ar
    25    16    17    1
    26     6     2    1
    27    16     9   ar
    28    23    18   ar
    29    28    24   ar
    30     1     7    1
    31     1     8    1
@<TRIPOS>MOLECULE
*****
 28 31 0 0 0
SMALL
GASTEIGER

@<TRIPOS>ATOM
      1 N           6.9883   -0.1475   22.5971 N.3     1  UNL1       -0.3205
      2 C           6.8541   -1.6350   22.7355 C.3     1  UNL1        0.0766
      3 C           7.4293   -2.4735   23.8382 C.3     1  UNL1        0.1079
      4 N           7.0518   -3.9020   23.5796 N.pl3   1  UNL1       -0.2914
      5 C           6.2432   -3.9464   22.3170 C.3     1  UNL1        0.0980
      6 C           6.1210   -2.5454   21.7953 C.3     1  UNL1        0.0602
      7 H           7.5371    0.2182   23.3753 H       1  UNL1        0.1189
      8 H           6.0620    0.2796   22.6040 H       1  UNL1        0.1189
      9 C           5.3935   -2.1280   20.5517 C.ar    1  UNL1        0.0103
     10 C           3.9593   -1.6957   20.6312 C.ar    1  UNL1        0.0300
     11 C           3.2318   -1.2783   19.3876 C.ar    1  UNL1        0.1672
     12 F           1.7977   -0.8460   19.4670 F       1  UNL1       -0.2018
     13 C           3.9384   -1.2932   18.0646 C.ar    1  UNL1        0.1696
     14 F           3.2109   -0.8758   16.8210 F       1  UNL1       -0.2017
     15 C           5.3726   -1.7256   17.9851 C.ar    1  UNL1        0.0612
     16 C           6.1001   -2.1430   19.2286 C.ar    1  UNL1        0.1386
     17 F           7.5343   -2.5753   19.1492 F       1  UNL1       -0.2044
     18 C           7.4184   -5.0793   24.4338 C.ar    1  UNL1        0.1350
     19 C           7.3722   -4.9648   25.9286 C.ar    1  UNL1        0.0535
     20 C           7.7389   -6.1422   26.7827 C.ar    1  UNL1        0.0863
     21 N           8.1518   -7.4340   26.1418 N.ar    1  UNL1       -0.2239
     22 C           8.1981   -7.5485   24.6470 C.ar    1  UNL1        0.2000
     23 N           7.8314   -6.3712   23.7929 N.ar    1  UNL1       -0.2090
     24 C           7.6926   -6.0277   28.2776 C.ar    1  UNL1        0.0248
     25 C           6.6071   -5.3718   29.0785 C.ar    1  UNL1        0.0090
     26 C           6.9674   -5.4878   30.5300 C.ar    1  UNL1        0.0355
     27 S           8.2757   -6.2154   30.6262 S.2     1  UNL1       -0.0859
     28 C           8.7239   -6.5490   29.2341 C.ar    1  UNL1        0.0369
@<TRIPOS>BOND
     1     1     2    1
     2     2     3    1
     3     3     4    1
     4     4    18    1
     5    18    19   ar
     6    19    20   ar
     7    20    24    1
     8    24    25   ar
     9    25    26   ar
    10    26    27   ar
    11    27    28   ar
    12    20    21   ar
    13    21    22   ar
    14    22    23   ar
    15     4     5    1
    16     5     6    1
    17     6     9    1
    18     9    10   ar
    19    10    11   ar
    20    11    12    1
    21    11    13   ar
    22    13    14    1
    23    13    15   ar
    24    15    16   ar
    25    16    17    1
    26     6     2    1
    27    16     9   ar
    28    23    18   ar
    29    28    24   ar
    30     1     7    1
    31     1     8    1
@<TRIPOS>MOLECULE
*****
 28 31 0 0 0
SMALL
GASTEIGER

@<TRIPOS>ATOM
      1 N          -1.1841    6.1864   26.3115 N.3     1  UNL1       -0.3205
      2 C          -1.0577    4.7675   26.7811 C.3     1  UNL1        0.0766
      3 C          -0.0363    4.2465   27.7482 C.3     1  UNL1        0.1079
      4 N          -0.2779    2.7773   27.9309 N.pl3   1  UNL1       -0.2914
      5 C          -1.4486    2.3904   27.0768 C.3     1  UNL1        0.0980
      6 C          -1.9306    3.6203   26.3661 C.3     1  UNL1        0.0602
      7 H          -0.4622    6.7561   26.7526 H       1  UNL1        0.1189
      8 H          -2.1040    6.5475   26.5642 H       1  UNL1        0.1189
      9 C          -3.0831    3.6907   25.4087 C.ar    1  UNL1        0.0103
     10 C          -2.8516    3.4900   23.9403 C.ar    1  UNL1        0.0300
     11 C          -4.0042    3.5605   22.9828 C.ar    1  UNL1        0.1672
     12 F          -3.7727    3.3598   21.5144 F       1  UNL1       -0.2018
     13 C          -5.3881    3.8316   23.4937 C.ar    1  UNL1        0.1696
     14 F          -6.5406    3.9020   22.5362 F       1  UNL1       -0.2017
     15 C          -5.6196    4.0322   24.9622 C.ar    1  UNL1        0.0612
     16 C          -4.4672    3.9618   25.9195 C.ar    1  UNL1        0.1386
     17 F          -4.6986    4.1625   27.3880 F       1  UNL1       -0.2044
     18 C           0.5126    1.8568   28.8130 C.ar    1  UNL1        0.1350
     19 C           0.9122    2.2973   30.1900 C.ar    1  UNL1        0.0535
     20 C           1.7026    1.3768   31.0719 C.ar    1  UNL1        0.0863
     21 N           2.0934    0.0159   30.5769 N.ar    1  UNL1       -0.2239
     22 C           1.6937   -0.4246   29.1999 C.ar    1  UNL1        0.2000
     23 N           0.9033    0.4959   28.3179 N.ar    1  UNL1       -0.2090
     24 C           2.1023    1.8173   32.4490 C.ar    1  UNL1        0.0248
     25 C           3.1181    1.1499   33.3281 C.ar    1  UNL1        0.0090
     26 C           3.2000    1.9227   34.6111 C.ar    1  UNL1        0.0355
     27 S           2.2347    3.0677   34.5250 S.2     1  UNL1       -0.0859
     28 C           1.5564    3.0025   33.1888 C.ar    1  UNL1        0.0369
@<TRIPOS>BOND
     1     1     2    1
     2     2     3    1
     3     3     4    1
     4     4    18    1
     5    18    19   ar
     6    19    20   ar
     7    20    24    1
     8    24    25   ar
     9    25    26   ar
    10    26    27   ar
    11    27    28   ar
    12    20    21   ar
    13    21    22   ar
    14    22    23   ar
    15     4     5    1
    16     5     6    1
    17     6     9    1
    18     9    10   ar
    19    10    11   ar
    20    11    12    1
    21    11    13   ar
    22    13    14    1
    23    13    15   ar
    24    15    16   ar
    25    16    17    1
    26     6     2    1
    27    16     9   ar
    28    23    18   ar
    29    28    24   ar
    30     1     7    1
    31     1     8    1
@<TRIPOS>MOLECULE
*****
 28 31 0 0 0
SMALL
GASTEIGER

@<TRIPOS>ATOM
      1 N           2.3533    0.5723   22.8057 N.3     1  UNL1       -0.3205
      2 C           1.4487    1.0534   21.7101 C.3     1  UNL1        0.0766
      3 C           0.3100    2.0172   21.8664 C.3     1  UNL1        0.1079
      4 N          -0.3185    2.2145   20.5187 N.pl3   1  UNL1       -0.2914
      5 C           0.4318    1.3727   19.5296 C.3     1  UNL1        0.0980
      6 C           1.5240    0.6551   20.2659 C.3     1  UNL1        0.0602
      7 H           2.0773    1.0030   23.6882 H       1  UNL1        0.1189
      8 H           3.3163    0.8289   22.5887 H       1  UNL1        0.1189
      9 C           2.5171   -0.2942   19.6637 C.ar    1  UNL1        0.0103
     10 C           2.5421   -1.7293   20.0990 C.ar    1  UNL1        0.0300
     11 C           3.5352   -2.6786   19.4969 C.ar    1  UNL1        0.1672
     12 F           3.5602   -4.1138   19.9322 F       1  UNL1       -0.2018
     13 C           4.5033   -2.1926   18.4594 C.ar    1  UNL1        0.1696
     14 F           5.4965   -3.1419   17.8572 F       1  UNL1       -0.2017
     15 C           4.4784   -0.7573   18.0240 C.ar    1  UNL1        0.0612
     16 C           3.4853    0.1918   18.6262 C.ar    1  UNL1        0.1386
     17 F           3.4603    1.6271   18.1908 F       1  UNL1       -0.2044
     18 C          -1.4914    3.0985   20.2138 C.ar    1  UNL1        0.1350
     19 C          -2.6189    3.2142   21.1964 C.ar    1  UNL1        0.0535
     20 C          -3.7917    4.0981   20.8914 C.ar    1  UNL1        0.0863
     21 N          -3.8371    4.8665   19.6039 N.ar    1  UNL1       -0.2239
     22 C          -2.7096    4.7509   18.6214 C.ar    1  UNL1        0.2000
     23 N          -1.5368    3.8669   18.9264 N.ar    1  UNL1       -0.2090
     24 C          -4.9192    4.2138   21.8740 C.ar    1  UNL1        0.0248
     25 C          -6.3754    4.3340   21.5348 C.ar    1  UNL1        0.0090
     26 C          -7.1447    4.4241   22.8194 C.ar    1  UNL1        0.0355
     27 S          -6.1638    4.3595   23.9525 S.2     1  UNL1       -0.0859
     28 C          -4.7885    4.2296   23.3682 C.ar    1  UNL1        0.0369
@<TRIPOS>BOND
     1     1     2    1
     2     2     3    1
     3     3     4    1
     4     4    18    1
     5    18    19   ar
     6    19    20   ar
     7    20    24    1
     8    24    25   ar
     9    25    26   ar
    10    26    27   ar
    11    27    28   ar
    12    20    21   ar
    13    21    22   ar
    14    22    23   ar
    15     4     5    1
    16     5     6    1
    17     6     9    1
    18     9    10   ar
    19    10    11   ar
    20    11    12    1
    21    11    13   ar
    22    13    14    1
    23    13    15   ar
    24    15    16   ar
    25    16    17    1
    26     6     2    1
    27    16     9   ar
    28    23    18   ar
    29    28    24   ar
    30     1     7    1
    31     1     8    1
