@<TRIPOS>MOLECULE
*****
 39 43 0 0 0
SMALL
GASTEIGER

@<TRIPOS>ATOM
      1 C           4.9614   -2.8393   19.9571 C.ar    1  UNL1        0.0951
      2 C           6.3573   -2.8737   19.4092 C.ar    1  UNL1        0.1454
      3 F           7.3908   -3.7560   20.0443 F       1  UNL1       -0.2040
      4 C           6.7197   -2.0259   18.2260 C.ar    1  UNL1        0.0312
      5 C           5.6863   -1.1436   17.5909 C.ar    1  UNL1        0.0204
      6 C           4.2904   -1.1091   18.1388 C.ar    1  UNL1        0.0924
      7 C           3.9279   -1.9570   19.3220 C.ar    1  UNL1        0.1598
      8 F           2.5321   -1.9225   19.8698 F       1  UNL1       -0.2026
      9 C           4.5990   -3.6872   21.1403 C.2     1  UNL1        0.2036
     10 O           3.9859   -5.0404   20.9334 O.2     1  UNL1       -0.2863
     11 C           2.5693   -0.0110   23.6065 C.2     1  UNL1        0.0322
     12 C           3.1300    0.1421   24.9892 C.2     1  UNL1        0.2321
     13 N           4.2023   -0.7894   25.4711 N.2     1  UNL1       -0.0311
     14 C           4.7140   -1.8741   24.5702 C.2     1  UNL1        0.3721
     15 N           5.7570   -2.9340   24.7675 N.2     1  UNL1       -0.0307
     16 C           5.8409   -3.7421   23.5066 C.2     1  UNL1        0.2390
     17 C           4.8497   -3.1818   22.5301 C.2     1  UNL1        0.0896
     18 C           4.1532   -2.0273   23.1875 C.2     1  UNL1        0.0774
     19 C           3.0809   -1.0958   22.7056 C.3     1  UNL1        0.0647
     20 C          -0.6479    2.7836   22.1607 C.ar    1  UNL1        0.3201
     21 N           0.0092    3.0193   23.4883 N.ar    1  UNL1       -0.1927
     22 C           1.0816    2.0877   23.9703 C.ar    1  UNL1        0.1050
     23 C           1.4969    0.9205   23.1246 C.ar    1  UNL1        0.0386
     24 C           0.8397    0.6849   21.7969 C.ar    1  UNL1        0.1050
     25 N          -0.2326    1.6164   21.3150 N.ar    1  UNL1       -0.1927
     26 C          -2.6211    3.3030   20.5524 C.3     1  UNL1        0.2559
     27 O          -1.7202    3.7151   21.6787 O.3     1  UNL1       -0.4426
     28 N           3.2569   -0.2268   17.5037 N.pl3   1  UNL1       -0.2128
     29 H           2.8581   -0.4791   16.6396 H       1  UNL1        0.1738
     30 S           2.8311    1.0399   18.1850 S.O2    1  UNL1        0.0737
     31 O           4.2435    1.5420   18.1344 O.2     1  UNL1       -0.1499
     32 O           1.4185    0.5377   18.2357 O.2     1  UNL1       -0.1499
     33 C           2.4052    2.3065   18.8664 C.ar    1  UNL1        0.1274
     34 C           3.1960    2.8373   20.0252 C.ar    1  UNL1        0.0203
     35 C           2.7701    4.1039   20.7065 C.ar    1  UNL1        0.0037
     36 C           1.5533    4.8398   20.2291 C.ar    1  UNL1        0.0297
     37 C           0.7625    4.3090   19.0703 C.ar    1  UNL1        0.1415
     38 F          -0.4543    5.0449   18.5929 F       1  UNL1       -0.2041
     39 C           1.1884    3.0424   18.3889 C.ar    1  UNL1        0.0498
@<TRIPOS>BOND
     1    26    27    1
     2    27    20    1
     3    20    21   ar
     4    21    22   ar
     5    22    23   ar
     6    23    11    1
     7    11    12    2
     8    12    13    1
     9    13    14    2
    10    14    15    1
    11    15    16    2
    12    16    17    1
    13    17     9    1
    14     9    10    2
    15     9     1    1
    16     1     2   ar
    17     2     3    1
    18     2     4   ar
    19     4     5   ar
    20     5     6   ar
    21     6    28    1
    22    28    30    1
    23    30    31    2
    24    30    32    2
    25    30    33    1
    26    33    34   ar
    27    34    35   ar
    28    35    36   ar
    29    36    37   ar
    30    37    38    1
    31    37    39   ar
    32     6     7   ar
    33     7     8    1
    34    17    18    2
    35    18    19    1
    36    23    24   ar
    37    24    25   ar
    38    25    20   ar
    39    19    11    1
    40    18    14    1
    41     7     1   ar
    42    39    33   ar
    43    28    29    1
@<TRIPOS>MOLECULE
*****
 39 43 0 0 0
SMALL
GASTEIGER

@<TRIPOS>ATOM
      1 C           5.5327   -3.4436   21.0662 C.ar    1  UNL1        0.0951
      2 C           4.5526   -2.9214   22.0745 C.ar    1  UNL1        0.1454
      3 F           3.2410   -2.3523   21.6206 F       1  UNL1       -0.2040
      4 C           4.8839   -2.9683   23.5367 C.ar    1  UNL1        0.0312
      5 C           6.1954   -3.5373   23.9906 C.ar    1  UNL1        0.0204
      6 C           7.1756   -4.0595   22.9824 C.ar    1  UNL1        0.0924
      7 C           6.8442   -4.0127   21.5202 C.ar    1  UNL1        0.1598
      8 F           7.8244   -4.5349   20.5120 F       1  UNL1       -0.2026
      9 C           5.2013   -3.3968   19.6040 C.2     1  UNL1        0.2036
     10 O           4.4373   -4.5221   18.9718 O.2     1  UNL1       -0.2863
     11 C           3.1118    0.9437   18.8899 C.2     1  UNL1        0.0322
     12 C           3.9017    1.8256   17.9688 C.2     1  UNL1        0.2321
     13 N           5.1894    1.3319   17.3791 N.2     1  UNL1       -0.0311
     14 C           5.6873   -0.0437   17.7104 C.2     1  UNL1        0.3721
     15 N           6.9120   -0.7977   17.2838 N.2     1  UNL1       -0.0307
     16 C           6.8790   -2.1455   17.9413 C.2     1  UNL1        0.2390
     17 C           5.6339   -2.2245   18.7742 C.2     1  UNL1        0.0896
     18 C           4.8975   -0.9256   18.6315 C.2     1  UNL1        0.0774
     19 C           3.6097   -0.4319   19.2212 C.3     1  UNL1        0.0647
     20 C          -0.7516    2.4249   20.6592 C.ar    1  UNL1        0.3201
     21 N          -0.4696    0.9529   20.5999 N.ar    1  UNL1       -0.1927
     22 C           0.8183    0.4592   20.0101 C.ar    1  UNL1        0.1050
     23 C           1.8240    1.4375   19.4796 C.ar    1  UNL1        0.0386
     24 C           1.5419    2.9095   19.5389 C.ar    1  UNL1        0.1050
     25 N           0.2542    3.4033   20.1287 N.ar    1  UNL1       -0.1927
     26 C          -3.1800    3.2953   20.3505 C.3     1  UNL1        0.2559
     27 O          -2.0394    2.9187   21.2489 O.3     1  UNL1       -0.4426
     28 N           8.4871   -4.6286   23.4363 N.pl3   1  UNL1       -0.2128
     29 H           9.3166   -4.3935   22.9611 H       1  UNL1        0.1738
     30 S           8.5347   -5.5560   24.6144 S.O2    1  UNL1        0.0737
     31 O           7.8524   -6.6188   23.8053 O.2     1  UNL1       -0.1499
     32 O           9.2171   -4.4931   25.4235 O.2     1  UNL1       -0.1499
     33 C           8.5823   -6.4833   25.7924 C.ar    1  UNL1        0.1274
     34 C           9.1780   -7.8521   25.6459 C.ar    1  UNL1        0.0203
     35 C           9.2256   -8.7794   26.8240 C.ar    1  UNL1        0.0037
     36 C           8.6776   -8.3379   28.1486 C.ar    1  UNL1        0.0297
     37 C           8.0819   -6.9691   28.2952 C.ar    1  UNL1        0.1415
     38 F           7.5339   -6.5275   29.6198 F       1  UNL1       -0.2041
     39 C           8.0343   -6.0418   27.1171 C.ar    1  UNL1        0.0498
@<TRIPOS>BOND
     1    26    27    1
     2    27    20    1
     3    20    21   ar
     4    21    22   ar
     5    22    23   ar
     6    23    11    1
     7    11    12    2
     8    12    13    1
     9    13    14    2
    10    14    15    1
    11    15    16    2
    12    16    17    1
    13    17     9    1
    14     9    10    2
    15     9     1    1
    16     1     2   ar
    17     2     3    1
    18     2     4   ar
    19     4     5   ar
    20     5     6   ar
    21     6    28    1
    22    28    30    1
    23    30    31    2
    24    30    32    2
    25    30    33    1
    26    33    34   ar
    27    34    35   ar
    28    35    36   ar
    29    36    37   ar
    30    37    38    1
    31    37    39   ar
    32     6     7   ar
    33     7     8    1
    34    17    18    2
    35    18    19    1
    36    23    24   ar
    37    24    25   ar
    38    25    20   ar
    39    19    11    1
    40    18    14    1
    41     7     1   ar
    42    39    33   ar
    43    28    29    1
@<TRIPOS>MOLECULE
*****
 39 43 0 0 0
SMALL
GASTEIGER

@<TRIPOS>ATOM
      1 C           5.2926   -2.0117   19.7299 C.ar    1  UNL1        0.0951
      2 C           5.8086   -0.6671   19.3108 C.ar    1  UNL1        0.1454
      3 F           4.8481    0.4141   18.9130 F       1  UNL1       -0.2040
      4 C           7.2852   -0.4037   19.2893 C.ar    1  UNL1        0.0312
      5 C           8.2457   -1.4850   19.6870 C.ar    1  UNL1        0.0204
      6 C           7.7298   -2.8296   20.1062 C.ar    1  UNL1        0.0924
      7 C           6.2532   -3.0930   20.1276 C.ar    1  UNL1        0.1598
      8 F           5.7373   -4.4376   20.5468 F       1  UNL1       -0.2026
      9 C           3.8161   -2.2751   19.7513 C.2     1  UNL1        0.2036
     10 O           3.2658   -3.5133   19.1079 O.2     1  UNL1       -0.2863
     11 C           3.5750   -0.7550   24.3716 C.2     1  UNL1        0.0322
     12 C           2.4772    0.2412   24.6002 C.2     1  UNL1        0.2321
     13 N           1.5976    0.6627   23.4605 N.2     1  UNL1       -0.0311
     14 C           1.8160    0.0879   22.0923 C.2     1  UNL1        0.3721
     15 N           1.1136    0.3116   20.7859 N.2     1  UNL1       -0.0307
     16 C           1.7773   -0.5464   19.7499 C.2     1  UNL1        0.2390
     17 C           2.8899   -1.3003   20.4161 C.2     1  UNL1        0.0896
     18 C           2.9138   -0.9083   21.8638 C.2     1  UNL1        0.0774
     19 C           3.7933   -1.3297   23.0034 C.3     1  UNL1        0.0647
     20 C           6.2137   -2.0194   27.7905 C.ar    1  UNL1        0.3201
     21 N           6.7869   -1.8843   26.4110 N.ar    1  UNL1       -0.1927
     22 C           5.9073   -1.4628   25.2713 C.ar    1  UNL1        0.1050
     23 C           4.4546   -1.1764   25.5112 C.ar    1  UNL1        0.0386
     24 C           3.8814   -1.3116   26.8908 C.ar    1  UNL1        0.1050
     25 N           4.7609   -1.7330   28.0304 N.ar    1  UNL1       -0.1927
     26 C           6.7691   -3.6814   29.7086 C.3     1  UNL1        0.2559
     27 O           7.0932   -2.4408   28.9302 O.3     1  UNL1       -0.4426
     28 N           8.6903   -3.9109   20.5039 N.pl3   1  UNL1       -0.2128
     29 H           9.4688   -4.1113   19.9355 H       1  UNL1        0.1738
     30 S           8.4647   -4.6869   21.7676 S.O2    1  UNL1        0.0737
     31 O           8.4058   -5.9594   20.9758 O.2     1  UNL1       -0.1499
     32 O           8.5236   -3.4143   22.5596 O.2     1  UNL1       -0.1499
     33 C           8.2391   -5.4627   23.0314 C.ar    1  UNL1        0.1274
     34 C           8.8119   -6.8413   23.1775 C.ar    1  UNL1        0.0203
     35 C           8.5863   -7.6172   24.4413 C.ar    1  UNL1        0.0037
     36 C           7.7878   -7.0145   25.5590 C.ar    1  UNL1        0.0297
     37 C           7.2150   -5.6359   25.4129 C.ar    1  UNL1        0.1415
     38 F           6.4166   -5.0332   26.5306 F       1  UNL1       -0.2041
     39 C           7.4406   -4.8600   24.1491 C.ar    1  UNL1        0.0498
@<TRIPOS>BOND
     1    26    27    1
     2    27    20    1
     3    20    21   ar
     4    21    22   ar
     5    22    23   ar
     6    23    11    1
     7    11    12    2
     8    12    13    1
     9    13    14    2
    10    14    15    1
    11    15    16    2
    12    16    17    1
    13    17     9    1
    14     9    10    2
    15     9     1    1
    16     1     2   ar
    17     2     3    1
    18     2     4   ar
    19     4     5   ar
    20     5     6   ar
    21     6    28    1
    22    28    30    1
    23    30    31    2
    24    30    32    2
    25    30    33    1
    26    33    34   ar
    27    34    35   ar
    28    35    36   ar
    29    36    37   ar
    30    37    38    1
    31    37    39   ar
    32     6     7   ar
    33     7     8    1
    34    17    18    2
    35    18    19    1
    36    23    24   ar
    37    24    25   ar
    38    25    20   ar
    39    19    11    1
    40    18    14    1
    41     7     1   ar
    42    39    33   ar
    43    28    29    1
@<TRIPOS>MOLECULE
*****
 39 43 0 0 0
SMALL
GASTEIGER

@<TRIPOS>ATOM
      1 C           4.8094   -1.4072   19.0562 C.ar    1  UNL1        0.0951
      2 C           3.6441   -1.7442   19.9384 C.ar    1  UNL1        0.1454
      3 F           2.2704   -1.2561   19.5855 F       1  UNL1       -0.2040
      4 C           3.8525   -2.5695   21.1736 C.ar    1  UNL1        0.0312
      5 C           5.2262   -3.0576   21.5265 C.ar    1  UNL1        0.0204
      6 C           6.3916   -2.7206   20.6442 C.ar    1  UNL1        0.0924
      7 C           6.1832   -1.8954   19.4091 C.ar    1  UNL1        0.1598
      8 F           7.3485   -1.5584   18.5269 F       1  UNL1       -0.2026
      9 C           4.6010   -0.5820   17.8210 C.2     1  UNL1        0.2036
     10 O           4.0842   -1.2247   16.5681 O.2     1  UNL1       -0.2863
     11 C           1.7857    3.2512   18.8681 C.2     1  UNL1        0.0322
     12 C           2.5155    4.5569   18.7581 C.2     1  UNL1        0.2321
     13 N           3.9615    4.5766   18.3598 N.2     1  UNL1       -0.0311
     14 C           4.6777    3.2905   18.0717 C.2     1  UNL1        0.3721
     15 N           6.0905    2.9987   17.6607 N.2     1  UNL1       -0.0307
     16 C           6.2338    1.5125   17.5168 C.2     1  UNL1        0.2390
     17 C           4.9095    0.8858   17.8388 C.2     1  UNL1        0.0896
     18 C           3.9478    1.9847   18.1817 C.2     1  UNL1        0.0774
     19 C           2.5018    1.9650   18.5799 C.3     1  UNL1        0.0647
     20 C          -2.5525    3.1920   20.0628 C.ar    1  UNL1        0.3201
     21 N          -1.5422    2.4309   20.8690 N.ar    1  UNL1       -0.1927
     22 C          -0.0961    2.4506   20.4707 C.ar    1  UNL1        0.1050
     23 C           0.3396    3.2314   19.2664 C.ar    1  UNL1        0.0386
     24 C          -0.6708    3.9926   18.4603 C.ar    1  UNL1        0.1050
     25 N          -2.1168    3.9729   18.8584 N.ar    1  UNL1       -0.1927
     26 C          -4.3794    3.2774   21.9080 C.3     1  UNL1        0.2559
     27 O          -3.9985    3.1724   20.4610 O.3     1  UNL1       -0.4426
     28 N           7.7653   -3.2088   20.9971 N.pl3   1  UNL1       -0.2128
     29 H           8.5536   -2.8295   20.5455 H       1  UNL1        0.1738
     30 S           7.9379   -4.2748   22.0382 S.O2    1  UNL1        0.0737
     31 O           7.7207   -5.3296   20.9942 O.2     1  UNL1       -0.1499
     32 O           8.1551   -3.2199   23.0823 O.2     1  UNL1       -0.1499
     33 C           8.1105   -5.3408   23.0794 C.ar    1  UNL1        0.1274
     34 C           8.9685   -6.5372   22.7927 C.ar    1  UNL1        0.0203
     35 C           9.1412   -7.6032   23.8338 C.ar    1  UNL1        0.0037
     36 C           8.4557   -7.4727   25.1616 C.ar    1  UNL1        0.0297
     37 C           7.5977   -6.2762   25.4483 C.ar    1  UNL1        0.1415
     38 F           6.9122   -6.1457   26.7761 F       1  UNL1       -0.2041
     39 C           7.4251   -5.2102   24.4072 C.ar    1  UNL1        0.0498
@<TRIPOS>BOND
     1    26    27    1
     2    27    20    1
     3    20    21   ar
     4    21    22   ar
     5    22    23   ar
     6    23    11    1
     7    11    12    2
     8    12    13    1
     9    13    14    2
    10    14    15    1
    11    15    16    2
    12    16    17    1
    13    17     9    1
    14     9    10    2
    15     9     1    1
    16     1     2   ar
    17     2     3    1
    18     2     4   ar
    19     4     5   ar
    20     5     6   ar
    21     6    28    1
    22    28    30    1
    23    30    31    2
    24    30    32    2
    25    30    33    1
    26    33    34   ar
    27    34    35   ar
    28    35    36   ar
    29    36    37   ar
    30    37    38    1
    31    37    39   ar
    32     6     7   ar
    33     7     8    1
    34    17    18    2
    35    18    19    1
    36    23    24   ar
    37    24    25   ar
    38    25    20   ar
    39    19    11    1
    40    18    14    1
    41     7     1   ar
    42    39    33   ar
    43    28    29    1
@<TRIPOS>MOLECULE
*****
 39 43 0 0 0
SMALL
GASTEIGER

@<TRIPOS>ATOM
      1 C           5.3172   -3.1831   22.9426 C.ar    1  UNL1        0.0951
      2 C           4.3559   -2.1492   23.4495 C.ar    1  UNL1        0.1454
      3 F           3.3082   -1.5869   22.5350 F       1  UNL1       -0.2040
      4 C           4.4424   -1.6775   24.8707 C.ar    1  UNL1        0.0312
      5 C           5.4901   -2.2397   25.7851 C.ar    1  UNL1        0.0204
      6 C           6.4513   -3.2736   25.2783 C.ar    1  UNL1        0.0924
      7 C           6.3649   -3.7453   23.8570 C.ar    1  UNL1        0.1598
      8 F           7.3261   -4.7793   23.3502 F       1  UNL1       -0.2026
      9 C           5.2307   -3.6548   21.5213 C.2     1  UNL1        0.2036
     10 O           4.2704   -4.7457   21.1503 O.2     1  UNL1       -0.2863
     11 C           4.4309    0.0947   18.5184 C.2     1  UNL1        0.0322
     12 C           5.5959    0.3774   17.6169 C.2     1  UNL1        0.2321
     13 N           6.8348   -0.4635   17.7065 N.2     1  UNL1       -0.0311
     14 C           6.9087   -1.5870   18.6976 C.2     1  UNL1        0.3721
     15 N           7.9896   -2.5783   19.0124 N.2     1  UNL1       -0.0307
     16 C           7.4926   -3.4735   20.1084 C.2     1  UNL1        0.2390
     17 C           6.1045   -3.0355   20.4711 C.2     1  UNL1        0.0896
     18 C           5.7436   -1.8696   19.5991 C.2     1  UNL1        0.0774
     19 C           4.5048   -1.0288   19.5095 C.3     1  UNL1        0.0647
     20 C           0.7140    2.6174   18.2498 C.ar    1  UNL1        0.3201
     21 N           0.6050    1.1215   18.2757 N.ar    1  UNL1       -0.1927
     22 C           1.8440    0.2807   18.3652 C.ar    1  UNL1        0.1050
     23 C           3.1919    0.9356   18.4289 C.ar    1  UNL1        0.0386
     24 C           3.3010    2.4314   18.4030 C.ar    1  UNL1        0.1050
     25 N           2.0621    3.2723   18.3134 N.ar    1  UNL1       -0.1927
     26 C          -0.6375    4.5176   17.1044 C.3     1  UNL1        0.2559
     27 O          -0.5248    3.4582   18.1602 O.3     1  UNL1       -0.4426
     28 N           7.4990   -3.8359   26.1927 N.pl3   1  UNL1       -0.2128
     29 H           8.3461   -4.1739   25.8219 H       1  UNL1        0.1738
     30 S           7.2561   -3.8831   27.6722 S.O2    1  UNL1        0.0737
     31 O           6.3780   -5.0853   27.4897 O.2     1  UNL1       -0.1499
     32 O           8.1343   -2.6808   27.8547 O.2     1  UNL1       -0.1499
     33 C           7.0133   -3.9303   29.1516 C.ar    1  UNL1        0.1274
     34 C           6.5546   -2.6995   29.8760 C.ar    1  UNL1        0.0203
     35 C           6.3118   -2.7466   31.3555 C.ar    1  UNL1        0.0037
     36 C           6.5276   -4.0246   32.1106 C.ar    1  UNL1        0.0297
     37 C           6.9863   -5.2554   31.3862 C.ar    1  UNL1        0.1415
     38 F           7.2022   -6.5333   32.1414 F       1  UNL1       -0.2041
     39 C           7.2291   -5.2082   29.9068 C.ar    1  UNL1        0.0498
@<TRIPOS>BOND
     1    26    27    1
     2    27    20    1
     3    20    21   ar
     4    21    22   ar
     5    22    23   ar
     6    23    11    1
     7    11    12    2
     8    12    13    1
     9    13    14    2
    10    14    15    1
    11    15    16    2
    12    16    17    1
    13    17     9    1
    14     9    10    2
    15     9     1    1
    16     1     2   ar
    17     2     3    1
    18     2     4   ar
    19     4     5   ar
    20     5     6   ar
    21     6    28    1
    22    28    30    1
    23    30    31    2
    24    30    32    2
    25    30    33    1
    26    33    34   ar
    27    34    35   ar
    28    35    36   ar
    29    36    37   ar
    30    37    38    1
    31    37    39   ar
    32     6     7   ar
    33     7     8    1
    34    17    18    2
    35    18    19    1
    36    23    24   ar
    37    24    25   ar
    38    25    20   ar
    39    19    11    1
    40    18    14    1
    41     7     1   ar
    42    39    33   ar
    43    28    29    1
@<TRIPOS>MOLECULE
*****
 39 43 0 0 0
SMALL
GASTEIGER

@<TRIPOS>ATOM
      1 C           6.5183   -2.6648   25.8061 C.ar    1  UNL1        0.0951
      2 C           5.3486   -1.8058   26.1853 C.ar    1  UNL1        0.1454
      3 F           5.2849   -1.1853   27.5495 F       1  UNL1       -0.2040
      4 C           4.2427   -1.5672   25.2004 C.ar    1  UNL1        0.0312
      5 C           4.3065   -2.1876   23.8363 C.ar    1  UNL1        0.0204
      6 C           5.4762   -3.0466   23.4570 C.ar    1  UNL1        0.0924
      7 C           6.5821   -3.2852   24.4419 C.ar    1  UNL1        0.1598
      8 F           7.7517   -4.1443   24.0625 F       1  UNL1       -0.2026
      9 C           7.6242   -2.9034   26.7910 C.2     1  UNL1        0.2036
     10 O           8.7117   -1.8840   26.9589 O.2     1  UNL1       -0.2863
     11 C           6.4718   -3.6872   31.4572 C.2     1  UNL1        0.0322
     12 C           6.6392   -5.1209   31.8653 C.2     1  UNL1        0.2321
     13 N           7.1174   -6.1337   30.8676 N.2     1  UNL1       -0.0311
     14 C           7.4284   -5.7129   29.4618 C.2     1  UNL1        0.3721
     15 N           7.9134   -6.4810   28.2681 N.2     1  UNL1       -0.0307
     16 C           8.0459   -5.5221   27.1224 C.2     1  UNL1        0.2390
     17 C           7.6426   -4.1613   27.6079 C.2     1  UNL1        0.0896
     18 C           7.2610   -4.2792   29.0537 C.2     1  UNL1        0.0774
     19 C           6.7827   -3.2664   30.0514 C.3     1  UNL1        0.0647
     20 C           5.0369   -0.6486   34.4502 C.ar    1  UNL1        0.3201
     21 N           6.4392   -0.5774   33.9226 N.ar    1  UNL1       -0.1927
     22 C           6.9175   -1.5903   32.9249 C.ar    1  UNL1        0.1050
     23 C           5.9935   -2.6743   32.4549 C.ar    1  UNL1        0.0386
     24 C           4.5912   -2.7456   32.9825 C.ar    1  UNL1        0.1050
     25 N           4.1129   -1.7327   33.9802 N.ar    1  UNL1       -0.1927
     26 C           5.0056    0.2781   36.8771 C.3     1  UNL1        0.2559
     27 O           4.5586    0.3642   35.4479 O.3     1  UNL1       -0.4426
     28 N           5.5399   -3.6671   22.0928 N.pl3   1  UNL1       -0.2128
     29 H           5.6792   -4.6372   21.9993 H       1  UNL1        0.1738
     30 S           5.3915   -2.8094   20.8712 S.O2    1  UNL1        0.0737
     31 O           4.1004   -3.4990   20.5438 O.2     1  UNL1       -0.1499
     32 O           6.6827   -2.1196   21.1985 O.2     1  UNL1       -0.1499
     33 C           5.2432   -1.9517   19.6496 C.ar    1  UNL1        0.1274
     34 C           6.4390   -1.6483   18.7964 C.ar    1  UNL1        0.0203
     35 C           6.2907   -0.7906   17.5748 C.ar    1  UNL1        0.0037
     36 C           4.9465   -0.2362   17.2064 C.ar    1  UNL1        0.0297
     37 C           3.7506   -0.5395   18.0595 C.ar    1  UNL1        0.1415
     38 F           2.4064    0.0149   17.6911 F       1  UNL1       -0.2041
     39 C           3.8990   -1.3972   19.2811 C.ar    1  UNL1        0.0498
@<TRIPOS>BOND
     1    26    27    1
     2    27    20    1
     3    20    21   ar
     4    21    22   ar
     5    22    23   ar
     6    23    11    1
     7    11    12    2
     8    12    13    1
     9    13    14    2
    10    14    15    1
    11    15    16    2
    12    16    17    1
    13    17     9    1
    14     9    10    2
    15     9     1    1
    16     1     2   ar
    17     2     3    1
    18     2     4   ar
    19     4     5   ar
    20     5     6   ar
    21     6    28    1
    22    28    30    1
    23    30    31    2
    24    30    32    2
    25    30    33    1
    26    33    34   ar
    27    34    35   ar
    28    35    36   ar
    29    36    37   ar
    30    37    38    1
    31    37    39   ar
    32     6     7   ar
    33     7     8    1
    34    17    18    2
    35    18    19    1
    36    23    24   ar
    37    24    25   ar
    38    25    20   ar
    39    19    11    1
    40    18    14    1
    41     7     1   ar
    42    39    33   ar
    43    28    29    1
@<TRIPOS>MOLECULE
*****
 39 43 0 0 0
SMALL
GASTEIGER

@<TRIPOS>ATOM
      1 C           7.0951   -3.7693   23.3192 C.ar    1  UNL1        0.0951
      2 C           8.5607   -3.6170   23.0382 C.ar    1  UNL1        0.1454
      3 F           9.5359   -3.5200   24.1738 F       1  UNL1       -0.2040
      4 C           9.0510   -3.5617   21.6217 C.ar    1  UNL1        0.0312
      5 C           8.0758   -3.6587   20.4861 C.ar    1  UNL1        0.0204
      6 C           6.6102   -3.8110   20.7671 C.ar    1  UNL1        0.0924
      7 C           6.1199   -3.8663   22.1836 C.ar    1  UNL1        0.1598
      8 F           4.6544   -4.0187   22.4645 F       1  UNL1       -0.2026
      9 C           6.6048   -3.8247   24.7357 C.2     1  UNL1        0.2036
     10 O           5.6675   -2.7709   25.2465 O.2     1  UNL1       -0.2863
     11 C           6.6942   -4.1273   29.5954 C.2     1  UNL1        0.0322
     12 C           7.2275   -5.4402   30.0872 C.2     1  UNL1        0.2321
     13 N           7.6628   -6.4878   29.1059 N.2     1  UNL1       -0.0311
     14 C           7.5648   -6.2226   27.6328 C.2     1  UNL1        0.3721
     15 N           7.9148   -7.0580   26.4371 N.2     1  UNL1       -0.0307
     16 C           7.5978   -6.2614   25.2063 C.2     1  UNL1        0.2390
     17 C           7.0519   -4.9337   25.6413 C.2     1  UNL1        0.0896
     18 C           7.0315   -4.9097   27.1410 C.2     1  UNL1        0.0774
     19 C           6.5962   -3.8621   28.1222 C.3     1  UNL1        0.0647
     20 C           5.3882   -0.9842   32.5391 C.ar    1  UNL1        0.3201
     21 N           5.8559   -2.3226   33.0291 N.ar    1  UNL1       -0.1927
     22 C           6.2912   -3.3703   32.0478 C.ar    1  UNL1        0.1050
     23 C           6.2589   -3.0796   30.5766 C.ar    1  UNL1        0.0386
     24 C           5.7912   -1.7413   30.0867 C.ar    1  UNL1        0.1050
     25 N           5.3559   -0.6936   31.0679 N.ar    1  UNL1       -0.1927
     26 C           3.6352    0.7573   33.3413 C.3     1  UNL1        0.2559
     27 O           4.9529    0.0635   33.5203 O.3     1  UNL1       -0.4426
     28 N           5.6350   -3.9080   19.6315 N.pl3   1  UNL1       -0.2128
     29 H           5.6579   -4.6855   19.0280 H       1  UNL1        0.1738
     30 S           4.6249   -2.8203   19.4155 S.O2    1  UNL1        0.0737
     31 O           5.7236   -1.7993   19.4183 O.2     1  UNL1       -0.1499
     32 O           3.5260   -3.8414   19.4126 O.2     1  UNL1       -0.1499
     33 C           3.6147   -1.7327   19.1994 C.ar    1  UNL1        0.1274
     34 C           3.7946   -0.7542   18.0769 C.ar    1  UNL1        0.0203
     35 C           2.7844    0.3334   17.8608 C.ar    1  UNL1        0.0037
     36 C           1.5943    0.4425   18.7674 C.ar    1  UNL1        0.0297
     37 C           1.4144   -0.5360   19.8899 C.ar    1  UNL1        0.1415
     38 F           0.2244   -0.4269   20.7964 F       1  UNL1       -0.2041
     39 C           2.4246   -1.6236   20.1060 C.ar    1  UNL1        0.0498
@<TRIPOS>BOND
     1    26    27    1
     2    27    20    1
     3    20    21   ar
     4    21    22   ar
     5    22    23   ar
     6    23    11    1
     7    11    12    2
     8    12    13    1
     9    13    14    2
    10    14    15    1
    11    15    16    2
    12    16    17    1
    13    17     9    1
    14     9    10    2
    15     9     1    1
    16     1     2   ar
    17     2     3    1
    18     2     4   ar
    19     4     5   ar
    20     5     6   ar
    21     6    28    1
    22    28    30    1
    23    30    31    2
    24    30    32    2
    25    30    33    1
    26    33    34   ar
    27    34    35   ar
    28    35    36   ar
    29    36    37   ar
    30    37    38    1
    31    37    39   ar
    32     6     7   ar
    33     7     8    1
    34    17    18    2
    35    18    19    1
    36    23    24   ar
    37    24    25   ar
    38    25    20   ar
    39    19    11    1
    40    18    14    1
    41     7     1   ar
    42    39    33   ar
    43    28    29    1
@<TRIPOS>MOLECULE
*****
 39 43 0 0 0
SMALL
GASTEIGER

@<TRIPOS>ATOM
      1 C           6.3050   -1.2256   22.3254 C.ar    1  UNL1        0.0951
      2 C           5.6592   -2.5675   22.5044 C.ar    1  UNL1        0.1454
      3 F           6.0140   -3.6991   21.5860 F       1  UNL1       -0.2040
      4 C           4.6587   -2.7779   23.6020 C.ar    1  UNL1        0.0312
      5 C           4.3038   -1.6463   24.5205 C.ar    1  UNL1        0.0204
      6 C           4.9496   -0.3044   24.3414 C.ar    1  UNL1        0.0924
      7 C           5.9502   -0.0940   23.2439 C.ar    1  UNL1        0.1598
      8 F           6.5959    1.2480   23.0649 F       1  UNL1       -0.2026
      9 C           7.3056   -1.0152   21.2278 C.2     1  UNL1        0.2036
     10 O           8.6861   -0.5284   21.5549 O.2     1  UNL1       -0.2863
     11 C           3.2107   -0.0419   18.7782 C.2     1  UNL1        0.0322
     12 C           3.2629   -0.5010   17.3512 C.2     1  UNL1        0.2321
     13 N           4.4932   -1.1797   16.8262 N.2     1  UNL1       -0.0311
     14 C           5.6714   -1.3993   17.7283 C.2     1  UNL1        0.3721
     15 N           7.0100   -2.0344   17.4943 N.2     1  UNL1       -0.0307
     16 C           7.7851   -1.9678   18.7768 C.2     1  UNL1        0.2390
     17 C           6.9255   -1.2916   19.8034 C.2     1  UNL1        0.0896
     18 C           5.6192   -0.9402   19.1553 C.2     1  UNL1        0.0774
     19 C           4.3888   -0.2615   19.6803 C.3     1  UNL1        0.0647
     20 C          -0.4804    1.9941   20.3533 C.ar    1  UNL1        0.3201
     21 N           0.4570    2.7365   19.4477 N.ar    1  UNL1       -0.1927
     22 C           1.6874    2.0578   18.9227 C.ar    1  UNL1        0.1050
     23 C           1.9803    0.6368   19.3032 C.ar    1  UNL1        0.0386
     24 C           1.0429   -0.1056   20.2088 C.ar    1  UNL1        0.1050
     25 N          -0.1875    0.5730   20.7339 N.ar    1  UNL1       -0.1927
     26 C          -1.6350    3.5032   22.1251 C.3     1  UNL1        0.2559
     27 O          -1.7107    2.6728   20.8783 O.3     1  UNL1       -0.4426
     28 N           4.5948    0.8272   25.2599 N.pl3   1  UNL1       -0.2128
     29 H           5.1817    1.6154   25.3195 H       1  UNL1        0.1738
     30 S           3.3457    0.7578   26.0876 S.O2    1  UNL1        0.0737
     31 O           4.1519    0.2979   27.2658 O.2     1  UNL1       -0.1499
     32 O           2.5394    1.2178   24.9093 O.2     1  UNL1       -0.1499
     33 C           2.0966    0.6885   26.9152 C.ar    1  UNL1        0.1274
     34 C           2.0671   -0.1480   28.1600 C.ar    1  UNL1        0.0203
     35 C           0.8180   -0.2173   28.9876 C.ar    1  UNL1        0.0037
     36 C          -0.4016    0.5498   28.5705 C.ar    1  UNL1        0.0297
     37 C          -0.3721    1.3862   27.3257 C.ar    1  UNL1        0.1415
     38 F          -1.5918    2.1534   26.9086 F       1  UNL1       -0.2041
     39 C           0.8770    1.4556   26.4981 C.ar    1  UNL1        0.0498
@<TRIPOS>BOND
     1    26    27    1
     2    27    20    1
     3    20    21   ar
     4    21    22   ar
     5    22    23   ar
     6    23    11    1
     7    11    12    2
     8    12    13    1
     9    13    14    2
    10    14    15    1
    11    15    16    2
    12    16    17    1
    13    17     9    1
    14     9    10    2
    15     9     1    1
    16     1     2   ar
    17     2     3    1
    18     2     4   ar
    19     4     5   ar
    20     5     6   ar
    21     6    28    1
    22    28    30    1
    23    30    31    2
    24    30    32    2
    25    30    33    1
    26    33    34   ar
    27    34    35   ar
    28    35    36   ar
    29    36    37   ar
    30    37    38    1
    31    37    39   ar
    32     6     7   ar
    33     7     8    1
    34    17    18    2
    35    18    19    1
    36    23    24   ar
    37    24    25   ar
    38    25    20   ar
    39    19    11    1
    40    18    14    1
    41     7     1   ar
    42    39    33   ar
    43    28    29    1
@<TRIPOS>MOLECULE
*****
 39 43 0 0 0
SMALL
GASTEIGER

@<TRIPOS>ATOM
      1 C           6.1106   -1.7308   22.4060 C.ar    1  UNL1        0.0951
      2 C           7.0938   -0.6188   22.6220 C.ar    1  UNL1        0.1454
      3 F           8.3398   -0.5473   21.7900 F       1  UNL1       -0.2040
      4 C           6.8310    0.4217   23.6700 C.ar    1  UNL1        0.0312
      5 C           5.5850    0.3502   24.5021 C.ar    1  UNL1        0.0204
      6 C           4.6018   -0.7619   24.2861 C.ar    1  UNL1        0.0924
      7 C           4.8646   -1.8023   23.2381 C.ar    1  UNL1        0.1598
      8 F           3.8813   -2.9143   23.0222 F       1  UNL1       -0.2026
      9 C           6.3734   -2.7713   21.3580 C.2     1  UNL1        0.2036
     10 O           6.6398   -4.1913   21.7613 O.2     1  UNL1       -0.2863
     11 C           3.2170   -0.1168   18.7684 C.2     1  UNL1        0.0322
     12 C           3.6097    0.0116   17.3265 C.2     1  UNL1        0.2321
     13 N           4.8629   -0.6457   16.8292 N.2     1  UNL1       -0.0311
     14 C           5.7234   -1.4314   17.7738 C.2     1  UNL1        0.3721
     15 N           7.0054   -2.1841   17.5737 N.2     1  UNL1       -0.0307
     16 C           7.4049   -2.7776   18.8921 C.2     1  UNL1        0.2390
     17 C           6.3699   -2.3918   19.9069 C.2     1  UNL1        0.0896
     18 C           5.3306   -1.5598   19.2157 C.2     1  UNL1        0.0774
     19 C           4.0774   -0.9025   19.7130 C.3     1  UNL1        0.0647
     20 C          -0.5428    1.8552   20.2606 C.ar    1  UNL1        0.3201
     21 N           0.3448    2.5726   19.2872 N.ar    1  UNL1       -0.1927
     22 C           1.5981    1.9152   18.7898 C.ar    1  UNL1        0.1050
     23 C           1.9637    0.5406   19.2658 C.ar    1  UNL1        0.0386
     24 C           1.0761   -0.1768   20.2392 C.ar    1  UNL1        0.1050
     25 N          -0.1771    0.4804   20.7366 N.ar    1  UNL1       -0.1927
     26 C          -1.8532    4.0041   20.9042 C.3     1  UNL1        0.2559
     27 O          -1.7960    2.5124   20.7580 O.3     1  UNL1       -0.4426
     28 N           3.3558   -0.8334   25.1181 N.pl3   1  UNL1       -0.2128
     29 H           3.2090   -1.5985   25.7200 H       1  UNL1        0.1738
     30 S           2.3334    0.2610   25.0331 S.O2    1  UNL1        0.0737
     31 O           2.5890    0.6114   26.4690 O.2     1  UNL1       -0.1499
     32 O           2.0777   -0.0894   23.5972 O.2     1  UNL1       -0.1499
     33 C           1.3110    1.3553   24.9481 C.ar    1  UNL1        0.1274
     34 C           1.4144    2.3964   23.8732 C.ar    1  UNL1        0.0203
     35 C           0.3921    3.4907   23.7881 C.ar    1  UNL1        0.0037
     36 C          -0.7338    3.5439   24.7779 C.ar    1  UNL1        0.0297
     37 C          -0.8372    2.5027   25.8527 C.ar    1  UNL1        0.1415
     38 F          -1.9631    2.5559   26.8425 F       1  UNL1       -0.2041
     39 C           0.1852    1.4084   25.9378 C.ar    1  UNL1        0.0498
@<TRIPOS>BOND
     1    26    27    1
     2    27    20    1
     3    20    21   ar
     4    21    22   ar
     5    22    23   ar
     6    23    11    1
     7    11    12    2
     8    12    13    1
     9    13    14    2
    10    14    15    1
    11    15    16    2
    12    16    17    1
    13    17     9    1
    14     9    10    2
    15     9     1    1
    16     1     2   ar
    17     2     3    1
    18     2     4   ar
    19     4     5   ar
    20     5     6   ar
    21     6    28    1
    22    28    30    1
    23    30    31    2
    24    30    32    2
    25    30    33    1
    26    33    34   ar
    27    34    35   ar
    28    35    36   ar
    29    36    37   ar
    30    37    38    1
    31    37    39   ar
    32     6     7   ar
    33     7     8    1
    34    17    18    2
    35    18    19    1
    36    23    24   ar
    37    24    25   ar
    38    25    20   ar
    39    19    11    1
    40    18    14    1
    41     7     1   ar
    42    39    33   ar
    43    28    29    1
