@<TRIPOS>MOLECULE
*****
 25 27 0 0 0
SMALL
GASTEIGER

@<TRIPOS>ATOM
      1 C          -9.2494  -21.2073   17.5583 C.3     1  UNL1        0.0522
      2 C          -8.8149  -20.3937   18.7412 C.ar    1  UNL1        0.0625
      3 C          -9.8375  -19.8533   19.6962 C.ar    1  UNL1        0.0522
      4 C          -9.4029  -19.0397   20.8791 C.ar    1  UNL1        0.1483
      5 C          -7.9458  -18.7666   21.1070 C.ar    1  UNL1        0.0612
      6 C          -6.9231  -19.3070   20.1520 C.ar    1  UNL1        0.1374
      7 N          -7.3577  -20.1206   18.9691 N.ar    1  UNL1       -0.2449
      8 C          -5.4659  -19.0339   20.3798 C.2     1  UNL1        0.2684
      9 O          -4.7760  -19.6011   21.5850 O.2     1  UNL1       -0.2681
     10 N          -4.6986  -18.1935   19.4026 N.am    1  UNL1       -0.2646
     11 H          -5.1514  -17.8212   18.6117 H       1  UNL1        0.1566
     12 C          -3.2413  -17.9204   19.6305 C.ar    1  UNL1        0.1346
     13 C          -2.2141  -18.5188   18.7157 C.ar    1  UNL1        0.0368
     14 C          -0.7569  -18.2456   18.9436 C.ar    1  UNL1        0.0341
     15 C          -0.3269  -17.3741   20.0862 C.ar    1  UNL1        0.1593
     16 F           1.1303  -17.1010   20.3141 F       1  UNL1       -0.2025
     17 C          -1.3541  -16.7758   21.0010 C.ar    1  UNL1        0.1298
     18 N          -2.8113  -17.0489   20.7731 N.ar    1  UNL1       -0.2267
     19 O         -10.4257  -18.4993   21.8342 O.3     1  UNL1       -0.4502
     20 C         -10.0037  -18.0139   23.1893 C.ar    1  UNL1        0.1835
     21 C          -9.9958  -18.9579   24.3551 C.ar    1  UNL1        0.1396
     22 N          -9.5738  -18.4725   25.7102 N.ar    1  UNL1       -0.2192
     23 C          -9.1598  -17.0432   25.8996 C.ar    1  UNL1        0.1991
     24 N          -9.1678  -16.0993   24.7338 N.ar    1  UNL1       -0.2192
     25 C          -9.5897  -16.5847   23.3787 C.ar    1  UNL1        0.1396
@<TRIPOS>BOND
     1     1     2    1
     2     2     3   ar
     3     3     4   ar
     4     4    19    1
     5    19    20    1
     6    20    21   ar
     7    21    22   ar
     8    22    23   ar
     9    23    24   ar
    10    24    25   ar
    11     4     5   ar
    12     5     6   ar
    13     6     8    1
    14     8     9    2
    15     8    10   am
    16    10    12    1
    17    12    13   ar
    18    13    14   ar
    19    14    15   ar
    20    15    16    1
    21    15    17   ar
    22    17    18   ar
    23     6     7   ar
    24     7     2   ar
    25    25    20   ar
    26    18    12   ar
    27    10    11    1
@<TRIPOS>MOLECULE
*****
 25 27 0 0 0
SMALL
GASTEIGER

@<TRIPOS>ATOM
      1 C         -11.3689  -20.2168   21.2321 C.3     1  UNL1        0.0522
      2 C         -10.2316  -19.3959   21.7638 C.ar    1  UNL1        0.0625
      3 C         -10.4748  -18.3945   22.8537 C.ar    1  UNL1        0.0522
      4 C          -9.3376  -17.5736   23.3854 C.ar    1  UNL1        0.1483
      5 C          -7.9571  -17.7541   22.8272 C.ar    1  UNL1        0.0612
      6 C          -7.7139  -18.7555   21.7372 C.ar    1  UNL1        0.1374
      7 N          -8.8512  -19.5764   21.2055 N.ar    1  UNL1       -0.2449
      8 C          -6.3334  -18.9360   21.1789 C.2     1  UNL1        0.2684
      9 O          -6.1098  -19.8533   20.0134 O.2     1  UNL1       -0.2681
     10 N          -5.1765  -18.1993   21.7863 N.am    1  UNL1       -0.2646
     11 H          -5.3233  -17.5973   22.5513 H       1  UNL1        0.1566
     12 C          -3.7960  -18.3798   21.2280 C.ar    1  UNL1        0.1346
     13 C          -2.7729  -19.1631   21.9959 C.ar    1  UNL1        0.0368
     14 C          -1.3925  -19.3436   21.4376 C.ar    1  UNL1        0.0341
     15 C          -1.0351  -18.7408   20.1114 C.ar    1  UNL1        0.1593
     16 F           0.3455  -18.9214   19.5531 F       1  UNL1       -0.2025
     17 C          -2.0581  -17.9576   19.3434 C.ar    1  UNL1        0.1298
     18 N          -3.4386  -17.7771   19.9017 N.ar    1  UNL1       -0.2267
     19 O          -9.5808  -16.5721   24.4754 O.3     1  UNL1       -0.4502
     20 C          -8.4352  -16.0747   25.3061 C.ar    1  UNL1        0.1835
     21 C          -7.3779  -15.2108   24.6849 C.ar    1  UNL1        0.1396
     22 N          -6.2323  -14.7134   25.5157 N.ar    1  UNL1       -0.2192
     23 C          -6.1440  -15.0798   26.9676 C.ar    1  UNL1        0.1991
     24 N          -7.2014  -15.9436   27.5887 N.ar    1  UNL1       -0.2192
     25 C          -8.3470  -16.4410   26.7580 C.ar    1  UNL1        0.1396
@<TRIPOS>BOND
     1     1     2    1
     2     2     3   ar
     3     3     4   ar
     4     4    19    1
     5    19    20    1
     6    20    21   ar
     7    21    22   ar
     8    22    23   ar
     9    23    24   ar
    10    24    25   ar
    11     4     5   ar
    12     5     6   ar
    13     6     8    1
    14     8     9    2
    15     8    10   am
    16    10    12    1
    17    12    13   ar
    18    13    14   ar
    19    14    15   ar
    20    15    16    1
    21    15    17   ar
    22    17    18   ar
    23     6     7   ar
    24     7     2   ar
    25    25    20   ar
    26    18    12   ar
    27    10    11    1
@<TRIPOS>MOLECULE
*****
 25 27 0 0 0
SMALL
GASTEIGER

@<TRIPOS>ATOM
      1 C          -4.6322  -15.4718   24.2714 C.3     1  UNL1        0.0522
      2 C          -5.2053  -16.6481   23.5380 C.ar    1  UNL1        0.0625
      3 C          -4.3028  -17.5589   22.7597 C.ar    1  UNL1        0.0522
      4 C          -4.8758  -18.7352   22.0263 C.ar    1  UNL1        0.1483
      5 C          -6.3515  -19.0007   22.0711 C.ar    1  UNL1        0.0612
      6 C          -7.2540  -18.0898   22.8494 C.ar    1  UNL1        0.1374
      7 N          -6.6809  -16.9135   23.5828 N.ar    1  UNL1       -0.2449
      8 C          -8.7297  -18.3552   22.8942 C.2     1  UNL1        0.2684
      9 O          -9.3159  -19.4718   22.0821 O.2     1  UNL1       -0.2681
     10 N          -9.6191  -17.5041   23.7512 N.am    1  UNL1       -0.2646
     11 H          -9.2343  -16.7712   24.2842 H       1  UNL1        0.1566
     12 C         -11.0948  -17.7695   23.7960 C.ar    1  UNL1        0.1346
     13 C         -11.9859  -17.2370   22.7133 C.ar    1  UNL1        0.0368
     14 C         -13.4615  -17.5024   22.7582 C.ar    1  UNL1        0.0341
     15 C         -14.0460  -18.3004   23.8858 C.ar    1  UNL1        0.1593
     16 F         -15.5217  -18.5658   23.9307 F       1  UNL1       -0.2025
     17 C         -13.1550  -18.8329   24.9686 C.ar    1  UNL1        0.1298
     18 N         -11.6794  -18.5674   24.9237 N.ar    1  UNL1       -0.2267
     19 O          -3.9732  -19.6461   21.2480 O.3     1  UNL1       -0.4502
     20 C          -2.7593  -19.0925   20.5624 C.ar    1  UNL1        0.1835
     21 C          -1.4665  -18.9659   21.3127 C.ar    1  UNL1        0.1396
     22 N          -0.2527  -18.4123   20.6271 N.ar    1  UNL1       -0.2192
     23 C          -0.3316  -17.9853   19.1913 C.ar    1  UNL1        0.1991
     24 N          -1.6243  -18.1118   18.4411 N.ar    1  UNL1       -0.2192
     25 C          -2.8382  -18.6654   19.1267 C.ar    1  UNL1        0.1396
@<TRIPOS>BOND
     1     1     2    1
     2     2     3   ar
     3     3     4   ar
     4     4    19    1
     5    19    20    1
     6    20    21   ar
     7    21    22   ar
     8    22    23   ar
     9    23    24   ar
    10    24    25   ar
    11     4     5   ar
    12     5     6   ar
    13     6     8    1
    14     8     9    2
    15     8    10   am
    16    10    12    1
    17    12    13   ar
    18    13    14   ar
    19    14    15   ar
    20    15    16    1
    21    15    17   ar
    22    17    18   ar
    23     6     7   ar
    24     7     2   ar
    25    25    20   ar
    26    18    12   ar
    27    10    11    1
@<TRIPOS>MOLECULE
*****
 25 27 0 0 0
SMALL
GASTEIGER

@<TRIPOS>ATOM
      1 C          -9.9860  -20.6359   18.3520 C.3     1  UNL1        0.0522
      2 C          -9.4372  -19.6562   19.3465 C.ar    1  UNL1        0.0625
      3 C         -10.3699  -18.7821   20.1314 C.ar    1  UNL1        0.0522
      4 C          -9.8211  -17.8024   21.1259 C.ar    1  UNL1        0.1483
      5 C          -8.3396  -17.6968   21.3355 C.ar    1  UNL1        0.0612
      6 C          -7.4069  -18.5708   20.5506 C.ar    1  UNL1        0.1374
      7 N          -7.9557  -19.5505   19.5561 N.ar    1  UNL1       -0.2449
      8 C          -5.9254  -18.4652   20.7602 C.2     1  UNL1        0.2684
      9 O          -5.3762  -18.2546   22.1401 O.2     1  UNL1       -0.2681
     10 N          -4.9930  -18.5701   19.5899 N.am    1  UNL1       -0.2646
     11 H          -5.3534  -18.7083   18.6842 H       1  UNL1        0.1566
     12 C          -3.5114  -18.4645   19.7995 C.ar    1  UNL1        0.1346
     13 C          -2.7964  -19.4890   20.6296 C.ar    1  UNL1        0.0368
     14 C          -1.3149  -19.3833   20.8392 C.ar    1  UNL1        0.0341
     15 C          -0.5484  -18.2531   20.2185 C.ar    1  UNL1        0.1593
     16 F           0.9332  -18.1475   20.4281 F       1  UNL1       -0.2025
     17 C          -1.2634  -17.2287   19.3884 C.ar    1  UNL1        0.1298
     18 N          -2.7449  -17.3343   19.1788 N.ar    1  UNL1       -0.2267
     19 O         -10.7539  -16.9284   21.9108 O.3     1  UNL1       -0.4502
     20 C         -11.6449  -17.5310   22.9562 C.ar    1  UNL1        0.1835
     21 C         -11.0567  -18.3790   24.0448 C.ar    1  UNL1        0.1396
     22 N         -11.9477  -18.9816   25.0903 N.ar    1  UNL1       -0.2192
     23 C         -13.4269  -18.7361   25.0472 C.ar    1  UNL1        0.1991
     24 N         -14.0150  -17.8881   23.9587 N.ar    1  UNL1       -0.2192
     25 C         -13.1240  -17.2855   22.9132 C.ar    1  UNL1        0.1396
@<TRIPOS>BOND
     1     1     2    1
     2     2     3   ar
     3     3     4   ar
     4     4    19    1
     5    19    20    1
     6    20    21   ar
     7    21    22   ar
     8    22    23   ar
     9    23    24   ar
    10    24    25   ar
    11     4     5   ar
    12     5     6   ar
    13     6     8    1
    14     8     9    2
    15     8    10   am
    16    10    12    1
    17    12    13   ar
    18    13    14   ar
    19    14    15   ar
    20    15    16    1
    21    15    17   ar
    22    17    18   ar
    23     6     7   ar
    24     7     2   ar
    25    25    20   ar
    26    18    12   ar
    27    10    11    1
@<TRIPOS>MOLECULE
*****
 25 27 0 0 0
SMALL
GASTEIGER

@<TRIPOS>ATOM
      1 C          -9.6191   -6.9198   18.9952 C.3     1  UNL1        0.0522
      2 C         -11.0193   -6.5148   18.6411 C.ar    1  UNL1        0.0625
      3 C         -11.8682   -7.4140   17.7921 C.ar    1  UNL1        0.0522
      4 C         -13.2684   -7.0090   17.4380 C.ar    1  UNL1        0.1483
      5 C         -13.8198   -5.7048   17.9329 C.ar    1  UNL1        0.0612
      6 C         -12.9709   -4.8056   18.7819 C.ar    1  UNL1        0.1374
      7 N         -11.5707   -5.2106   19.1360 N.ar    1  UNL1       -0.2449
      8 C         -13.5223   -3.5013   19.2768 C.2     1  UNL1        0.2684
      9 O         -13.2553   -3.0604   20.6855 O.2     1  UNL1       -0.2681
     10 N         -14.3406   -2.6379   18.3631 N.am    1  UNL1       -0.2646
     11 H         -14.5158   -2.9272   17.4385 H       1  UNL1        0.1566
     12 C         -14.8919   -1.3336   18.8580 C.ar    1  UNL1        0.1346
     13 C         -14.2703   -0.0413   18.4180 C.ar    1  UNL1        0.0368
     14 C         -14.8217    1.2629   18.9130 C.ar    1  UNL1        0.0341
     15 C         -15.9946    1.2748   19.8479 C.ar    1  UNL1        0.1593
     16 F         -16.5460    2.5791   20.3429 F       1  UNL1       -0.2025
     17 C         -16.6162   -0.0174   20.2879 C.ar    1  UNL1        0.1298
     18 N         -16.0648   -1.3216   19.7930 N.ar    1  UNL1       -0.2267
     19 O         -14.1172   -7.9083   16.5889 O.3     1  UNL1       -0.4502
     20 C         -15.3068   -8.6000   17.1859 C.ar    1  UNL1        0.1835
     21 C         -15.1184   -9.8393   18.0099 C.ar    1  UNL1        0.1396
     22 N         -16.3079  -10.5310   18.6069 N.ar    1  UNL1       -0.2192
     23 C         -17.6859   -9.9836   18.3799 C.ar    1  UNL1        0.1991
     24 N         -17.8743   -8.7444   17.5559 N.ar    1  UNL1       -0.2192
     25 C         -16.6848   -8.0527   16.9589 C.ar    1  UNL1        0.1396
@<TRIPOS>BOND
     1     1     2    1
     2     2     3   ar
     3     3     4   ar
     4     4    19    1
     5    19    20    1
     6    20    21   ar
     7    21    22   ar
     8    22    23   ar
     9    23    24   ar
    10    24    25   ar
    11     4     5   ar
    12     5     6   ar
    13     6     8    1
    14     8     9    2
    15     8    10   am
    16    10    12    1
    17    12    13   ar
    18    13    14   ar
    19    14    15   ar
    20    15    16    1
    21    15    17   ar
    22    17    18   ar
    23     6     7   ar
    24     7     2   ar
    25    25    20   ar
    26    18    12   ar
    27    10    11    1
@<TRIPOS>MOLECULE
*****
 25 27 0 0 0
SMALL
GASTEIGER

@<TRIPOS>ATOM
      1 C          -5.0480  -14.7941   25.7170 C.3     1  UNL1        0.0522
      2 C          -5.2517  -15.8996   24.7239 C.ar    1  UNL1        0.0625
      3 C          -4.0750  -16.6818   24.2205 C.ar    1  UNL1        0.0522
      4 C          -4.2787  -17.7873   23.2273 C.ar    1  UNL1        0.1483
      5 C          -5.6591  -18.1106   22.7375 C.ar    1  UNL1        0.0612
      6 C          -6.8358  -17.3283   23.2409 C.ar    1  UNL1        0.1374
      7 N          -6.6321  -16.2228   24.2341 N.ar    1  UNL1       -0.2449
      8 C          -8.2163  -17.6516   22.7511 C.2     1  UNL1        0.2684
      9 O          -8.4069  -18.6587   21.6560 O.2     1  UNL1       -0.2681
     10 N          -9.4061  -16.9677   23.3565 N.am    1  UNL1       -0.2646
     11 H          -9.2811  -16.3067   24.0753 H       1  UNL1        0.1566
     12 C         -10.7866  -17.2909   22.8667 C.ar    1  UNL1        0.1346
     13 C         -11.7849  -17.9156   23.7958 C.ar    1  UNL1        0.0368
     14 C         -13.1654  -18.2388   23.3060 C.ar    1  UNL1        0.0341
     15 C         -13.5475  -17.9373   21.8871 C.ar    1  UNL1        0.1593
     16 F         -14.9280  -18.2606   21.3973 F       1  UNL1       -0.2025
     17 C         -12.5492  -17.3127   20.9581 C.ar    1  UNL1        0.1298
     18 N         -11.1688  -16.9895   21.4479 N.ar    1  UNL1       -0.2267
     19 O          -3.1019  -18.5696   22.7239 O.3     1  UNL1       -0.4502
     20 C          -2.5566  -18.3044   21.3519 C.ar    1  UNL1        0.1835
     21 C          -1.5991  -17.1709   21.1316 C.ar    1  UNL1        0.1396
     22 N          -1.0538  -16.9058   19.7596 N.ar    1  UNL1       -0.2192
     23 C          -1.4659  -17.7742   18.6080 C.ar    1  UNL1        0.1991
     24 N          -2.4233  -18.9077   18.8284 N.ar    1  UNL1       -0.2192
     25 C          -2.9686  -19.1728   20.2004 C.ar    1  UNL1        0.1396
@<TRIPOS>BOND
     1     1     2    1
     2     2     3   ar
     3     3     4   ar
     4     4    19    1
     5    19    20    1
     6    20    21   ar
     7    21    22   ar
     8    22    23   ar
     9    23    24   ar
    10    24    25   ar
    11     4     5   ar
    12     5     6   ar
    13     6     8    1
    14     8     9    2
    15     8    10   am
    16    10    12    1
    17    12    13   ar
    18    13    14   ar
    19    14    15   ar
    20    15    16    1
    21    15    17   ar
    22    17    18   ar
    23     6     7   ar
    24     7     2   ar
    25    25    20   ar
    26    18    12   ar
    27    10    11    1
@<TRIPOS>MOLECULE
*****
 25 27 0 0 0
SMALL
GASTEIGER

@<TRIPOS>ATOM
      1 C         -16.8504   -0.0874   19.9018 C.3     1  UNL1        0.0522
      2 C         -15.8716   -1.1364   19.4640 C.ar    1  UNL1        0.0625
      3 C         -14.4355   -0.7717   19.2310 C.ar    1  UNL1        0.0522
      4 C         -13.4567   -1.8207   18.7932 C.ar    1  UNL1        0.1483
      5 C         -13.9142   -3.2344   18.5882 C.ar    1  UNL1        0.0612
      6 C         -15.3504   -3.5992   18.8211 C.ar    1  UNL1        0.1374
      7 N         -16.3291   -2.5502   19.2590 N.ar    1  UNL1       -0.2449
      8 C         -15.8080   -5.0129   18.6162 C.2     1  UNL1        0.2684
      9 O         -16.9097   -5.3110   17.6428 O.2     1  UNL1       -0.2681
     10 N         -15.1638   -6.1286   19.3845 N.am    1  UNL1       -0.2646
     11 H         -14.4407   -5.9329   20.0233 H       1  UNL1        0.1566
     12 C         -15.6213   -7.5424   19.1795 C.ar    1  UNL1        0.1346
     13 C         -16.8465   -8.0438   19.8847 C.ar    1  UNL1        0.0368
     14 C         -17.3040   -9.4576   19.6797 C.ar    1  UNL1        0.0341
     15 C         -16.5363  -10.3698   18.7695 C.ar    1  UNL1        0.1593
     16 F         -16.9939  -11.7836   18.5646 F       1  UNL1       -0.2025
     17 C         -15.3111   -9.8683   18.0643 C.ar    1  UNL1        0.1298
     18 N         -14.8536   -8.4546   18.2693 N.ar    1  UNL1       -0.2267
     19 O         -12.0205   -1.4559   18.5603 O.3     1  UNL1       -0.4502
     20 C         -11.0736   -2.4672   17.9851 C.ar    1  UNL1        0.1835
     21 C         -10.5735   -3.5960   18.8371 C.ar    1  UNL1        0.1396
     22 N          -9.6266   -4.6072   18.2620 N.ar    1  UNL1       -0.2192
     23 C          -9.1799   -4.4897   16.8348 C.ar    1  UNL1        0.1991
     24 N          -9.6800   -3.3610   15.9829 N.ar    1  UNL1       -0.2192
     25 C         -10.6269   -2.3497   16.5580 C.ar    1  UNL1        0.1396
@<TRIPOS>BOND
     1     1     2    1
     2     2     3   ar
     3     3     4   ar
     4     4    19    1
     5    19    20    1
     6    20    21   ar
     7    21    22   ar
     8    22    23   ar
     9    23    24   ar
    10    24    25   ar
    11     4     5   ar
    12     5     6   ar
    13     6     8    1
    14     8     9    2
    15     8    10   am
    16    10    12    1
    17    12    13   ar
    18    13    14   ar
    19    14    15   ar
    20    15    16    1
    21    15    17   ar
    22    17    18   ar
    23     6     7   ar
    24     7     2   ar
    25    25    20   ar
    26    18    12   ar
    27    10    11    1
@<TRIPOS>MOLECULE
*****
 25 27 0 0 0
SMALL
GASTEIGER

@<TRIPOS>ATOM
      1 C          -6.2455  -15.2802   27.6218 C.3     1  UNL1        0.0522
      2 C          -6.0360  -15.7411   26.2099 C.ar    1  UNL1        0.0625
      3 C          -4.7422  -16.3906   25.8171 C.ar    1  UNL1        0.0522
      4 C          -4.5327  -16.8515   24.4051 C.ar    1  UNL1        0.1483
      5 C          -5.6169  -16.6628   23.3859 C.ar    1  UNL1        0.0612
      6 C          -6.9106  -16.0133   23.7787 C.ar    1  UNL1        0.1374
      7 N          -7.1202  -15.5524   25.1906 N.ar    1  UNL1       -0.2449
      8 C          -7.9949  -15.8246   22.7594 C.2     1  UNL1        0.2684
      9 O          -7.7413  -14.9876   21.5408 O.2     1  UNL1       -0.2681
     10 N          -9.3327  -16.4731   22.9588 N.am    1  UNL1       -0.2646
     11 H          -9.4992  -17.0225   23.7586 H       1  UNL1        0.1566
     12 C         -10.4170  -16.2844   21.9395 C.ar    1  UNL1        0.1346
     13 C         -11.8322  -16.6529   22.2731 C.ar    1  UNL1        0.0368
     14 C         -12.9164  -16.4642   21.2538 C.ar    1  UNL1        0.0341
     15 C         -12.5854  -15.9070   19.9011 C.ar    1  UNL1        0.1593
     16 F         -13.6697  -15.7184   18.8818 F       1  UNL1       -0.2025
     17 C         -11.1702  -15.5385   19.5675 C.ar    1  UNL1        0.1298
     18 N         -10.0860  -15.7272   20.5868 N.ar    1  UNL1       -0.2267
     19 O          -3.2388  -17.5010   24.0124 O.3     1  UNL1       -0.4502
     20 C          -2.9557  -17.7965   22.5693 C.ar    1  UNL1        0.1835
     21 C          -2.2887  -16.7641   21.7093 C.ar    1  UNL1        0.1396
     22 N          -2.0056  -17.0596   20.2662 N.ar    1  UNL1       -0.2192
     23 C          -2.3894  -18.3873   19.6831 C.ar    1  UNL1        0.1991
     24 N          -3.0563  -19.4195   20.5432 N.ar    1  UNL1       -0.2192
     25 C          -3.3394  -19.1241   21.9863 C.ar    1  UNL1        0.1396
@<TRIPOS>BOND
     1     1     2    1
     2     2     3   ar
     3     3     4   ar
     4     4    19    1
     5    19    20    1
     6    20    21   ar
     7    21    22   ar
     8    22    23   ar
     9    23    24   ar
    10    24    25   ar
    11     4     5   ar
    12     5     6   ar
    13     6     8    1
    14     8     9    2
    15     8    10   am
    16    10    12    1
    17    12    13   ar
    18    13    14   ar
    19    14    15   ar
    20    15    16    1
    21    15    17   ar
    22    17    18   ar
    23     6     7   ar
    24     7     2   ar
    25    25    20   ar
    26    18    12   ar
    27    10    11    1
@<TRIPOS>MOLECULE
*****
 25 27 0 0 0
SMALL
GASTEIGER

@<TRIPOS>ATOM
      1 C         -17.4668    0.5390   20.8082 C.3     1  UNL1        0.0522
      2 C         -16.3905    0.1772   19.8280 C.ar    1  UNL1        0.0625
      3 C         -16.1761    1.0189   18.6051 C.ar    1  UNL1        0.0522
      4 C         -15.0998    0.6572   17.6249 C.ar    1  UNL1        0.1483
      5 C         -14.2380   -0.5463   17.8676 C.ar    1  UNL1        0.0612
      6 C         -14.4524   -1.3879   19.0905 C.ar    1  UNL1        0.1374
      7 N         -15.5287   -1.0262   20.0707 N.ar    1  UNL1       -0.2449
      8 C         -13.5905   -2.5914   19.3333 C.2     1  UNL1        0.2684
      9 O         -13.5759   -3.2432   20.6842 O.2     1  UNL1       -0.2681
     10 N         -12.7434   -3.1431   18.2252 N.am    1  UNL1       -0.2646
     11 H         -12.7530   -2.7153   17.3386 H       1  UNL1        0.1566
     12 C         -11.8815   -4.3466   18.4680 C.ar    1  UNL1        0.1346
     13 C         -10.4304   -4.1740   18.8060 C.ar    1  UNL1        0.0368
     14 C          -9.5686   -5.3774   19.0488 C.ar    1  UNL1        0.0341
     15 C         -10.1580   -6.7535   18.9535 C.ar    1  UNL1        0.1593
     16 F          -9.2961   -7.9570   19.1963 F       1  UNL1       -0.2025
     17 C         -11.6091   -6.9261   18.6155 C.ar    1  UNL1        0.1298
     18 N         -12.4709   -5.7226   18.3727 N.ar    1  UNL1       -0.2267
     19 O         -14.8854    1.4989   16.4019 O.3     1  UNL1       -0.4502
     20 C         -14.2265    2.8411   16.5214 C.ar    1  UNL1        0.1835
     21 C         -12.7585    2.9324   16.8162 C.ar    1  UNL1        0.1396
     22 N         -12.0996    4.2746   16.9356 N.ar    1  UNL1       -0.2192
     23 C         -12.9087    5.5256   16.7603 C.ar    1  UNL1        0.1991
     24 N         -14.3765    5.4343   16.4655 N.ar    1  UNL1       -0.2192
     25 C         -15.0355    4.0920   16.3461 C.ar    1  UNL1        0.1396
@<TRIPOS>BOND
     1     1     2    1
     2     2     3   ar
     3     3     4   ar
     4     4    19    1
     5    19    20    1
     6    20    21   ar
     7    21    22   ar
     8    22    23   ar
     9    23    24   ar
    10    24    25   ar
    11     4     5   ar
    12     5     6   ar
    13     6     8    1
    14     8     9    2
    15     8    10   am
    16    10    12    1
    17    12    13   ar
    18    13    14   ar
    19    14    15   ar
    20    15    16    1
    21    15    17   ar
    22    17    18   ar
    23     6     7   ar
    24     7     2   ar
    25    25    20   ar
    26    18    12   ar
    27    10    11    1
