@<TRIPOS>MOLECULE
*****
 39 42 0 0 0
SMALL
GASTEIGER

@<TRIPOS>ATOM
      1 C          -6.3957  -15.0228   24.4954 C.3     1  UNL1        0.1116
      2 C          -5.2243  -15.7517   23.9066 C.ar    1  UNL1       -0.0131
      3 C          -4.3703  -15.0848   22.8694 C.ar    1  UNL1       -0.0041
      4 C          -3.1989  -15.8136   22.2808 C.ar    1  UNL1       -0.0032
      5 C          -2.8815  -17.2093   22.7293 C.ar    1  UNL1       -0.0048
      6 C          -3.7355  -17.8762   23.7665 C.ar    1  UNL1       -0.0032
      7 C          -4.9069  -17.1474   24.3552 C.ar    1  UNL1       -0.0041
      8 C          -1.7100  -17.9382   22.1406 C.3     1  UNL1        0.1177
      9 N          -1.9209  -18.9229   21.0290 N.3     1  UNL1       -0.1749
     10 H          -1.4319  -19.7773   21.2958 H       1  UNL1        0.1492
     11 S          -3.3119  -19.3246   20.6368 S.O2    1  UNL1        0.0605
     12 O          -3.2478  -20.4792   21.5921 O.2     1  UNL1       -0.1530
     13 O          -3.3761  -18.1701   19.6814 O.2     1  UNL1       -0.1530
     14 C          -4.7029  -19.7264   20.2446 C.ar    1  UNL1        0.1221
     15 C          -5.0414  -21.1762   20.0621 C.ar    1  UNL1        0.0222
     16 C          -6.4324  -21.5780   19.6699 C.ar    1  UNL1        0.0310
     17 C          -7.4848  -20.5299   19.4603 C.ar    1  UNL1        0.1402
     18 F          -8.8758  -20.9317   19.0681 F       1  UNL1       -0.2042
     19 C          -7.1462  -19.0800   19.6428 C.ar    1  UNL1        0.0310
     20 C          -5.7553  -18.6783   20.0349 C.ar    1  UNL1        0.0222
     21 C          -8.6681  -16.5004   27.3942 C.3     1  UNL1        0.1152
     22 N          -8.1733  -16.1422   26.0242 N.am    1  UNL1       -0.2740
     23 C          -6.8905  -15.3811   25.8653 C.2     1  UNL1        0.2303
     24 O          -6.1025  -14.9782   27.0764 O.2     1  UNL1       -0.2745
     25 C          -8.9613  -16.5450   24.8131 C.3     1  UNL1        0.1138
     26 C          -9.0483  -17.9904   24.4216 C.ar    1  UNL1       -0.0029
     27 C          -9.9565  -18.9177   25.1734 C.ar    1  UNL1       -0.0026
     28 C         -10.0435  -20.3631   24.7819 C.ar    1  UNL1       -0.0003
     29 C          -9.2223  -20.8812   23.6385 C.ar    1  UNL1       -0.0000
     30 C          -8.3141  -19.9538   22.8866 C.ar    1  UNL1       -0.0003
     31 C          -8.2271  -18.5084   23.2782 C.ar    1  UNL1       -0.0026
     32 C          -9.6623  -15.5024   23.9935 C.3     1  UNL1        0.0968
     33 N         -10.6110  -15.9151   22.9074 N.3     1  UNL1       -0.2689
     34 C         -12.0049  -16.4332   23.1041 C.3     1  UNL1        0.0748
     35 C         -12.5878  -16.7204   21.7521 C.3     1  UNL1        0.0480
     36 C         -11.5542  -16.3798   20.7199 C.3     1  UNL1        0.1278
     37 O         -11.7141  -16.5134   19.2344 O.3     1  UNL1       -0.3830
     38 C         -10.3325  -15.8821   21.4339 C.3     1  UNL1        0.1017
     39 H         -10.8988  -16.2263   18.7943 H       1  UNL1        0.2104
@<TRIPOS>BOND
     1    21    22    1
     2    22    23   am
     3    23    24    2
     4    23     1    1
     5     1     2    1
     6     2     3   ar
     7     3     4   ar
     8     4     5   ar
     9     5     8    1
    10     8     9    1
    11     9    11    1
    12    11    12    2
    13    11    13    2
    14    11    14    1
    15    14    15   ar
    16    15    16   ar
    17    16    17   ar
    18    17    18    1
    19    17    19   ar
    20    19    20   ar
    21     5     6   ar
    22     6     7   ar
    23    22    25    1
    24    25    32    1
    25    32    33    1
    26    33    34    1
    27    34    35    1
    28    35    36    1
    29    36    37    1
    30    36    38    1
    31    25    26    1
    32    26    27   ar
    33    27    28   ar
    34    28    29   ar
    35    29    30   ar
    36    30    31   ar
    37     7     2   ar
    38    38    33    1
    39    31    26   ar
    40    20    14   ar
    41     9    10    1
    42    37    39    1
@<TRIPOS>MOLECULE
*****
 39 42 0 0 0
SMALL
GASTEIGER

@<TRIPOS>ATOM
      1 C           4.2004   -3.3042   19.6065 C.3     1  UNL1        0.1116
      2 C           5.1141   -3.5585   20.7687 C.ar    1  UNL1       -0.0131
      3 C           4.5505   -3.6792   22.1535 C.ar    1  UNL1       -0.0041
      4 C           5.4642   -3.9335   23.3156 C.ar    1  UNL1       -0.0032
      5 C           6.9415   -4.0670   23.0928 C.ar    1  UNL1       -0.0048
      6 C           7.5052   -3.9463   21.7080 C.ar    1  UNL1       -0.0032
      7 C           6.5915   -3.6920   20.5460 C.ar    1  UNL1       -0.0041
      8 C           7.8552   -4.3213   24.2550 C.3     1  UNL1        0.1177
      9 N           7.5436   -5.4197   25.2277 N.3     1  UNL1       -0.1749
     10 H           8.3198   -6.0801   25.1848 H       1  UNL1        0.1492
     11 S           7.3275   -5.0991   26.6771 S.O2    1  UNL1        0.0605
     12 O           6.6286   -6.4131   26.8636 O.2     1  UNL1       -0.1530
     13 O           8.0264   -3.7851   26.4907 O.2     1  UNL1       -0.1530
     14 C           7.1114   -4.7785   28.1264 C.ar    1  UNL1        0.1221
     15 C           6.8071   -3.3709   28.5459 C.ar    1  UNL1        0.0222
     16 C           6.5910   -3.0503   29.9952 C.ar    1  UNL1        0.0310
     17 C           6.6793   -4.1373   31.0251 C.ar    1  UNL1        0.1402
     18 F           6.4632   -3.8168   32.4744 F       1  UNL1       -0.2042
     19 C           6.9836   -5.5450   30.6055 C.ar    1  UNL1        0.0310
     20 C           7.1997   -5.8656   29.1563 C.ar    1  UNL1        0.0222
     21 C           4.1842    0.2853   17.9139 C.3     1  UNL1        0.1152
     22 N           3.8888   -0.8323   18.8696 N.am    1  UNL1       -0.2740
     23 C           4.4958   -2.1865   18.6508 C.2     1  UNL1        0.2303
     24 O           5.3982   -2.4229   17.4762 O.2     1  UNL1       -0.2745
     25 C           2.9864   -0.5959   20.0443 C.3     1  UNL1        0.1138
     26 C           3.5704   -0.4110   21.4134 C.ar    1  UNL1       -0.0029
     27 C           5.0105   -0.0211   21.5681 C.ar    1  UNL1       -0.0026
     28 C           5.5945    0.1639   22.9374 C.ar    1  UNL1       -0.0003
     29 C           4.7384   -0.0412   24.1519 C.ar    1  UNL1       -0.0000
     30 C           3.2982   -0.4312   23.9971 C.ar    1  UNL1       -0.0003
     31 C           2.7142   -0.6161   22.6279 C.ar    1  UNL1       -0.0026
     32 C           1.4999   -0.5444   19.8496 C.3     1  UNL1        0.0968
     33 N           0.8134    0.7760   19.6622 N.3     1  UNL1       -0.2689
     34 C           0.8512    1.6215   18.4238 C.3     1  UNL1        0.0748
     35 C           0.0297    2.8508   18.6764 C.3     1  UNL1        0.0480
     36 C          -0.5160    2.7651   20.0710 C.3     1  UNL1        0.1278
     37 O          -1.3921    3.7829   20.7392 O.3     1  UNL1       -0.3830
     38 C          -0.0316    1.4828   20.6802 C.3     1  UNL1        0.1017
     39 H          -1.6040    3.4868   21.6382 H       1  UNL1        0.2104
@<TRIPOS>BOND
     1    21    22    1
     2    22    23   am
     3    23    24    2
     4    23     1    1
     5     1     2    1
     6     2     3   ar
     7     3     4   ar
     8     4     5   ar
     9     5     8    1
    10     8     9    1
    11     9    11    1
    12    11    12    2
    13    11    13    2
    14    11    14    1
    15    14    15   ar
    16    15    16   ar
    17    16    17   ar
    18    17    18    1
    19    17    19   ar
    20    19    20   ar
    21     5     6   ar
    22     6     7   ar
    23    22    25    1
    24    25    32    1
    25    32    33    1
    26    33    34    1
    27    34    35    1
    28    35    36    1
    29    36    37    1
    30    36    38    1
    31    25    26    1
    32    26    27   ar
    33    27    28   ar
    34    28    29   ar
    35    29    30   ar
    36    30    31   ar
    37     7     2   ar
    38    38    33    1
    39    31    26   ar
    40    20    14   ar
    41     9    10    1
    42    37    39    1
@<TRIPOS>MOLECULE
*****
 39 42 0 0 0
SMALL
GASTEIGER

@<TRIPOS>ATOM
      1 C         -11.3909   -4.1866   16.1781 C.3     1  UNL1        0.1116
      2 C         -11.8535   -2.8523   16.6837 C.ar    1  UNL1       -0.0131
      3 C         -11.2018   -2.2395   17.8878 C.ar    1  UNL1       -0.0041
      4 C         -11.6644   -0.9052   18.3933 C.ar    1  UNL1       -0.0032
      5 C         -12.7787   -0.1837   17.6948 C.ar    1  UNL1       -0.0048
      6 C         -13.4303   -0.7965   16.4908 C.ar    1  UNL1       -0.0032
      7 C         -12.9678   -2.1307   15.9852 C.ar    1  UNL1       -0.0041
      8 C         -13.2412    1.1507   18.2005 C.3     1  UNL1        0.1177
      9 N         -14.6790    1.5516   18.0521 N.3     1  UNL1       -0.1749
     10 H         -15.1718    0.7445   17.6699 H       1  UNL1        0.1492
     11 S         -15.4581    2.0072   19.2503 S.O2    1  UNL1        0.0605
     12 O         -16.1958    0.7012   19.2671 O.2     1  UNL1       -0.1530
     13 O         -14.7204    3.3131   19.2335 O.2     1  UNL1       -0.1530
     14 C         -16.2372    2.4626   20.4484 C.ar    1  UNL1        0.1221
     15 C         -16.0369    3.8464   20.9915 C.ar    1  UNL1        0.0222
     16 C         -16.8160    4.3020   22.1896 C.ar    1  UNL1        0.0310
     17 C         -17.7954    3.3736   22.8447 C.ar    1  UNL1        0.1402
     18 F         -18.5744    3.8291   24.0428 F       1  UNL1       -0.2042
     19 C         -17.9956    1.9897   22.3016 C.ar    1  UNL1        0.0310
     20 C         -17.2165    1.5343   21.1035 C.ar    1  UNL1        0.0222
     21 C         -10.9908   -6.9799   18.9687 C.3     1  UNL1        0.1152
     22 N         -11.6214   -5.9982   18.0261 N.am    1  UNL1       -0.2740
     23 C         -10.7603   -5.1683   17.1207 C.2     1  UNL1        0.2303
     24 O          -9.2684   -5.3201   17.1579 O.2     1  UNL1       -0.2745
     25 C         -13.1133   -5.8464   17.9889 C.3     1  UNL1        0.1138
     26 C         -13.7678   -4.6951   18.6931 C.ar    1  UNL1       -0.0029
     27 C         -13.2386   -4.2263   20.0160 C.ar    1  UNL1       -0.0026
     28 C         -13.8931   -3.0749   20.7203 C.ar    1  UNL1       -0.0003
     29 C         -15.0769   -2.3923   20.1016 C.ar    1  UNL1       -0.0000
     30 C         -15.6061   -2.8611   18.7786 C.ar    1  UNL1       -0.0003
     31 C         -14.9516   -4.0125   18.0744 C.ar    1  UNL1       -0.0026
     32 C         -13.9506   -6.8460   17.2473 C.3     1  UNL1        0.0968
     33 N         -14.8137   -7.8107   18.0052 N.3     1  UNL1       -0.2689
     34 C         -15.5701   -7.5143   19.2662 C.3     1  UNL1        0.0748
     35 C         -16.2958   -8.7615   19.6755 C.3     1  UNL1        0.0480
     36 C         -15.9880   -9.8289   18.6675 C.3     1  UNL1        0.1278
     37 O         -16.5054  -11.2367   18.6881 O.3     1  UNL1       -0.3830
     38 C         -15.0720   -9.2412   17.6352 C.3     1  UNL1        0.1017
     39 H         -16.1558  -11.7208   17.9237 H       1  UNL1        0.2104
@<TRIPOS>BOND
     1    21    22    1
     2    22    23   am
     3    23    24    2
     4    23     1    1
     5     1     2    1
     6     2     3   ar
     7     3     4   ar
     8     4     5   ar
     9     5     8    1
    10     8     9    1
    11     9    11    1
    12    11    12    2
    13    11    13    2
    14    11    14    1
    15    14    15   ar
    16    15    16   ar
    17    16    17   ar
    18    17    18    1
    19    17    19   ar
    20    19    20   ar
    21     5     6   ar
    22     6     7   ar
    23    22    25    1
    24    25    32    1
    25    32    33    1
    26    33    34    1
    27    34    35    1
    28    35    36    1
    29    36    37    1
    30    36    38    1
    31    25    26    1
    32    26    27   ar
    33    27    28   ar
    34    28    29   ar
    35    29    30   ar
    36    30    31   ar
    37     7     2   ar
    38    38    33    1
    39    31    26   ar
    40    20    14   ar
    41     9    10    1
    42    37    39    1
@<TRIPOS>MOLECULE
*****
 39 42 0 0 0
SMALL
GASTEIGER

@<TRIPOS>ATOM
      1 C           3.2014    0.6852   18.0308 C.3     1  UNL1        0.1116
      2 C           2.0368    1.3591   18.6939 C.ar    1  UNL1       -0.0131
      3 C           1.0492    0.5485   19.4798 C.ar    1  UNL1       -0.0041
      4 C          -0.1153    1.2223   20.1428 C.ar    1  UNL1       -0.0032
      5 C          -0.2923    2.7068   20.0201 C.ar    1  UNL1       -0.0048
      6 C           0.6953    3.5174   19.2342 C.ar    1  UNL1       -0.0032
      7 C           1.8598    2.8435   18.5712 C.ar    1  UNL1       -0.0041
      8 C          -1.4569    3.3806   20.6832 C.3     1  UNL1        0.1177
      9 N          -2.8265    2.7762   20.5887 N.3     1  UNL1       -0.1749
     10 H          -2.7245    1.7823   20.7937 H       1  UNL1        0.1492
     11 S          -3.9337    3.2872   21.4622 S.O2    1  UNL1        0.0605
     12 O          -2.9566    3.4900   22.5820 O.2     1  UNL1       -0.1530
     13 O          -4.9109    3.0843   20.3424 O.2     1  UNL1       -0.1530
     14 C          -5.0409    3.7981   22.3358 C.ar    1  UNL1        0.1221
     15 C          -4.8960    3.7619   23.8283 C.ar    1  UNL1        0.0222
     16 C          -6.0031    4.2728   24.7020 C.ar    1  UNL1        0.0310
     17 C          -7.2552    4.8199   24.0830 C.ar    1  UNL1        0.1402
     18 F          -8.3623    5.3308   24.9566 F       1  UNL1       -0.2042
     19 C          -7.4001    4.8560   22.5904 C.ar    1  UNL1        0.0310
     20 C          -6.2929    4.3451   21.7168 C.ar    1  UNL1        0.0222
     21 C           6.6852    0.9412   19.9142 C.3     1  UNL1        0.1152
     22 N           5.2848    0.5246   19.5747 N.am    1  UNL1       -0.2740
     23 C           4.6018    1.1018   18.3703 C.2     1  UNL1        0.2303
     24 O           5.3192    2.0955   17.5056 O.2     1  UNL1       -0.2745
     25 C           4.5674   -0.4692   20.4394 C.3     1  UNL1        0.1138
     26 C           4.5561   -1.9210   20.0626 C.ar    1  UNL1       -0.0029
     27 C           5.8144   -2.7313   20.1615 C.ar    1  UNL1       -0.0026
     28 C           5.8031   -4.1832   19.7846 C.ar    1  UNL1       -0.0003
     29 C           4.5334   -4.8247   19.3088 C.ar    1  UNL1       -0.0000
     30 C           3.2750   -4.0142   19.2099 C.ar    1  UNL1       -0.0003
     31 C           3.2864   -2.5624   19.5868 C.ar    1  UNL1       -0.0026
     32 C           3.8613   -0.0110   21.6811 C.3     1  UNL1        0.0968
     33 N           4.2504   -0.5737   23.0160 N.3     1  UNL1       -0.2689
     34 C           5.6443   -0.9035   23.4614 C.3     1  UNL1        0.0748
     35 C           5.5694   -1.4389   24.8606 C.3     1  UNL1        0.0480
     36 C           4.1292   -1.4401   25.2799 C.3     1  UNL1        0.1278
     37 O           3.5974   -1.8959   26.6064 O.3     1  UNL1       -0.3830
     38 C           3.3141   -0.9053   24.1399 C.3     1  UNL1        0.1017
     39 H           2.6330   -1.7931   26.6207 H       1  UNL1        0.2104
@<TRIPOS>BOND
     1    21    22    1
     2    22    23   am
     3    23    24    2
     4    23     1    1
     5     1     2    1
     6     2     3   ar
     7     3     4   ar
     8     4     5   ar
     9     5     8    1
    10     8     9    1
    11     9    11    1
    12    11    12    2
    13    11    13    2
    14    11    14    1
    15    14    15   ar
    16    15    16   ar
    17    16    17   ar
    18    17    18    1
    19    17    19   ar
    20    19    20   ar
    21     5     6   ar
    22     6     7   ar
    23    22    25    1
    24    25    32    1
    25    32    33    1
    26    33    34    1
    27    34    35    1
    28    35    36    1
    29    36    37    1
    30    36    38    1
    31    25    26    1
    32    26    27   ar
    33    27    28   ar
    34    28    29   ar
    35    29    30   ar
    36    30    31   ar
    37     7     2   ar
    38    38    33    1
    39    31    26   ar
    40    20    14   ar
    41     9    10    1
    42    37    39    1
@<TRIPOS>MOLECULE
*****
 39 42 0 0 0
SMALL
GASTEIGER

@<TRIPOS>ATOM
      1 C           3.4750   -1.9422   18.8921 C.3     1  UNL1        0.1116
      2 C           2.6003   -0.7519   19.1530 C.ar    1  UNL1       -0.0131
      3 C           1.4547   -0.8594   20.1152 C.ar    1  UNL1       -0.0041
      4 C           0.5800    0.3309   20.3760 C.ar    1  UNL1       -0.0032
      5 C           0.8509    1.6288   19.6745 C.ar    1  UNL1       -0.0048
      6 C           1.9965    1.7363   18.7122 C.ar    1  UNL1       -0.0032
      7 C           2.8712    0.5460   18.4514 C.ar    1  UNL1       -0.0041
      8 C          -0.0238    2.8191   19.9353 C.3     1  UNL1        0.1177
      9 N          -0.4108    3.1719   21.3409 N.3     1  UNL1       -0.1749
     10 H           0.0689    4.0427   21.5686 H       1  UNL1        0.1492
     11 S          -1.8554    3.3680   21.6943 S.O2    1  UNL1        0.0605
     12 O          -1.4528    4.1854   22.8859 O.2     1  UNL1       -0.1530
     13 O          -2.2580    2.5506   20.5028 O.2     1  UNL1       -0.1530
     14 C          -3.2999    3.5641   22.0478 C.ar    1  UNL1        0.1221
     15 C          -4.3094    3.8129   20.9667 C.ar    1  UNL1        0.0222
     16 C          -5.7540    4.0091   21.3201 C.ar    1  UNL1        0.0310
     17 C          -6.1889    3.9564   22.7547 C.ar    1  UNL1        0.1402
     18 F          -7.6334    4.1526   23.1082 F       1  UNL1       -0.2042
     19 C          -5.1793    3.7076   23.8359 C.ar    1  UNL1        0.0310
     20 C          -3.7348    3.5115   23.4824 C.ar    1  UNL1        0.0222
     21 C           7.2730   -1.6882   20.0149 C.3     1  UNL1        0.1152
     22 N           5.7835   -1.8521   20.0808 N.am    1  UNL1       -0.2740
     23 C           4.9645   -1.7783   18.8262 C.2     1  UNL1        0.2303
     24 O           5.6352   -1.5406   17.5057 O.2     1  UNL1       -0.2745
     25 C           5.1128   -2.0899   21.4013 C.3     1  UNL1        0.1138
     26 C           4.4165   -0.9616   22.1027 C.ar    1  UNL1       -0.0029
     27 C           4.7255    0.4580   21.7297 C.ar    1  UNL1       -0.0026
     28 C           4.0292    1.5864   22.4312 C.ar    1  UNL1       -0.0003
     29 C           3.0239    1.2951   23.5056 C.ar    1  UNL1       -0.0000
     30 C           2.7148   -0.1246   23.8786 C.ar    1  UNL1       -0.0003
     31 C           3.4112   -1.2529   23.1772 C.ar    1  UNL1       -0.0026
     32 C           5.1385   -3.4560   22.0203 C.3     1  UNL1        0.0968
     33 N           6.2265   -3.8214   22.9861 N.3     1  UNL1       -0.2689
     34 C           7.5627   -4.4029   22.6303 C.3     1  UNL1        0.0748
     35 C           8.3313   -4.6103   23.9016 C.3     1  UNL1        0.0480
     36 C           7.4703   -4.1570   25.0431 C.3     1  UNL1        0.1278
     37 O           7.8443   -4.1861   26.4954 O.3     1  UNL1       -0.3830
     38 C           6.1694   -3.6694   24.4773 C.3     1  UNL1        0.1017
     39 H           7.1103   -3.8379   27.0254 H       1  UNL1        0.2104
@<TRIPOS>BOND
     1    21    22    1
     2    22    23   am
     3    23    24    2
     4    23     1    1
     5     1     2    1
     6     2     3   ar
     7     3     4   ar
     8     4     5   ar
     9     5     8    1
    10     8     9    1
    11     9    11    1
    12    11    12    2
    13    11    13    2
    14    11    14    1
    15    14    15   ar
    16    15    16   ar
    17    16    17   ar
    18    17    18    1
    19    17    19   ar
    20    19    20   ar
    21     5     6   ar
    22     6     7   ar
    23    22    25    1
    24    25    32    1
    25    32    33    1
    26    33    34    1
    27    34    35    1
    28    35    36    1
    29    36    37    1
    30    36    38    1
    31    25    26    1
    32    26    27   ar
    33    27    28   ar
    34    28    29   ar
    35    29    30   ar
    36    30    31   ar
    37     7     2   ar
    38    38    33    1
    39    31    26   ar
    40    20    14   ar
    41     9    10    1
    42    37    39    1
@<TRIPOS>MOLECULE
*****
 39 42 0 0 0
SMALL
GASTEIGER

@<TRIPOS>ATOM
      1 C         -13.1475   -0.4131   18.2186 C.3     1  UNL1        0.1116
      2 C         -12.4194   -1.6943   17.9381 C.ar    1  UNL1       -0.0131
      3 C         -12.8410   -2.5602   16.7882 C.ar    1  UNL1       -0.0041
      4 C         -12.1130   -3.8413   16.5077 C.ar    1  UNL1       -0.0032
      5 C         -10.9633   -4.2564   17.3771 C.ar    1  UNL1       -0.0048
      6 C         -10.5416   -3.3904   18.5270 C.ar    1  UNL1       -0.0032
      7 C         -11.2697   -2.1094   18.8075 C.ar    1  UNL1       -0.0041
      8 C         -10.2351   -5.5375   17.0965 C.3     1  UNL1        0.1177
      9 N         -10.6989   -6.8172   17.7267 N.3     1  UNL1       -0.1749
     10 H         -10.5112   -6.7382   18.7262 H       1  UNL1        0.1492
     11 S         -12.1294   -7.2466   17.5874 S.O2    1  UNL1        0.0605
     12 O         -12.3448   -7.0041   19.0519 O.2     1  UNL1       -0.1530
     13 O         -11.9141   -7.4890   16.1229 O.2     1  UNL1       -0.1530
     14 C         -13.5599   -7.6758   17.4481 C.ar    1  UNL1        0.1221
     15 C         -14.3866   -7.1701   16.3032 C.ar    1  UNL1        0.0222
     16 C         -15.8171   -7.5994   16.1639 C.ar    1  UNL1        0.0310
     17 C         -16.4209   -8.5344   17.1695 C.ar    1  UNL1        0.1402
     18 F         -17.8514   -8.9637   17.0302 F       1  UNL1       -0.2042
     19 C         -15.5941   -9.0401   18.3144 C.ar    1  UNL1        0.0310
     20 C         -14.1637   -8.6108   18.4537 C.ar    1  UNL1        0.0222
     21 C         -16.9425    0.0248   17.1433 C.3     1  UNL1        0.1152
     22 N         -15.7305   -0.3407   17.9478 N.am    1  UNL1       -0.2740
     23 C         -14.3596   -0.0476   17.4141 C.2     1  UNL1        0.2303
     24 O         -14.2008    0.6110   16.0758 O.2     1  UNL1       -0.2745
     25 C         -15.8892   -0.9994   19.2861 C.3     1  UNL1        0.1138
     26 C         -15.6925   -2.4802   19.4213 C.ar    1  UNL1       -0.0029
     27 C         -16.5756   -3.4264   18.6632 C.ar    1  UNL1       -0.0026
     28 C         -16.3789   -4.9073   18.7983 C.ar    1  UNL1       -0.0003
     29 C         -15.2990   -5.4420   19.6916 C.ar    1  UNL1       -0.0000
     30 C         -14.4159   -4.4958   20.4498 C.ar    1  UNL1       -0.0003
     31 C         -14.6126   -3.0149   20.3146 C.ar    1  UNL1       -0.0026
     32 C         -16.2448   -0.1771   20.4893 C.3     1  UNL1        0.0968
     33 N         -17.6563    0.2900   20.6880 N.3     1  UNL1       -0.2689
     34 C         -18.8938   -0.5349   20.4924 C.3     1  UNL1        0.0748
     35 C         -20.0804    0.3293   20.8007 C.3     1  UNL1        0.0480
     36 C         -19.5764    1.6883   21.1868 C.3     1  UNL1        0.1278
     37 O         -20.4220    2.8650   21.5745 O.3     1  UNL1       -0.3830
     38 C         -18.0782    1.6640   21.1171 C.3     1  UNL1        0.1017
     39 H         -19.8498    3.6215   21.7773 H       1  UNL1        0.2104
@<TRIPOS>BOND
     1    21    22    1
     2    22    23   am
     3    23    24    2
     4    23     1    1
     5     1     2    1
     6     2     3   ar
     7     3     4   ar
     8     4     5   ar
     9     5     8    1
    10     8     9    1
    11     9    11    1
    12    11    12    2
    13    11    13    2
    14    11    14    1
    15    14    15   ar
    16    15    16   ar
    17    16    17   ar
    18    17    18    1
    19    17    19   ar
    20    19    20   ar
    21     5     6   ar
    22     6     7   ar
    23    22    25    1
    24    25    32    1
    25    32    33    1
    26    33    34    1
    27    34    35    1
    28    35    36    1
    29    36    37    1
    30    36    38    1
    31    25    26    1
    32    26    27   ar
    33    27    28   ar
    34    28    29   ar
    35    29    30   ar
    36    30    31   ar
    37     7     2   ar
    38    38    33    1
    39    31    26   ar
    40    20    14   ar
    41     9    10    1
    42    37    39    1
@<TRIPOS>MOLECULE
*****
 39 42 0 0 0
SMALL
GASTEIGER

@<TRIPOS>ATOM
      1 C         -12.9399   -1.9717   19.0156 C.3     1  UNL1        0.1116
      2 C         -12.9013   -3.4278   18.6575 C.ar    1  UNL1       -0.0131
      3 C         -12.5942   -3.8461   17.2501 C.ar    1  UNL1       -0.0041
      4 C         -12.5556   -5.3022   16.8920 C.ar    1  UNL1       -0.0032
      5 C         -12.8241   -6.3400   17.9413 C.ar    1  UNL1       -0.0048
      6 C         -13.1312   -5.9217   19.3486 C.ar    1  UNL1       -0.0032
      7 C         -13.1698   -4.4656   19.7067 C.ar    1  UNL1       -0.0041
      8 C         -12.7855   -7.7962   17.5831 C.3     1  UNL1        0.1177
      9 N         -13.9585   -8.4311   16.8969 N.3     1  UNL1       -0.1749
     10 H         -13.6614   -9.3631   16.6079 H       1  UNL1        0.1492
     11 S         -15.2562   -8.5983   17.6304 S.O2    1  UNL1        0.0605
     12 O         -14.6103   -9.5957   18.5458 O.2     1  UNL1       -0.1530
     13 O         -15.9021   -7.6009   16.7151 O.2     1  UNL1       -0.1530
     14 C         -16.5539   -8.7655   18.3639 C.ar    1  UNL1        0.1221
     15 C         -16.7918   -8.0236   19.6456 C.ar    1  UNL1        0.0222
     16 C         -18.0896   -8.1907   20.3792 C.ar    1  UNL1        0.0310
     17 C         -19.1493   -9.0999   19.8310 C.ar    1  UNL1        0.1402
     18 F         -20.4469   -9.2671   20.5645 F       1  UNL1       -0.2042
     19 C         -18.9112   -9.8418   18.5492 C.ar    1  UNL1        0.0310
     20 C         -17.6136   -9.6746   17.8157 C.ar    1  UNL1        0.0222
     21 C         -15.2919    0.4959   16.9836 C.3     1  UNL1        0.1152
     22 N         -14.8314   -0.5129   17.9936 N.am    1  UNL1       -0.2740
     23 C         -13.4005   -0.9629   18.0056 C.2     1  UNL1        0.2303
     24 O         -12.4301   -0.4039   17.0076 O.2     1  UNL1       -0.2745
     25 C         -15.8017   -1.0719   18.9916 C.3     1  UNL1        0.1138
     26 C         -16.4881   -2.3777   18.7202 C.ar    1  UNL1       -0.0029
     27 C         -17.4078   -2.9692   19.7470 C.ar    1  UNL1       -0.0026
     28 C         -18.0942   -4.2750   19.4755 C.ar    1  UNL1       -0.0003
     29 C         -17.8610   -4.9893   18.1773 C.ar    1  UNL1       -0.0000
     30 C         -16.9412   -4.3978   17.1505 C.ar    1  UNL1       -0.0003
     31 C         -16.2548   -3.0920   17.4220 C.ar    1  UNL1       -0.0026
     32 C         -16.0856   -0.3250   20.2611 C.3     1  UNL1        0.0968
     33 N         -17.2572    0.6088   20.3359 N.3     1  UNL1       -0.2689
     34 C         -17.6286    1.4651   21.5101 C.3     1  UNL1        0.0748
     35 C         -18.8640    2.2357   21.1496 C.3     1  UNL1        0.0480
     36 C         -19.2560    1.8557   19.7525 C.3     1  UNL1        0.1278
     37 O         -20.4342    2.3878   18.9917 O.3     1  UNL1       -0.3830
     38 C         -18.2630    0.8502   19.2496 C.3     1  UNL1        0.1017
     39 H         -20.4618    1.9804   18.1119 H       1  UNL1        0.2104
@<TRIPOS>BOND
     1    21    22    1
     2    22    23   am
     3    23    24    2
     4    23     1    1
     5     1     2    1
     6     2     3   ar
     7     3     4   ar
     8     4     5   ar
     9     5     8    1
    10     8     9    1
    11     9    11    1
    12    11    12    2
    13    11    13    2
    14    11    14    1
    15    14    15   ar
    16    15    16   ar
    17    16    17   ar
    18    17    18    1
    19    17    19   ar
    20    19    20   ar
    21     5     6   ar
    22     6     7   ar
    23    22    25    1
    24    25    32    1
    25    32    33    1
    26    33    34    1
    27    34    35    1
    28    35    36    1
    29    36    37    1
    30    36    38    1
    31    25    26    1
    32    26    27   ar
    33    27    28   ar
    34    28    29   ar
    35    29    30   ar
    36    30    31   ar
    37     7     2   ar
    38    38    33    1
    39    31    26   ar
    40    20    14   ar
    41     9    10    1
    42    37    39    1
@<TRIPOS>MOLECULE
*****
 39 42 0 0 0
SMALL
GASTEIGER

@<TRIPOS>ATOM
      1 C         -13.5960   -1.4020   19.3522 C.3     1  UNL1        0.1116
      2 C         -13.3751   -2.8765   19.1872 C.ar    1  UNL1       -0.0131
      3 C         -12.8609   -3.4168   17.8858 C.ar    1  UNL1       -0.0041
      4 C         -12.6401   -4.8912   17.7208 C.ar    1  UNL1       -0.0032
      5 C         -12.9335   -5.8253   18.8572 C.ar    1  UNL1       -0.0048
      6 C         -13.4478   -5.2850   20.1585 C.ar    1  UNL1       -0.0032
      7 C         -13.6686   -3.8106   20.3235 C.ar    1  UNL1       -0.0041
      8 C         -12.7127   -7.2998   18.6921 C.3     1  UNL1        0.1177
      9 N         -13.3143   -8.0221   17.5232 N.3     1  UNL1       -0.1749
     10 H         -12.7482   -8.8566   17.3697 H       1  UNL1        0.1492
     11 S         -14.7442   -8.4723   17.5749 S.O2    1  UNL1        0.0605
     12 O         -15.0355   -7.6899   16.3288 O.2     1  UNL1       -0.1530
     13 O         -14.4529   -9.2547   18.8211 O.2     1  UNL1       -0.1530
     14 C         -16.1741   -8.9224   17.6266 C.ar    1  UNL1        0.1221
     15 C         -16.5320  -10.2056   18.3160 C.ar    1  UNL1        0.0222
     16 C         -17.9619  -10.6558   18.3677 C.ar    1  UNL1        0.0310
     17 C         -19.0340   -9.8228   17.7299 C.ar    1  UNL1        0.1402
     18 F         -20.4639  -10.2730   17.7815 F       1  UNL1       -0.2042
     19 C         -18.6761   -8.5396   17.0404 C.ar    1  UNL1        0.0310
     20 C         -17.2462   -8.0894   16.9888 C.ar    1  UNL1        0.0222
     21 C         -13.8777    1.3732   16.5293 C.3     1  UNL1        0.1152
     22 N         -14.2564    0.4300   17.6324 N.am    1  UNL1       -0.2740
     23 C         -13.2172   -0.4588   18.2491 C.2     1  UNL1        0.2303
     24 O         -11.7994   -0.4044   17.7626 O.2     1  UNL1       -0.2745
     25 C         -15.6743    0.3756   18.1189 C.3     1  UNL1        0.1138
     26 C         -16.0881    1.1802   19.3153 C.ar    1  UNL1       -0.0029
     27 C         -15.6395    2.6050   19.4525 C.ar    1  UNL1       -0.0026
     28 C         -16.0534    3.4097   20.6489 C.ar    1  UNL1       -0.0003
     29 C         -16.9158    2.7896   21.7080 C.ar    1  UNL1       -0.0000
     30 C         -17.3644    1.3648   21.5707 C.ar    1  UNL1       -0.0003
     31 C         -16.9505    0.5601   20.3744 C.ar    1  UNL1       -0.0026
     32 C         -16.6783   -0.4835   17.4090 C.3     1  UNL1        0.0968
     33 N         -16.6418   -1.9737   17.5761 N.3     1  UNL1       -0.2689
     34 C         -16.2417   -2.9690   16.5276 C.3     1  UNL1        0.0748
     35 C         -16.3516   -4.3407   17.1245 C.3     1  UNL1        0.0480
     36 C         -16.8196   -4.1932   18.5420 C.3     1  UNL1        0.1278
     37 O         -17.0652   -5.3121   19.5104 O.3     1  UNL1       -0.3830
     38 C         -16.9990   -2.7304   18.8211 C.3     1  UNL1        0.1017
     39 H         -17.3620   -4.9465   20.3584 H       1  UNL1        0.2104
@<TRIPOS>BOND
     1    21    22    1
     2    22    23   am
     3    23    24    2
     4    23     1    1
     5     1     2    1
     6     2     3   ar
     7     3     4   ar
     8     4     5   ar
     9     5     8    1
    10     8     9    1
    11     9    11    1
    12    11    12    2
    13    11    13    2
    14    11    14    1
    15    14    15   ar
    16    15    16   ar
    17    16    17   ar
    18    17    18    1
    19    17    19   ar
    20    19    20   ar
    21     5     6   ar
    22     6     7   ar
    23    22    25    1
    24    25    32    1
    25    32    33    1
    26    33    34    1
    27    34    35    1
    28    35    36    1
    29    36    37    1
    30    36    38    1
    31    25    26    1
    32    26    27   ar
    33    27    28   ar
    34    28    29   ar
    35    29    30   ar
    36    30    31   ar
    37     7     2   ar
    38    38    33    1
    39    31    26   ar
    40    20    14   ar
    41     9    10    1
    42    37    39    1
@<TRIPOS>MOLECULE
*****
 39 42 0 0 0
SMALL
GASTEIGER

@<TRIPOS>ATOM
      1 C           3.0021   -1.2574   18.7900 C.3     1  UNL1        0.1116
      2 C           2.0127   -0.2354   19.2661 C.ar    1  UNL1       -0.0131
      3 C           1.4262   -0.3435   20.6424 C.ar    1  UNL1       -0.0041
      4 C           0.4369    0.6786   21.1184 C.ar    1  UNL1       -0.0032
      5 C           0.0341    1.8087   20.2182 C.ar    1  UNL1       -0.0048
      6 C           0.6205    1.9168   18.8418 C.ar    1  UNL1       -0.0032
      7 C           1.6099    0.8948   18.3658 C.ar    1  UNL1       -0.0041
      8 C          -0.9553    2.8308   20.6943 C.3     1  UNL1        0.1177
      9 N          -2.3699    2.7940   20.1967 N.3     1  UNL1       -0.1749
     10 H          -2.5653    1.8274   19.9361 H       1  UNL1        0.1492
     11 S          -3.4908    3.2367   21.0898 S.O2    1  UNL1        0.0605
     12 O          -4.4099    3.2978   19.9059 O.2     1  UNL1       -0.1530
     13 O          -2.5718    3.1756   22.2737 O.2     1  UNL1       -0.1530
     14 C          -4.6117    3.6794   21.9828 C.ar    1  UNL1        0.1221
     15 C          -4.4632    3.5909   23.4728 C.ar    1  UNL1        0.0222
     16 C          -5.5842    4.0337   24.3659 C.ar    1  UNL1        0.0310
     17 C          -6.8536    4.5648   23.7689 C.ar    1  UNL1        0.1402
     18 F          -7.9745    5.0075   24.6619 F       1  UNL1       -0.2042
     19 C          -7.0021    4.6533   22.2789 C.ar    1  UNL1        0.0310
     20 C          -5.8812    4.2106   21.3859 C.ar    1  UNL1        0.0222
     21 C           6.4646    0.0752   17.3812 C.3     1  UNL1        0.1152
     22 N           5.3832   -0.3190   18.3430 N.am    1  UNL1       -0.2740
     23 C           4.0836   -0.8633   17.8283 C.2     1  UNL1        0.2303
     24 O           3.8656   -1.0134   16.3518 O.2     1  UNL1       -0.2745
     25 C           5.6012   -0.1688   19.8194 C.3     1  UNL1        0.1138
     26 C           5.5480   -1.3734   20.7117 C.ar    1  UNL1       -0.0029
     27 C           6.3590   -2.5903   20.3780 C.ar    1  UNL1       -0.0026
     28 C           6.3059   -3.7949   21.2703 C.ar    1  UNL1       -0.0003
     29 C           5.4417   -3.7825   22.4963 C.ar    1  UNL1       -0.0000
     30 C           4.6307   -2.5655   22.8300 C.ar    1  UNL1       -0.0003
     31 C           4.6839   -1.3610   21.9377 C.ar    1  UNL1       -0.0026
     32 C           5.8723    1.1859   20.4036 C.3     1  UNL1        0.0968
     33 N           4.8465    2.2736   20.2831 N.3     1  UNL1       -0.2689
     34 C           3.8922    2.7083   21.3557 C.3     1  UNL1        0.0748
     35 C           3.0507    3.8209   20.8044 C.3     1  UNL1        0.0480
     36 C           3.4849    4.0739   19.3911 C.3     1  UNL1        0.1278
     37 O           2.9102    5.1026   18.4628 O.3     1  UNL1       -0.3830
     38 C           4.5948    3.1177   19.0689 C.3     1  UNL1        0.1017
     39 H           3.3682    5.0593   17.6088 H       1  UNL1        0.2104
@<TRIPOS>BOND
     1    21    22    1
     2    22    23   am
     3    23    24    2
     4    23     1    1
     5     1     2    1
     6     2     3   ar
     7     3     4   ar
     8     4     5   ar
     9     5     8    1
    10     8     9    1
    11     9    11    1
    12    11    12    2
    13    11    13    2
    14    11    14    1
    15    14    15   ar
    16    15    16   ar
    17    16    17   ar
    18    17    18    1
    19    17    19   ar
    20    19    20   ar
    21     5     6   ar
    22     6     7   ar
    23    22    25    1
    24    25    32    1
    25    32    33    1
    26    33    34    1
    27    34    35    1
    28    35    36    1
    29    36    37    1
    30    36    38    1
    31    25    26    1
    32    26    27   ar
    33    27    28   ar
    34    28    29   ar
    35    29    30   ar
    36    30    31   ar
    37     7     2   ar
    38    38    33    1
    39    31    26   ar
    40    20    14   ar
    41     9    10    1
    42    37    39    1
