@<TRIPOS>MOLECULE
*****
 31 34 0 0 0
SMALL
GASTEIGER

@<TRIPOS>ATOM
      1 C           8.3201   -8.0973   26.4283 C.ar    1  UNL1        0.0789
      2 C           9.3150   -8.1750   25.3085 C.ar    1  UNL1        0.0178
      3 C           9.4226   -7.0506   24.3214 C.ar    1  UNL1        0.0216
      4 C           8.5352   -5.8485   24.4542 C.ar    1  UNL1        0.1294
      5 C           7.5402   -5.7709   25.5741 C.ar    1  UNL1        0.1172
      6 N           7.4327   -6.8952   26.5611 N.ar    1  UNL1       -0.2451
      7 S           8.6427   -4.7242   23.4672 S.O2    1  UNL1        0.0291
      8 O           7.9478   -5.5630   22.4360 O.2     1  UNL1       -0.1642
      9 O           9.3377   -3.8854   24.4984 O.2     1  UNL1       -0.1642
     10 C           8.7503   -3.5999   22.4802 C.ar    1  UNL1        0.1148
     11 C           9.0671   -3.8911   21.0432 C.ar    1  UNL1        0.0485
     12 C           9.1746   -2.7667   20.0561 C.ar    1  UNL1        0.1437
     13 F           9.4914   -3.0579   18.6192 F       1  UNL1       -0.2041
     14 C           8.9653   -1.3512   20.5060 C.ar    1  UNL1        0.0593
     15 C           8.6486   -1.0599   21.9430 C.ar    1  UNL1        0.1437
     16 F           8.4393    0.3556   22.3929 F       1  UNL1       -0.2041
     17 C           8.5410   -2.1843   22.9301 C.ar    1  UNL1        0.0485
     18 C           8.2125   -9.2216   27.4154 C.3     1  UNL1        0.1361
     19 O           8.2269  -12.1225   28.1800 O.2     1  UNL1       -0.2668
     20 C           6.9249  -11.4135   27.9517 C.2     1  UNL1        0.2809
     21 N           6.9177   -9.9631   27.5694 N.am    1  UNL1       -0.2931
     22 H           6.0631   -9.4978   27.4195 H       1  UNL1        0.1502
     23 C           5.6301  -12.1550   28.1057 C.ar    1  UNL1        0.1984
     24 C           4.5157  -11.7979   29.0440 C.ar    1  UNL1        0.0453
     25 C           3.4192  -12.8060   28.8666 C.ar    1  UNL1        0.0409
     26 C           2.0796  -12.9580   29.5239 C.ar    1  UNL1        0.0238
     27 C           1.1767  -14.0902   29.1333 C.ar    1  UNL1        0.0991
     28 N           1.6134  -15.0705   28.0853 N.ar    1  UNL1       -0.2391
     29 C           2.9531  -14.9185   27.4279 C.ar    1  UNL1        0.1362
     30 C           3.8560  -13.7862   27.8186 C.ar    1  UNL1        0.1646
     31 O           5.2224  -13.3839   27.3483 O.2     1  UNL1       -0.4473
@<TRIPOS>BOND
     1    19    20    2
     2    20    21   am
     3    21    18    1
     4    18     1    1
     5     1     2   ar
     6     2     3   ar
     7     3     4   ar
     8     4     7    1
     9     7     8    2
    10     7     9    2
    11     7    10    1
    12    10    11   ar
    13    11    12   ar
    14    12    13    1
    15    12    14   ar
    16    14    15   ar
    17    15    16    1
    18    15    17   ar
    19     4     5   ar
    20     5     6   ar
    21    20    23    1
    22    23    24   ar
    23    24    25   ar
    24    25    26   ar
    25    26    27   ar
    26    27    28   ar
    27    28    29   ar
    28    29    30   ar
    29    30    31   ar
    30     6     1   ar
    31    31    23   ar
    32    17    10   ar
    33    30    25   ar
    34    21    22    1
@<TRIPOS>MOLECULE
*****
 31 34 0 0 0
SMALL
GASTEIGER

@<TRIPOS>ATOM
      1 C           8.1072   -8.8082   27.4751 C.ar    1  UNL1        0.0789
      2 C           8.8408   -7.8485   28.3644 C.ar    1  UNL1        0.0178
      3 C           9.0693   -6.4354   27.9160 C.ar    1  UNL1        0.0216
      4 C           8.5642   -5.9820   26.5783 C.ar    1  UNL1        0.1294
      5 C           7.8306   -6.9418   25.6890 C.ar    1  UNL1        0.1172
      6 N           7.6021   -8.3548   26.1375 N.ar    1  UNL1       -0.2451
      7 S           8.7927   -4.5690   26.1299 S.O2    1  UNL1        0.0291
      8 O           9.3704   -4.2360   27.4735 O.2     1  UNL1       -0.1642
      9 O           8.2150   -4.9020   24.7863 O.2     1  UNL1       -0.1642
     10 C           9.0212   -3.1560   25.6815 C.ar    1  UNL1        0.1148
     11 C           9.1108   -2.8387   24.2181 C.ar    1  UNL1        0.0485
     12 C           9.3392   -1.4257   23.7697 C.ar    1  UNL1        0.1437
     13 F           9.4288   -1.1084   22.3064 F       1  UNL1       -0.2041
     14 C           9.4782   -0.3299   24.7846 C.ar    1  UNL1        0.0593
     15 C           9.3886   -0.6471   26.2479 C.ar    1  UNL1        0.1437
     16 F           9.5275    0.4486   27.2628 F       1  UNL1       -0.2041
     17 C           9.1601   -2.0602   26.6964 C.ar    1  UNL1        0.0485
     18 C           7.8787  -10.2213   27.9235 C.3     1  UNL1        0.1361
     19 O           7.4488  -13.1241   28.5468 O.2     1  UNL1       -0.2668
     20 C           6.2744  -12.2377   28.2555 C.2     1  UNL1        0.2809
     21 N           6.4893  -10.7863   27.9438 N.am    1  UNL1       -0.2931
     22 H           5.7185  -10.2045   27.7526 H       1  UNL1        0.1502
     23 C           4.8850  -12.8027   28.2758 C.ar    1  UNL1        0.1984
     24 C           3.6139  -12.0139   28.3862 C.ar    1  UNL1        0.0453
     25 C           2.4661  -12.9793   28.3679 C.ar    1  UNL1        0.0409
     26 C           0.9821  -12.7759   28.4464 C.ar    1  UNL1        0.0238
     27 C           0.0597  -13.9579   28.4031 C.ar    1  UNL1        0.0991
     28 N           0.6214  -15.3435   28.2814 N.ar    1  UNL1       -0.2391
     29 C           2.1054  -15.5469   28.2029 C.ar    1  UNL1        0.1362
     30 C           3.0278  -14.3649   28.2462 C.ar    1  UNL1        0.1646
     31 O           4.5227  -14.2557   28.1892 O.2     1  UNL1       -0.4473
@<TRIPOS>BOND
     1    19    20    2
     2    20    21   am
     3    21    18    1
     4    18     1    1
     5     1     2   ar
     6     2     3   ar
     7     3     4   ar
     8     4     7    1
     9     7     8    2
    10     7     9    2
    11     7    10    1
    12    10    11   ar
    13    11    12   ar
    14    12    13    1
    15    12    14   ar
    16    14    15   ar
    17    15    16    1
    18    15    17   ar
    19     4     5   ar
    20     5     6   ar
    21    20    23    1
    22    23    24   ar
    23    24    25   ar
    24    25    26   ar
    25    26    27   ar
    26    27    28   ar
    27    28    29   ar
    28    29    30   ar
    29    30    31   ar
    30     6     1   ar
    31    31    23   ar
    32    17    10   ar
    33    30    25   ar
    34    21    22    1
@<TRIPOS>MOLECULE
*****
 31 34 0 0 0
SMALL
GASTEIGER

@<TRIPOS>ATOM
      1 C           8.2964   -8.6269   27.6192 C.ar    1  UNL1        0.0789
      2 C           8.1065   -8.1167   26.2215 C.ar    1  UNL1        0.0178
      3 C           8.3106   -6.6615   25.9201 C.ar    1  UNL1        0.0216
      4 C           8.7047   -5.7166   27.0164 C.ar    1  UNL1        0.1294
      5 C           8.8945   -6.2269   28.4141 C.ar    1  UNL1        0.1172
      6 N           8.6904   -7.6820   28.7155 N.ar    1  UNL1       -0.2451
      7 S           8.9088   -4.2615   26.7150 S.O2    1  UNL1        0.0291
      8 O           9.3291   -4.6098   25.3179 O.2     1  UNL1       -0.1642
      9 O           8.4885   -3.9131   28.1121 O.2     1  UNL1       -0.1642
     10 C           9.1130   -2.8063   26.4137 C.ar    1  UNL1        0.1148
     11 C           9.2085   -1.8144   27.5349 C.ar    1  UNL1        0.0485
     12 C           9.4127   -0.3593   27.2335 C.ar    1  UNL1        0.1437
     13 F           9.5083    0.6326   28.3547 F       1  UNL1       -0.2041
     14 C           9.5213    0.1040   25.8110 C.ar    1  UNL1        0.0593
     15 C           9.4257   -0.8878   24.6898 C.ar    1  UNL1        0.1437
     16 F           9.5343   -0.4246   23.2673 F       1  UNL1       -0.2041
     17 C           9.2215   -2.3431   24.9911 C.ar    1  UNL1        0.0485
     18 C           8.0922  -10.0821   27.9206 C.3     1  UNL1        0.1361
     19 O           7.6739  -12.9631   28.6452 O.2     1  UNL1       -0.2668
     20 C           6.4972  -12.0960   28.3082 C.2     1  UNL1        0.2809
     21 N           6.7064  -10.6556   27.9459 N.am    1  UNL1       -0.2931
     22 H           5.9341  -10.0865   27.7247 H       1  UNL1        0.1502
     23 C           5.1114  -12.6695   28.3335 C.ar    1  UNL1        0.1984
     24 C           3.8952  -12.0109   28.9140 C.ar    1  UNL1        0.0453
     25 C           2.7305  -12.9366   28.7220 C.ar    1  UNL1        0.0409
     26 C           1.2822  -12.8178   29.0936 C.ar    1  UNL1        0.0238
     27 C           0.3303  -13.9297   28.7658 C.ar    1  UNL1        0.0991
     28 N           0.8267  -15.1604   28.0665 N.ar    1  UNL1       -0.2391
     29 C           2.2751  -15.2791   27.6950 C.ar    1  UNL1        0.1362
     30 C           3.2270  -14.1672   28.0227 C.ar    1  UNL1        0.1646
     31 O           4.6984  -14.0021   27.7826 O.2     1  UNL1       -0.4473
@<TRIPOS>BOND
     1    19    20    2
     2    20    21   am
     3    21    18    1
     4    18     1    1
     5     1     2   ar
     6     2     3   ar
     7     3     4   ar
     8     4     7    1
     9     7     8    2
    10     7     9    2
    11     7    10    1
    12    10    11   ar
    13    11    12   ar
    14    12    13    1
    15    12    14   ar
    16    14    15   ar
    17    15    16    1
    18    15    17   ar
    19     4     5   ar
    20     5     6   ar
    21    20    23    1
    22    23    24   ar
    23    24    25   ar
    24    25    26   ar
    25    26    27   ar
    26    27    28   ar
    27    28    29   ar
    28    29    30   ar
    29    30    31   ar
    30     6     1   ar
    31    31    23   ar
    32    17    10   ar
    33    30    25   ar
    34    21    22    1
@<TRIPOS>MOLECULE
*****
 31 34 0 0 0
SMALL
GASTEIGER

@<TRIPOS>ATOM
      1 C          -0.6567    2.7790   19.5922 C.ar    1  UNL1        0.0789
      2 C           0.3087    2.7795   18.4442 C.ar    1  UNL1        0.0178
      3 C           1.3313    1.6887   18.3237 C.ar    1  UNL1        0.0216
      4 C           1.3885    0.5974   19.3512 C.ar    1  UNL1        0.1294
      5 C           0.4230    0.5969   20.4993 C.ar    1  UNL1        0.1172
      6 N          -0.5996    1.6877   20.6197 N.ar    1  UNL1       -0.2451
      7 S           2.4110   -0.4933   19.2308 S.O2    1  UNL1        0.0291
      8 O           1.9655   -1.0564   20.5478 O.2     1  UNL1       -0.1642
      9 O           2.8565    0.0697   17.9138 O.2     1  UNL1       -0.1642
     10 C           3.4336   -1.5841   19.1103 C.ar    1  UNL1        0.1148
     11 C           4.8111   -1.2685   18.6073 C.ar    1  UNL1        0.0485
     12 C           5.8337   -2.3593   18.4869 C.ar    1  UNL1        0.1437
     13 F           7.2111   -2.0437   17.9839 F       1  UNL1       -0.2041
     14 C           5.4788   -3.7656   18.8694 C.ar    1  UNL1        0.0593
     15 C           4.1014   -4.0812   19.3724 C.ar    1  UNL1        0.1437
     16 F           3.7465   -5.4875   19.7549 F       1  UNL1       -0.2041
     17 C           3.0787   -2.9904   19.4929 C.ar    1  UNL1        0.0485
     18 C          -1.6794    3.8698   19.7127 C.3     1  UNL1        0.1361
     19 O          -4.2464    2.7272   20.7638 O.2     1  UNL1       -0.2668
     20 C          -3.4677    3.7072   21.5903 C.2     1  UNL1        0.2809
     21 N          -2.1842    4.2785   21.0648 N.am    1  UNL1       -0.2931
     22 H          -1.6731    4.9217   21.6073 H       1  UNL1        0.1502
     23 C          -3.9725    4.1159   22.9424 C.ar    1  UNL1        0.1984
     24 C          -5.1907    4.9479   23.2143 C.ar    1  UNL1        0.0453
     25 C          -5.3188    5.1106   24.6999 C.ar    1  UNL1        0.0409
     26 C          -6.3255    5.8302   25.5476 C.ar    1  UNL1        0.0238
     27 C          -6.1932    5.8185   27.0417 C.ar    1  UNL1        0.0991
     28 N          -5.0541    5.0871   27.6880 N.ar    1  UNL1       -0.2391
     29 C          -4.0475    4.3675   26.8403 C.ar    1  UNL1        0.1362
     30 C          -4.1798    4.3792   25.3462 C.ar    1  UNL1        0.1646
     31 O          -3.3478    3.7645   24.2600 O.2     1  UNL1       -0.4473
@<TRIPOS>BOND
     1    19    20    2
     2    20    21   am
     3    21    18    1
     4    18     1    1
     5     1     2   ar
     6     2     3   ar
     7     3     4   ar
     8     4     7    1
     9     7     8    2
    10     7     9    2
    11     7    10    1
    12    10    11   ar
    13    11    12   ar
    14    12    13    1
    15    12    14   ar
    16    14    15   ar
    17    15    16    1
    18    15    17   ar
    19     4     5   ar
    20     5     6   ar
    21    20    23    1
    22    23    24   ar
    23    24    25   ar
    24    25    26   ar
    25    26    27   ar
    26    27    28   ar
    27    28    29   ar
    28    29    30   ar
    29    30    31   ar
    30     6     1   ar
    31    31    23   ar
    32    17    10   ar
    33    30    25   ar
    34    21    22    1
@<TRIPOS>MOLECULE
*****
 31 34 0 0 0
SMALL
GASTEIGER

@<TRIPOS>ATOM
      1 C           7.3912   -4.4785   26.9389 C.ar    1  UNL1        0.0789
      2 C           7.7349   -5.5062   25.9018 C.ar    1  UNL1        0.0178
      3 C           7.3151   -5.3026   24.4762 C.ar    1  UNL1        0.0216
      4 C           6.5516   -4.0713   24.0877 C.ar    1  UNL1        0.1294
      5 C           6.2079   -3.0435   25.1249 C.ar    1  UNL1        0.1172
      6 N           6.6277   -3.2472   26.5505 N.ar    1  UNL1       -0.2451
      7 S           6.1318   -3.8676   22.6622 S.O2    1  UNL1        0.0291
      8 O           7.3359   -4.6324   22.1983 O.2     1  UNL1       -0.1642
      9 O           4.9277   -3.1029   23.1260 O.2     1  UNL1       -0.1642
     10 C           5.7120   -3.6640   21.2366 C.ar    1  UNL1        0.1148
     11 C           6.6119   -2.9297   20.2873 C.ar    1  UNL1        0.0485
     12 C           6.1921   -2.7261   18.8618 C.ar    1  UNL1        0.1437
     13 F           7.0920   -1.9918   17.9125 F       1  UNL1       -0.2041
     14 C           4.8724   -3.2567   18.3854 C.ar    1  UNL1        0.0593
     15 C           3.9725   -3.9909   19.3346 C.ar    1  UNL1        0.1437
     16 F           2.6529   -4.5215   18.8583 F       1  UNL1       -0.2041
     17 C           4.3923   -4.1946   20.7603 C.ar    1  UNL1        0.0485
     18 C           7.8111   -4.6821   28.3646 C.3     1  UNL1        0.1361
     19 O           6.8471   -5.5302   31.0759 O.2     1  UNL1       -0.2668
     20 C           6.9961   -4.0726   30.7550 C.2     1  UNL1        0.2809
     21 N           7.4781   -3.6485   29.3994 N.am    1  UNL1       -0.2931
     22 H           7.5758   -2.6918   29.1887 H       1  UNL1        0.1502
     23 C           6.6631   -3.0390   31.7898 C.ar    1  UNL1        0.1984
     24 C           5.3263   -2.8422   32.4411 C.ar    1  UNL1        0.0453
     25 C           5.4454   -1.7023   33.4088 C.ar    1  UNL1        0.0409
     26 C           4.4518   -1.0611   34.3316 C.ar    1  UNL1        0.0238
     27 C           4.8686    0.0879   35.2011 C.ar    1  UNL1        0.0991
     28 N           6.2791    0.5956   35.1478 N.ar    1  UNL1       -0.2391
     29 C           7.2727   -0.0456   34.2251 C.ar    1  UNL1        0.1362
     30 C           6.8559   -1.1946   33.3556 C.ar    1  UNL1        0.1646
     31 O           7.6084   -2.0207   32.3550 O.2     1  UNL1       -0.4473
@<TRIPOS>BOND
     1    19    20    2
     2    20    21   am
     3    21    18    1
     4    18     1    1
     5     1     2   ar
     6     2     3   ar
     7     3     4   ar
     8     4     7    1
     9     7     8    2
    10     7     9    2
    11     7    10    1
    12    10    11   ar
    13    11    12   ar
    14    12    13    1
    15    12    14   ar
    16    14    15   ar
    17    15    16    1
    18    15    17   ar
    19     4     5   ar
    20     5     6   ar
    21    20    23    1
    22    23    24   ar
    23    24    25   ar
    24    25    26   ar
    25    26    27   ar
    26    27    28   ar
    27    28    29   ar
    28    29    30   ar
    29    30    31   ar
    30     6     1   ar
    31    31    23   ar
    32    17    10   ar
    33    30    25   ar
    34    21    22    1
@<TRIPOS>MOLECULE
*****
 31 34 0 0 0
SMALL
GASTEIGER

@<TRIPOS>ATOM
      1 C           7.3803   -4.4630   26.8850 C.ar    1  UNL1        0.0789
      2 C           7.7305   -5.4858   25.8452 C.ar    1  UNL1        0.0178
      3 C           7.3183   -5.2763   24.4182 C.ar    1  UNL1        0.0216
      4 C           6.5559   -4.0439   24.0311 C.ar    1  UNL1        0.1294
      5 C           6.2056   -3.0211   25.0709 C.ar    1  UNL1        0.1172
      6 N           6.6178   -3.2306   26.4978 N.ar    1  UNL1       -0.2451
      7 S           6.1437   -3.8343   22.6041 S.O2    1  UNL1        0.0291
      8 O           4.7715   -3.4344   23.0593 O.2     1  UNL1       -0.1642
      9 O           7.5158   -4.2343   22.1490 O.2     1  UNL1       -0.1642
     10 C           5.7315   -3.6248   21.1772 C.ar    1  UNL1        0.1148
     11 C           4.4183   -4.1613   20.6893 C.ar    1  UNL1        0.0485
     12 C           4.0061   -3.9517   19.2624 C.ar    1  UNL1        0.1437
     13 F           2.6931   -4.4882   18.7746 F       1  UNL1       -0.2041
     14 C           4.9070   -3.2057   18.3233 C.ar    1  UNL1        0.0593
     15 C           6.2200   -2.6692   18.8112 C.ar    1  UNL1        0.1437
     16 F           7.1209   -1.9231   17.8721 F       1  UNL1       -0.2041
     17 C           6.6323   -2.8787   20.2382 C.ar    1  UNL1        0.0485
     18 C           7.7925   -4.6726   28.3120 C.3     1  UNL1        0.1361
     19 O           6.9153   -5.5834   31.0324 O.2     1  UNL1       -0.2668
     20 C           6.9801   -4.1185   30.7167 C.2     1  UNL1        0.2809
     21 N           7.4187   -3.6630   29.3566 N.am    1  UNL1       -0.2931
     22 H           7.4612   -2.7015   29.1494 H       1  UNL1        0.1502
     23 C           6.6063   -3.1090   31.7613 C.ar    1  UNL1        0.1984
     24 C           7.5367   -2.1306   32.4149 C.ar    1  UNL1        0.0453
     25 C           6.7419   -1.3175   33.3932 C.ar    1  UNL1        0.0409
     26 C           7.1290   -0.2054   34.3223 C.ar    1  UNL1        0.0238
     27 C           6.0944    0.4310   35.2024 C.ar    1  UNL1        0.0991
     28 N           4.6728   -0.0449   35.1536 N.ar    1  UNL1       -0.2391
     29 C           4.2856   -1.1571   34.2245 C.ar    1  UNL1        0.1362
     30 C           5.3202   -1.7934   33.3444 C.ar    1  UNL1        0.1646
     31 O           5.2364   -2.9005   32.3358 O.2     1  UNL1       -0.4473
@<TRIPOS>BOND
     1    19    20    2
     2    20    21   am
     3    21    18    1
     4    18     1    1
     5     1     2   ar
     6     2     3   ar
     7     3     4   ar
     8     4     7    1
     9     7     8    2
    10     7     9    2
    11     7    10    1
    12    10    11   ar
    13    11    12   ar
    14    12    13    1
    15    12    14   ar
    16    14    15   ar
    17    15    16    1
    18    15    17   ar
    19     4     5   ar
    20     5     6   ar
    21    20    23    1
    22    23    24   ar
    23    24    25   ar
    24    25    26   ar
    25    26    27   ar
    26    27    28   ar
    27    28    29   ar
    28    29    30   ar
    29    30    31   ar
    30     6     1   ar
    31    31    23   ar
    32    17    10   ar
    33    30    25   ar
    34    21    22    1
@<TRIPOS>MOLECULE
*****
 31 34 0 0 0
SMALL
GASTEIGER

@<TRIPOS>ATOM
      1 C           1.7113    0.9963   25.9902 C.ar    1  UNL1        0.0789
      2 C           1.0043    1.3008   24.7028 C.ar    1  UNL1        0.0178
      3 C           1.4879    0.6928   23.4196 C.ar    1  UNL1        0.0216
      4 C           2.6785   -0.2196   23.4239 C.ar    1  UNL1        0.1294
      5 C           3.3854   -0.5241   24.7114 C.ar    1  UNL1        0.1172
      6 N           2.9018    0.0839   25.9945 N.ar    1  UNL1       -0.2451
      7 S           3.1621   -0.8276   22.1408 S.O2    1  UNL1        0.0291
      8 O           2.4886    0.2675   21.3681 O.2     1  UNL1       -0.1642
      9 O           3.8356   -1.9227   22.9135 O.2     1  UNL1       -0.1642
     10 C           3.6457   -1.4355   20.8577 C.ar    1  UNL1        0.1148
     11 C           3.4119   -0.7263   19.5567 C.ar    1  UNL1        0.0485
     12 C           3.8956   -1.3342   18.2736 C.ar    1  UNL1        0.1437
     13 F           3.6618   -0.6250   16.9727 F       1  UNL1       -0.2041
     14 C           4.6129   -2.6515   18.2913 C.ar    1  UNL1        0.0593
     15 C           4.8467   -3.3607   19.5922 C.ar    1  UNL1        0.1437
     16 F           5.5640   -4.6779   19.6099 F       1  UNL1       -0.2041
     17 C           4.3631   -2.7527   20.8754 C.ar    1  UNL1        0.0485
     18 C           1.2276    1.6043   27.2735 C.3     1  UNL1        0.1361
     19 O           0.2550   -0.2952   29.3818 O.2     1  UNL1       -0.2668
     20 C           1.5296    0.4676   29.5900 C.2     1  UNL1        0.2809
     21 N           2.0160    1.4173   28.5358 N.am    1  UNL1       -0.2931
     22 H           2.8526    1.9180   28.6725 H       1  UNL1        0.1502
     23 C           2.3179    0.2806   30.8524 C.ar    1  UNL1        0.1984
     24 C           2.5875    1.3322   31.8875 C.ar    1  UNL1        0.0453
     25 C           3.4112    0.7107   32.9762 C.ar    1  UNL1        0.0409
     26 C           3.9742    1.2667   34.2505 C.ar    1  UNL1        0.0238
     27 C           4.7766    0.3869   35.1626 C.ar    1  UNL1        0.0991
     28 N           5.0161   -1.0489   34.8004 N.ar    1  UNL1       -0.2391
     29 C           4.4532   -1.6048   33.5260 C.ar    1  UNL1        0.1362
     30 C           3.6508   -0.7250   32.6139 C.ar    1  UNL1        0.1646
     31 O           2.9751   -0.9908   31.3014 O.2     1  UNL1       -0.4473
@<TRIPOS>BOND
     1    19    20    2
     2    20    21   am
     3    21    18    1
     4    18     1    1
     5     1     2   ar
     6     2     3   ar
     7     3     4   ar
     8     4     7    1
     9     7     8    2
    10     7     9    2
    11     7    10    1
    12    10    11   ar
    13    11    12   ar
    14    12    13    1
    15    12    14   ar
    16    14    15   ar
    17    15    16    1
    18    15    17   ar
    19     4     5   ar
    20     5     6   ar
    21    20    23    1
    22    23    24   ar
    23    24    25   ar
    24    25    26   ar
    25    26    27   ar
    26    27    28   ar
    27    28    29   ar
    28    29    30   ar
    29    30    31   ar
    30     6     1   ar
    31    31    23   ar
    32    17    10   ar
    33    30    25   ar
    34    21    22    1
@<TRIPOS>MOLECULE
*****
 31 34 0 0 0
SMALL
GASTEIGER

@<TRIPOS>ATOM
      1 C           0.8848    1.2610   24.5033 C.ar    1  UNL1        0.0789
      2 C           0.5318    1.4842   23.0626 C.ar    1  UNL1        0.0178
      3 C           1.3151    0.7974   21.9833 C.ar    1  UNL1        0.0216
      4 C           2.4515   -0.1126   22.3448 C.ar    1  UNL1        0.1294
      5 C           2.8044   -0.3358   23.7855 C.ar    1  UNL1        0.1172
      6 N           2.0211    0.3510   24.8647 N.ar    1  UNL1       -0.2451
      7 S           3.2348   -0.7994   21.2656 S.O2    1  UNL1        0.0291
      8 O           2.6836    0.1613   20.2541 O.2     1  UNL1       -0.1642
      9 O           3.7860   -1.7601   22.2771 O.2     1  UNL1       -0.1642
     10 C           4.0181   -1.4862   20.1864 C.ar    1  UNL1        0.1148
     11 C           5.0470   -0.7236   19.4054 C.ar    1  UNL1        0.0485
     12 C           5.8303   -1.4104   18.3262 C.ar    1  UNL1        0.1437
     13 F           6.8591   -0.6478   17.5453 F       1  UNL1       -0.2041
     14 C           5.5848   -2.8598   18.0280 C.ar    1  UNL1        0.0593
     15 C           4.5560   -3.6224   18.8089 C.ar    1  UNL1        0.1437
     16 F           4.3104   -5.0718   18.5107 F       1  UNL1       -0.2041
     17 C           3.7726   -2.9356   19.8882 C.ar    1  UNL1        0.0485
     18 C           0.1015    1.9478   25.5825 C.3     1  UNL1        0.1361
     19 O          -1.0997    4.0934   27.3011 O.2     1  UNL1       -0.2668
     20 C          -1.8863    3.5175   26.1611 C.2     1  UNL1        0.2809
     21 N          -1.2857    2.4447   25.3019 N.am    1  UNL1       -0.2931
     22 H          -1.8020    2.0667   24.5537 H       1  UNL1        0.1502
     23 C          -3.2735    4.0144   25.8805 C.ar    1  UNL1        0.1984
     24 C          -4.0962    3.6943   24.6677 C.ar    1  UNL1        0.0453
     25 C          -5.4127    4.4007   24.8010 C.ar    1  UNL1        0.0409
     26 C          -6.6185    4.4527   23.9104 C.ar    1  UNL1        0.0238
     27 C          -7.8154    5.2613   24.3149 C.ar    1  UNL1        0.0991
     28 N          -7.8064    6.0179   25.6101 N.ar    1  UNL1       -0.2391
     29 C          -6.6006    5.9659   26.5007 C.ar    1  UNL1        0.1362
     30 C          -5.4037    5.1573   26.0962 C.ar    1  UNL1        0.1646
     31 O          -4.0816    4.9185   26.7633 O.2     1  UNL1       -0.4473
@<TRIPOS>BOND
     1    19    20    2
     2    20    21   am
     3    21    18    1
     4    18     1    1
     5     1     2   ar
     6     2     3   ar
     7     3     4   ar
     8     4     7    1
     9     7     8    2
    10     7     9    2
    11     7    10    1
    12    10    11   ar
    13    11    12   ar
    14    12    13    1
    15    12    14   ar
    16    14    15   ar
    17    15    16    1
    18    15    17   ar
    19     4     5   ar
    20     5     6   ar
    21    20    23    1
    22    23    24   ar
    23    24    25   ar
    24    25    26   ar
    25    26    27   ar
    26    27    28   ar
    27    28    29   ar
    28    29    30   ar
    29    30    31   ar
    30     6     1   ar
    31    31    23   ar
    32    17    10   ar
    33    30    25   ar
    34    21    22    1
@<TRIPOS>MOLECULE
*****
 31 34 0 0 0
SMALL
GASTEIGER

@<TRIPOS>ATOM
      1 C           0.5720    1.8624   25.8142 C.ar    1  UNL1        0.0789
      2 C          -0.3355    1.9227   27.0069 C.ar    1  UNL1        0.0178
      3 C          -1.6748    2.5895   26.8974 C.ar    1  UNL1        0.0216
      4 C          -2.1064    3.1960   25.5951 C.ar    1  UNL1        0.1294
      5 C          -1.1987    3.1357   24.4024 C.ar    1  UNL1        0.1172
      6 N           0.1405    2.4689   24.5119 N.ar    1  UNL1       -0.2451
      7 S          -3.4455    3.8627   25.4856 S.O2    1  UNL1        0.0291
      8 O          -3.2270    4.0600   24.0148 O.2     1  UNL1       -0.1642
      9 O          -3.6640    3.6654   26.9564 O.2     1  UNL1       -0.1642
     10 C          -4.7847    4.5295   25.3760 C.ar    1  UNL1        0.1148
     11 C          -5.1520    5.6344   26.3218 C.ar    1  UNL1        0.0485
     12 C          -6.4912    6.3011   26.2122 C.ar    1  UNL1        0.1437
     13 F          -6.8585    7.4059   27.1580 F       1  UNL1       -0.2041
     14 C          -7.4630    5.8631   25.1570 C.ar    1  UNL1        0.0593
     15 C          -7.0957    4.7582   24.2113 C.ar    1  UNL1        0.1437
     16 F          -8.0676    4.3202   23.1560 F       1  UNL1       -0.2041
     17 C          -5.7565    4.0914   24.3208 C.ar    1  UNL1        0.0485
     18 C           1.9113    1.1956   25.9237 C.3     1  UNL1        0.1361
     19 O           3.3691    1.8476   23.3842 O.2     1  UNL1       -0.2668
     20 C           3.0124    0.4254   23.7002 C.2     1  UNL1        0.2809
     21 N           2.2835    0.0994   24.9700 N.am    1  UNL1       -0.2931
     22 H           2.0494   -0.8341   25.1774 H       1  UNL1        0.1502
     23 C           3.3846   -0.6709   22.7464 C.ar    1  UNL1        0.1984
     24 C           2.8717   -0.8333   21.3462 C.ar    1  UNL1        0.0453
     25 C           3.5051   -2.0600   20.7598 C.ar    1  UNL1        0.0409
     26 C           3.3753   -2.7115   19.4150 C.ar    1  UNL1        0.0238
     27 C           4.1498   -3.9587   19.1079 C.ar    1  UNL1        0.0991
     28 N           5.0543   -4.5545   20.1457 N.ar    1  UNL1       -0.2391
     29 C           5.1842   -3.9031   21.4905 C.ar    1  UNL1        0.1362
     30 C           4.4096   -2.6558   21.7976 C.ar    1  UNL1        0.1646
     31 O           4.3351   -1.7973   23.0254 O.2     1  UNL1       -0.4473
@<TRIPOS>BOND
     1    19    20    2
     2    20    21   am
     3    21    18    1
     4    18     1    1
     5     1     2   ar
     6     2     3   ar
     7     3     4   ar
     8     4     7    1
     9     7     8    2
    10     7     9    2
    11     7    10    1
    12    10    11   ar
    13    11    12   ar
    14    12    13    1
    15    12    14   ar
    16    14    15   ar
    17    15    16    1
    18    15    17   ar
    19     4     5   ar
    20     5     6   ar
    21    20    23    1
    22    23    24   ar
    23    24    25   ar
    24    25    26   ar
    25    26    27   ar
    26    27    28   ar
    27    28    29   ar
    28    29    30   ar
    29    30    31   ar
    30     6     1   ar
    31    31    23   ar
    32    17    10   ar
    33    30    25   ar
    34    21    22    1
