@<TRIPOS>MOLECULE
*****
 26 29 0 0 0
SMALL
GASTEIGER

@<TRIPOS>ATOM
      1 C          -8.3868  -17.5362   22.5846 C.ar    1  UNL1        0.1351
      2 C          -9.8522  -17.3410   22.3309 C.ar    1  UNL1        0.0413
      3 C         -10.8218  -16.2973   22.8004 C.ar    1  UNL1        0.0032
      4 C         -12.2583  -16.3619   22.3734 C.ar    1  UNL1        0.0001
      5 C         -12.7251  -17.4702   21.4769 C.ar    1  UNL1        0.0016
      6 C         -11.7555  -18.5139   21.0074 C.ar    1  UNL1        0.0209
      7 C         -10.3191  -18.4493   21.4344 C.ar    1  UNL1        0.1025
      8 N          -9.1421  -19.3294   21.1340 N.ar    1  UNL1       -0.1691
      9 N          -7.9479  -18.7651   21.8449 N.ar    1  UNL1       -0.2459
     10 C          -6.5954  -15.4560   25.3285 C.ar    1  UNL1        0.1965
     11 N          -5.7441  -15.1511   24.1317 N.ar    1  UNL1       -0.0587
     12 O          -6.3116  -15.8933   22.9582 O.2     1  UNL1       -0.3311
     13 C          -7.5135  -16.6568   23.4297 C.ar    1  UNL1        0.2772
     14 N          -7.6889  -16.3866   24.8947 N.ar    1  UNL1       -0.1884
     15 N          -7.5664  -14.7165   27.6221 N.3     1  UNL1       -0.3147
     16 C          -6.3893  -14.9238   26.7158 C.3     1  UNL1        0.1355
     17 H          -7.2449  -14.3522   28.5190 H       1  UNL1        0.1192
     18 H          -8.0440  -15.6059   27.7679 H       1  UNL1        0.1192
     19 C          -6.5587  -19.3304   21.8204 C.3     1  UNL1        0.1323
     20 C          -5.7808  -19.3531   20.5381 C.3     1  UNL1        0.0527
     21 C          -4.3099  -19.0588   20.5479 C.ar    1  UNL1       -0.0202
     22 C          -3.6162  -18.6610   19.2788 C.ar    1  UNL1       -0.0042
     23 C          -2.1454  -18.3667   19.2886 C.ar    1  UNL1       -0.0003
     24 C          -1.3683  -18.4703   20.5675 C.ar    1  UNL1       -0.0000
     25 C          -2.0620  -18.8681   21.8365 C.ar    1  UNL1       -0.0003
     26 C          -3.5329  -19.1624   21.8267 C.ar    1  UNL1       -0.0042
@<TRIPOS>BOND
     1    15    16    1
     2    16    10    1
     3    10    11   ar
     4    11    12   ar
     5    12    13   ar
     6    13     1    1
     7     1     2   ar
     8     2     3   ar
     9     3     4   ar
    10     4     5   ar
    11     5     6   ar
    12     6     7   ar
    13     7     8   ar
    14     8     9   ar
    15     9    19    1
    16    19    20    1
    17    20    21    1
    18    21    22   ar
    19    22    23   ar
    20    23    24   ar
    21    24    25   ar
    22    25    26   ar
    23    13    14   ar
    24    14    10   ar
    25     9     1   ar
    26    26    21   ar
    27     7     2   ar
    28    15    17    1
    29    15    18    1
@<TRIPOS>MOLECULE
*****
 26 29 0 0 0
SMALL
GASTEIGER

@<TRIPOS>ATOM
      1 C          -7.8810  -18.2249   23.1008 C.ar    1  UNL1        0.1351
      2 C          -7.6675  -17.0919   24.0604 C.ar    1  UNL1        0.0413
      3 C          -6.6071  -16.0345   24.1449 C.ar    1  UNL1        0.0032
      4 C          -6.6550  -15.0101   25.2395 C.ar    1  UNL1        0.0001
      5 C          -7.7634  -15.0431   26.2496 C.ar    1  UNL1        0.0016
      6 C          -8.8239  -16.1006   26.1651 C.ar    1  UNL1        0.0209
      7 C          -8.7759  -17.1250   25.0705 C.ar    1  UNL1        0.1025
      8 N          -9.6744  -18.2784   24.7352 N.ar    1  UNL1       -0.1691
      9 N          -9.1214  -18.9582   23.5178 N.ar    1  UNL1       -0.2459
     10 C          -5.1855  -19.4401   20.5863 C.ar    1  UNL1        0.1965
     11 N          -6.1411  -18.7361   19.6690 N.ar    1  UNL1       -0.0587
     12 O          -7.2671  -18.1952   20.4994 O.2     1  UNL1       -0.3311
     13 C          -7.0075  -18.5649   21.9297 C.ar    1  UNL1        0.2772
     14 N          -5.7210  -19.3343   21.9834 N.ar    1  UNL1       -0.1884
     15 N          -2.7648  -20.2078   21.1352 N.3     1  UNL1       -0.3147
     16 C          -3.9170  -20.1290   20.1780 C.3     1  UNL1        0.1355
     17 H          -1.9912  -20.7065   20.6956 H       1  UNL1        0.1192
     18 H          -3.0555  -20.7053   21.9769 H       1  UNL1        0.1192
     19 C          -9.7059  -20.1601   22.8370 C.3     1  UNL1        0.1323
     20 C         -10.9878  -20.0370   22.0678 C.3     1  UNL1        0.0527
     21 C         -11.3767  -18.7201   21.4642 C.ar    1  UNL1       -0.0202
     22 C         -10.8156  -18.3094   20.1350 C.ar    1  UNL1       -0.0042
     23 C         -11.2046  -16.9924   19.5314 C.ar    1  UNL1       -0.0003
     24 C         -12.1546  -16.0862   20.2569 C.ar    1  UNL1       -0.0000
     25 C         -12.7156  -16.4969   21.5860 C.ar    1  UNL1       -0.0003
     26 C         -12.3266  -17.8138   22.1896 C.ar    1  UNL1       -0.0042
@<TRIPOS>BOND
     1    15    16    1
     2    16    10    1
     3    10    11   ar
     4    11    12   ar
     5    12    13   ar
     6    13     1    1
     7     1     2   ar
     8     2     3   ar
     9     3     4   ar
    10     4     5   ar
    11     5     6   ar
    12     6     7   ar
    13     7     8   ar
    14     8     9   ar
    15     9    19    1
    16    19    20    1
    17    20    21    1
    18    21    22   ar
    19    22    23   ar
    20    23    24   ar
    21    24    25   ar
    22    25    26   ar
    23    13    14   ar
    24    14    10   ar
    25     9     1   ar
    26    26    21   ar
    27     7     2   ar
    28    15    17    1
    29    15    18    1
@<TRIPOS>MOLECULE
*****
 26 29 0 0 0
SMALL
GASTEIGER

@<TRIPOS>ATOM
      1 C          -8.9809  -17.8616   22.7939 C.ar    1  UNL1        0.1351
      2 C         -10.4119  -17.5107   22.5125 C.ar    1  UNL1        0.0413
      3 C         -11.2277  -16.2927   22.8299 C.ar    1  UNL1        0.0032
      4 C         -12.6670  -16.2246   22.4131 C.ar    1  UNL1        0.0001
      5 C         -13.2905  -17.3745   21.6791 C.ar    1  UNL1        0.0016
      6 C         -12.4747  -18.5926   21.3617 C.ar    1  UNL1        0.0209
      7 C         -11.0353  -18.6607   21.7784 C.ar    1  UNL1        0.1025
      8 N          -9.9897  -19.7222   21.6062 N.ar    1  UNL1       -0.1691
      9 N          -8.7199  -19.2284   22.2338 N.ar    1  UNL1       -0.2459
     10 C          -6.0102  -15.6778   24.0068 C.ar    1  UNL1        0.1965
     11 N          -6.8977  -15.6572   25.2160 N.ar    1  UNL1       -0.0587
     12 O          -8.1185  -16.4728   24.9087 O.2     1  UNL1       -0.3311
     13 C          -7.9856  -16.9974   23.5098 C.ar    1  UNL1        0.2772
     14 N          -6.6826  -16.5060   22.9524 N.ar    1  UNL1       -0.1884
     15 N          -4.3246  -14.2905   22.5981 N.3     1  UNL1       -0.3147
     16 C          -4.6833  -14.9906   23.8752 C.3     1  UNL1        0.1355
     17 H          -3.3938  -13.8823   22.6840 H       1  UNL1        0.1192
     18 H          -5.0038  -13.5524   22.4127 H       1  UNL1        0.1192
     19 C          -7.4179  -19.9710   22.2911 C.3     1  UNL1        0.1323
     20 C          -6.5635  -20.0826   21.0634 C.3     1  UNL1        0.0527
     21 C          -5.1509  -19.5784   21.0843 C.ar    1  UNL1       -0.0202
     22 C          -4.3769  -19.4626   19.8046 C.ar    1  UNL1       -0.0042
     23 C          -2.9643  -18.9584   19.8255 C.ar    1  UNL1       -0.0003
     24 C          -2.3258  -18.5699   21.1261 C.ar    1  UNL1       -0.0000
     25 C          -3.0999  -18.6856   22.4057 C.ar    1  UNL1       -0.0003
     26 C          -4.5124  -19.1899   22.3848 C.ar    1  UNL1       -0.0042
@<TRIPOS>BOND
     1    15    16    1
     2    16    10    1
     3    10    11   ar
     4    11    12   ar
     5    12    13   ar
     6    13     1    1
     7     1     2   ar
     8     2     3   ar
     9     3     4   ar
    10     4     5   ar
    11     5     6   ar
    12     6     7   ar
    13     7     8   ar
    14     8     9   ar
    15     9    19    1
    16    19    20    1
    17    20    21    1
    18    21    22   ar
    19    22    23   ar
    20    23    24   ar
    21    24    25   ar
    22    25    26   ar
    23    13    14   ar
    24    14    10   ar
    25     9     1   ar
    26    26    21   ar
    27     7     2   ar
    28    15    17    1
    29    15    18    1
@<TRIPOS>MOLECULE
*****
 26 29 0 0 0
SMALL
GASTEIGER

@<TRIPOS>ATOM
      1 C          -6.2709  -16.6939   23.7052 C.ar    1  UNL1        0.1351
      2 C          -6.5645  -16.0460   25.0259 C.ar    1  UNL1        0.0413
      3 C          -5.6815  -15.3600   26.0256 C.ar    1  UNL1        0.0032
      4 C          -6.2707  -14.7970   27.2849 C.ar    1  UNL1        0.0001
      5 C          -7.7430  -14.9199   27.5444 C.ar    1  UNL1        0.0016
      6 C          -8.6260  -15.6059   26.5446 C.ar    1  UNL1        0.0209
      7 C          -8.0368  -16.1690   25.2853 C.ar    1  UNL1        0.1025
      8 N          -8.6531  -16.8928   24.1251 N.ar    1  UNL1       -0.1691
      9 N          -7.5617  -17.2173   23.1485 N.ar    1  UNL1       -0.2459
     10 C          -2.9557  -17.6983   21.9543 C.ar    1  UNL1        0.1965
     11 N          -2.7425  -16.2273   22.1567 N.ar    1  UNL1       -0.0587
     12 O          -3.9585  -15.6722   22.8372 O.2     1  UNL1       -0.3311
     13 C          -4.9231  -16.7998   23.0554 C.ar    1  UNL1        0.2772
     14 N          -4.3034  -18.0521   22.5097 N.ar    1  UNL1       -0.1884
     15 N          -2.1074  -20.1225   21.5623 N.3     1  UNL1       -0.3147
     16 C          -1.9906  -18.6486   21.3095 C.3     1  UNL1        0.1355
     17 H          -1.3762  -20.6145   21.0488 H       1  UNL1        0.1192
     18 H          -3.0215  -20.4498   21.2497 H       1  UNL1        0.1192
     19 C          -7.7314  -17.9384   21.8442 C.3     1  UNL1        0.1323
     20 C          -8.9701  -17.7262   21.0254 C.3     1  UNL1        0.0527
     21 C         -10.3008  -17.5810   21.7023 C.ar    1  UNL1       -0.0202
     22 C         -11.0171  -16.2633   21.6734 C.ar    1  UNL1       -0.0042
     23 C         -12.3478  -16.1181   22.3503 C.ar    1  UNL1       -0.0003
     24 C         -12.9622  -17.2905   23.0561 C.ar    1  UNL1       -0.0000
     25 C         -12.2459  -18.6081   23.0849 C.ar    1  UNL1       -0.0003
     26 C         -10.9152  -18.7533   22.4081 C.ar    1  UNL1       -0.0042
@<TRIPOS>BOND
     1    15    16    1
     2    16    10    1
     3    10    11   ar
     4    11    12   ar
     5    12    13   ar
     6    13     1    1
     7     1     2   ar
     8     2     3   ar
     9     3     4   ar
    10     4     5   ar
    11     5     6   ar
    12     6     7   ar
    13     7     8   ar
    14     8     9   ar
    15     9    19    1
    16    19    20    1
    17    20    21    1
    18    21    22   ar
    19    22    23   ar
    20    23    24   ar
    21    24    25   ar
    22    25    26   ar
    23    13    14   ar
    24    14    10   ar
    25     9     1   ar
    26    26    21   ar
    27     7     2   ar
    28    15    17    1
    29    15    18    1
@<TRIPOS>MOLECULE
*****
 26 29 0 0 0
SMALL
GASTEIGER

@<TRIPOS>ATOM
      1 C          -8.4367  -17.6280   22.6591 C.ar    1  UNL1        0.1351
      2 C          -9.8552  -17.5056   22.1872 C.ar    1  UNL1        0.0413
      3 C         -10.6138  -18.2019   21.0964 C.ar    1  UNL1        0.0032
      4 C         -12.0546  -17.8644   20.8517 C.ar    1  UNL1        0.0001
      5 C         -12.7370  -16.8307   21.6977 C.ar    1  UNL1        0.0016
      6 C         -11.9785  -16.1344   22.7885 C.ar    1  UNL1        0.0209
      7 C         -10.5376  -16.4719   23.0332 C.ar    1  UNL1        0.1025
      8 N          -9.5407  -15.9554   24.0280 N.ar    1  UNL1       -0.1691
      9 N          -8.2423  -16.6700   23.7968 N.ar    1  UNL1       -0.2459
     10 C          -5.5061  -19.3927   20.8253 C.ar    1  UNL1        0.1965
     11 N          -6.0796  -20.5304   21.6171 N.ar    1  UNL1       -0.0587
     12 O          -7.2472  -20.0077   22.4004 O.2     1  UNL1       -0.3311
     13 C          -7.3953  -18.5472   22.0928 C.ar    1  UNL1        0.2772
     14 N          -6.3193  -18.1670   21.1193 N.ar    1  UNL1       -0.1884
     15 N          -3.9131  -18.2601   19.1136 N.3     1  UNL1       -0.3147
     16 C          -4.3265  -19.4676   19.9017 C.3     1  UNL1        0.1355
     17 H          -3.0992  -18.4888   18.5430 H       1  UNL1        0.1192
     18 H          -3.6777  -17.5010   19.7530 H       1  UNL1        0.1192
     19 C          -6.9724  -16.4628   24.5679 C.3     1  UNL1        0.1323
     20 C          -5.8783  -15.6108   23.9961 C.3     1  UNL1        0.0527
     21 C          -4.6274  -16.2499   23.4700 C.ar    1  UNL1       -0.0202
     22 C          -4.2694  -17.6475   23.8806 C.ar    1  UNL1       -0.0042
     23 C          -3.0185  -18.2866   23.3544 C.ar    1  UNL1       -0.0003
     24 C          -2.1256  -17.5281   22.4177 C.ar    1  UNL1       -0.0000
     25 C          -2.4836  -16.1305   22.0072 C.ar    1  UNL1       -0.0003
     26 C          -3.7345  -15.4914   22.5333 C.ar    1  UNL1       -0.0042
@<TRIPOS>BOND
     1    15    16    1
     2    16    10    1
     3    10    11   ar
     4    11    12   ar
     5    12    13   ar
     6    13     1    1
     7     1     2   ar
     8     2     3   ar
     9     3     4   ar
    10     4     5   ar
    11     5     6   ar
    12     6     7   ar
    13     7     8   ar
    14     8     9   ar
    15     9    19    1
    16    19    20    1
    17    20    21    1
    18    21    22   ar
    19    22    23   ar
    20    23    24   ar
    21    24    25   ar
    22    25    26   ar
    23    13    14   ar
    24    14    10   ar
    25     9     1   ar
    26    26    21   ar
    27     7     2   ar
    28    15    17    1
    29    15    18    1
@<TRIPOS>MOLECULE
*****
 26 29 0 0 0
SMALL
GASTEIGER

@<TRIPOS>ATOM
      1 C          -6.9717  -17.7403   22.2381 C.ar    1  UNL1        0.1351
      2 C          -6.8743  -16.7973   23.4005 C.ar    1  UNL1        0.0413
      3 C          -5.6970  -16.1987   24.1114 C.ar    1  UNL1        0.0032
      4 C          -5.9129  -15.2673   25.2672 C.ar    1  UNL1        0.0001
      5 C          -7.3062  -14.9345   25.7120 C.ar    1  UNL1        0.0016
      6 C          -8.4836  -15.5330   25.0011 C.ar    1  UNL1        0.0209
      7 C          -8.2677  -16.4645   23.8453 C.ar    1  UNL1        0.1025
      8 N          -9.2261  -17.2017   22.9578 N.ar    1  UNL1       -0.1691
      9 N          -8.4252  -17.9903   21.9644 N.ar    1  UNL1       -0.2459
     10 C          -3.6241  -19.2149   20.9403 C.ar    1  UNL1        0.1965
     11 N          -4.4617  -19.2592   19.6967 N.ar    1  UNL1       -0.0587
     12 O          -5.8177  -18.7122   20.0316 O.2     1  UNL1       -0.3311
     13 C          -5.8181  -18.3298   21.4820 C.ar    1  UNL1        0.2772
     14 N          -4.4624  -18.6405   22.0437 N.ar    1  UNL1       -0.1884
     15 N          -1.2098  -18.8336   21.8213 N.3     1  UNL1       -0.3147
     16 C          -2.1984  -19.6658   21.0596 C.3     1  UNL1        0.1355
     17 H          -0.2962  -19.2868   21.8003 H       1  UNL1        0.1192
     18 H          -1.5196  -18.7377   22.7883 H       1  UNL1        0.1192
     19 C          -8.9803  -18.8736   20.8867 C.3     1  UNL1        0.1323
     20 C         -10.4584  -19.1143   20.8014 C.3     1  UNL1        0.0527
     21 C         -11.3304  -18.8560   21.9943 C.ar    1  UNL1       -0.0202
     22 C         -12.4805  -17.8987   21.8894 C.ar    1  UNL1       -0.0042
     23 C         -13.3525  -17.6405   23.0823 C.ar    1  UNL1       -0.0003
     24 C         -13.0744  -18.3396   24.3800 C.ar    1  UNL1       -0.0000
     25 C         -11.9244  -19.2969   24.4848 C.ar    1  UNL1       -0.0003
     26 C         -11.0524  -19.5551   23.2919 C.ar    1  UNL1       -0.0042
@<TRIPOS>BOND
     1    15    16    1
     2    16    10    1
     3    10    11   ar
     4    11    12   ar
     5    12    13   ar
     6    13     1    1
     7     1     2   ar
     8     2     3   ar
     9     3     4   ar
    10     4     5   ar
    11     5     6   ar
    12     6     7   ar
    13     7     8   ar
    14     8     9   ar
    15     9    19    1
    16    19    20    1
    17    20    21    1
    18    21    22   ar
    19    22    23   ar
    20    23    24   ar
    21    24    25   ar
    22    25    26   ar
    23    13    14   ar
    24    14    10   ar
    25     9     1   ar
    26    26    21   ar
    27     7     2   ar
    28    15    17    1
    29    15    18    1
@<TRIPOS>MOLECULE
*****
 26 29 0 0 0
SMALL
GASTEIGER

@<TRIPOS>ATOM
      1 C          -9.5197  -18.2026   22.6500 C.ar    1  UNL1        0.1351
      2 C         -10.3909  -17.5944   21.5912 C.ar    1  UNL1        0.0413
      3 C         -10.2091  -17.4361   20.1107 C.ar    1  UNL1        0.0032
      4 C         -11.2752  -16.7715   19.2911 C.ar    1  UNL1        0.0001
      5 C         -12.5230  -16.2654   19.9519 C.ar    1  UNL1        0.0016
      6 C         -12.7048  -16.4237   21.4324 C.ar    1  UNL1        0.0209
      7 C         -11.6387  -17.0882   22.2520 C.ar    1  UNL1        0.1025
      8 N         -11.5387  -17.3836   23.7193 N.ar    1  UNL1       -0.1691
      9 N         -10.2291  -18.0724   23.9652 N.ar    1  UNL1       -0.2459
     10 C          -5.7896  -19.1176   22.0894 C.ar    1  UNL1        0.1965
     11 N          -6.4226  -20.4774   22.1029 N.ar    1  UNL1       -0.0587
     12 O          -7.8970  -20.3001   22.3146 O.2     1  UNL1       -0.3311
     13 C          -8.1752  -18.8308   22.4319 C.ar    1  UNL1        0.2772
     14 N          -6.8727  -18.1000   22.2927 N.ar    1  UNL1       -0.1884
     15 N          -3.7898  -17.4646   22.2271 N.3     1  UNL1       -0.3147
     16 C          -4.3296  -18.8265   21.9049 C.3     1  UNL1        0.1355
     17 H          -2.7865  -17.4446   22.0443 H       1  UNL1        0.1192
     18 H          -3.9605  -17.2552   23.2106 H       1  UNL1        0.1192
     19 C          -9.7185  -18.5474   25.2932 C.3     1  UNL1        0.1323
     20 C          -9.4364  -17.5589   26.3856 C.3     1  UNL1        0.0527
     21 C          -8.2633  -16.6310   26.2728 C.ar    1  UNL1       -0.0202
     22 C          -7.8740  -16.0732   24.9358 C.ar    1  UNL1       -0.0042
     23 C          -6.7009  -15.1453   24.8230 C.ar    1  UNL1       -0.0003
     24 C          -5.9170  -14.7751   26.0472 C.ar    1  UNL1       -0.0000
     25 C          -6.3063  -15.3328   27.3841 C.ar    1  UNL1       -0.0003
     26 C          -7.4794  -16.2608   27.4969 C.ar    1  UNL1       -0.0042
@<TRIPOS>BOND
     1    15    16    1
     2    16    10    1
     3    10    11   ar
     4    11    12   ar
     5    12    13   ar
     6    13     1    1
     7     1     2   ar
     8     2     3   ar
     9     3     4   ar
    10     4     5   ar
    11     5     6   ar
    12     6     7   ar
    13     7     8   ar
    14     8     9   ar
    15     9    19    1
    16    19    20    1
    17    20    21    1
    18    21    22   ar
    19    22    23   ar
    20    23    24   ar
    21    24    25   ar
    22    25    26   ar
    23    13    14   ar
    24    14    10   ar
    25     9     1   ar
    26    26    21   ar
    27     7     2   ar
    28    15    17    1
    29    15    18    1
@<TRIPOS>MOLECULE
*****
 26 29 0 0 0
SMALL
GASTEIGER

@<TRIPOS>ATOM
      1 C           4.1250   -1.7573   22.6723 C.ar    1  UNL1        0.1351
      2 C           3.3702   -0.8120   23.5592 C.ar    1  UNL1        0.0413
      3 C           2.3090    0.2071   23.2674 C.ar    1  UNL1        0.0032
      4 C           1.7264    1.0236   24.3826 C.ar    1  UNL1        0.0001
      5 C           2.2049    0.8209   25.7897 C.ar    1  UNL1        0.0016
      6 C           3.2661   -0.1982   26.0816 C.ar    1  UNL1        0.0209
      7 C           3.8487   -1.0146   24.9663 C.ar    1  UNL1        0.1025
      8 N           4.8993   -2.0852   24.9490 N.ar    1  UNL1       -0.1691
      9 N           5.0700   -2.5442   23.5312 N.ar    1  UNL1       -0.2459
     10 C           3.7570   -1.3540   18.8295 C.ar    1  UNL1        0.1965
     11 N           3.6715   -2.8446   18.9740 N.ar    1  UNL1       -0.0587
     12 O           3.7989   -3.1770   20.4311 O.2     1  UNL1       -0.3311
     13 C           3.9632   -1.8920   21.1872 C.ar    1  UNL1        0.2772
     14 N           3.9373   -0.7653   20.1973 N.ar    1  UNL1       -0.1884
     15 N           3.7530   -1.3111   16.2317 N.3     1  UNL1       -0.3147
     16 C           3.6763   -0.5868   17.5430 C.3     1  UNL1        0.1355
     17 H           3.6823   -0.6392   15.4675 H       1  UNL1        0.1192
     18 H           2.9862   -1.9807   16.1678 H       1  UNL1        0.1192
     19 C           6.0192   -3.6040   23.0558 C.3     1  UNL1        0.1323
     20 C           7.2784   -3.8816   23.8221 C.3     1  UNL1        0.0527
     21 C           7.4465   -5.1873   24.5410 C.ar    1  UNL1       -0.0202
     22 C           8.1814   -6.3169   23.8823 C.ar    1  UNL1       -0.0042
     23 C           8.3496   -7.6226   24.6013 C.ar    1  UNL1       -0.0003
     24 C           7.7827   -7.7987   25.9789 C.ar    1  UNL1       -0.0000
     25 C           7.0478   -6.6691   26.6375 C.ar    1  UNL1       -0.0003
     26 C           6.8797   -5.3634   25.9186 C.ar    1  UNL1       -0.0042
@<TRIPOS>BOND
     1    15    16    1
     2    16    10    1
     3    10    11   ar
     4    11    12   ar
     5    12    13   ar
     6    13     1    1
     7     1     2   ar
     8     2     3   ar
     9     3     4   ar
    10     4     5   ar
    11     5     6   ar
    12     6     7   ar
    13     7     8   ar
    14     8     9   ar
    15     9    19    1
    16    19    20    1
    17    20    21    1
    18    21    22   ar
    19    22    23   ar
    20    23    24   ar
    21    24    25   ar
    22    25    26   ar
    23    13    14   ar
    24    14    10   ar
    25     9     1   ar
    26    26    21   ar
    27     7     2   ar
    28    15    17    1
    29    15    18    1
@<TRIPOS>MOLECULE
*****
 26 29 0 0 0
SMALL
GASTEIGER

@<TRIPOS>ATOM
      1 C           5.7016   -3.4202   23.5190 C.ar    1  UNL1        0.1351
      2 C           6.8057   -4.1183   24.2563 C.ar    1  UNL1        0.0413
      3 C           7.7738   -5.1851   23.8384 C.ar    1  UNL1        0.0032
      4 C           8.7895   -5.7002   24.8146 C.ar    1  UNL1        0.0001
      5 C           8.8372   -5.1484   26.2086 C.ar    1  UNL1        0.0016
      6 C           7.8692   -4.0815   26.6264 C.ar    1  UNL1        0.0209
      7 C           6.8534   -3.5665   25.6503 C.ar    1  UNL1        0.1025
      8 N           5.7788   -2.5273   25.7745 N.ar    1  UNL1       -0.1691
      9 N           5.0670   -2.4369   24.4573 N.ar    1  UNL1       -0.2459
     10 C           5.1814   -3.5186   19.6739 C.ar    1  UNL1        0.1965
     11 N           4.1943   -4.5534   20.1264 N.ar    1  UNL1       -0.0587
     12 O           4.2691   -4.6425   21.6219 O.2     1  UNL1       -0.3311
     13 C           5.3023   -3.6627   22.0936 C.ar    1  UNL1        0.2772
     14 N           5.8661   -2.9681   20.8896 N.ar    1  UNL1       -0.1884
     15 N           4.4249   -2.2823   17.5175 N.3     1  UNL1       -0.3147
     16 C           5.4385   -3.1065   18.2546 C.3     1  UNL1        0.1355
     17 H           4.7607   -2.0956   16.5727 H       1  UNL1        0.1192
     18 H           4.2825   -1.3997   18.0084 H       1  UNL1        0.1192
     19 C           3.9216   -1.5235   24.1349 C.3     1  UNL1        0.1323
     20 C           4.0197   -0.5782   22.9745 C.3     1  UNL1        0.0527
     21 C           2.8193   -0.3217   22.1125 C.ar    1  UNL1       -0.0202
     22 C           2.6262   -1.1000   20.8447 C.ar    1  UNL1       -0.0042
     23 C           1.4257   -0.8434   19.9827 C.ar    1  UNL1       -0.0003
     24 C           0.4184    0.1914   20.3884 C.ar    1  UNL1       -0.0000
     25 C           0.6115    0.9695   21.6561 C.ar    1  UNL1       -0.0003
     26 C           1.8120    0.7130   22.5181 C.ar    1  UNL1       -0.0042
@<TRIPOS>BOND
     1    15    16    1
     2    16    10    1
     3    10    11   ar
     4    11    12   ar
     5    12    13   ar
     6    13     1    1
     7     1     2   ar
     8     2     3   ar
     9     3     4   ar
    10     4     5   ar
    11     5     6   ar
    12     6     7   ar
    13     7     8   ar
    14     8     9   ar
    15     9    19    1
    16    19    20    1
    17    20    21    1
    18    21    22   ar
    19    22    23   ar
    20    23    24   ar
    21    24    25   ar
    22    25    26   ar
    23    13    14   ar
    24    14    10   ar
    25     9     1   ar
    26    26    21   ar
    27     7     2   ar
    28    15    17    1
    29    15    18    1
