@<TRIPOS>MOLECULE
*****
 37 40 0 0 0
SMALL
GASTEIGER

@<TRIPOS>ATOM
      1 C           4.6571   -3.1719   22.6179 C.ar    1  UNL1        0.1674
      2 C           4.1205   -2.0414   23.4450 C.ar    1  UNL1        0.1360
      3 N           4.8060   -1.6550   24.7220 N.ar    1  UNL1       -0.2413
      4 C           6.0283   -2.3991   25.1719 C.ar    1  UNL1        0.1046
      5 C           6.5650   -3.5295   24.3449 C.ar    1  UNL1        0.1558
      6 C           5.8794   -3.9160   23.0679 C.ar    1  UNL1        0.0772
      7 O           7.7872   -4.2736   24.7949 O.3     1  UNL1       -0.4701
      8 C           7.8540   -5.7649   24.6477 C.3     1  UNL1        0.2525
      9 O           3.9716   -3.5583   21.3410 O.3     1  UNL1       -0.4517
     10 C           1.6651    0.5340   18.6608 C.ar    1  UNL1        0.1737
     11 C           2.8659    0.1338   17.8559 C.ar    1  UNL1        0.0592
     12 C           3.7428   -0.9893   18.3247 C.ar    1  UNL1        0.0875
     13 N           4.9436   -1.3894   17.5198 N.ar    1  UNL1       -0.2435
     14 C           5.8204   -2.5125   17.9887 C.ar    1  UNL1        0.1020
     15 C           5.4964   -3.2355   19.2624 C.ar    1  UNL1        0.0581
     16 C           4.2956   -2.8354   20.0673 C.ar    1  UNL1        0.1484
     17 C           3.4188   -1.7123   19.5985 C.ar    1  UNL1        0.0554
     18 C           2.2179   -1.3121   20.4034 C.ar    1  UNL1        0.0446
     19 C           1.3411   -0.1890   19.9346 C.ar    1  UNL1        0.1726
     20 O           0.1402    0.2112   20.7395 O.3     1  UNL1       -0.4684
     21 C           0.2644    1.2674   21.7973 C.3     1  UNL1        0.2526
     22 O           0.7882    1.6571   18.1920 O.3     1  UNL1       -0.4724
     23 C           2.0291    3.5353   19.4892 C.3     1  UNL1        0.0512
     24 C           1.2737    3.0738   18.2783 C.3     1  UNL1        0.2057
     25 C           6.7138   -2.0126   26.4490 C.3     1  UNL1        0.1612
     26 C           5.9375   -1.9619   27.7314 C.2     1  UNL1        0.3165
     27 O           6.1004   -3.0504   28.7504 O.2     1  UNL1       -0.2465
     28 N           4.9981   -0.8225   27.9947 N.am    1  UNL1       -0.1709
     29 H           4.8911   -0.1081   27.3259 H       1  UNL1        0.3011
     30 C           4.2216   -0.7717   29.2772 C.2     1  UNL1        0.3352
     31 N           2.7400   -0.9580   29.4188 N.2     1  UNL1        0.0754
     32 N           2.3932   -0.8271   30.8723 N.2     1  UNL1       -0.0428
     33 C           3.6606   -0.5599   31.6290 C.2     1  UNL1        0.0944
     34 C           4.7905   -0.5257   30.6431 C.3     1  UNL1        0.1480
     35 C           6.2358   -0.2872   30.9664 C.3     1  UNL1        0.0190
     36 C           3.7774   -0.3617   33.1112 C.3     1  UNL1        0.0459
     37 C           4.3160   -1.4634   33.9750 C.3     1  UNL1        0.0065
@<TRIPOS>BOND
     1    23    24    1
     2    24    22    1
     3    22    10    1
     4    10    11   ar
     5    11    12   ar
     6    12    13   ar
     7    13    14   ar
     8    14    15   ar
     9    15    16   ar
    10    16     9    1
    11     9     1    1
    12     1     2   ar
    13     2     3   ar
    14     3     4   ar
    15     4    25    1
    16    25    26    1
    17    26    27    2
    18    26    28   am
    19    28    30    1
    20    30    31    2
    21    31    32    1
    22    32    33    2
    23    33    36    1
    24    36    37    1
    25    33    34    1
    26    34    35    1
    27     4     5   ar
    28     5     7    1
    29     7     8    1
    30     5     6   ar
    31    16    17   ar
    32    17    18   ar
    33    18    19   ar
    34    19    20    1
    35    20    21    1
    36    19    10   ar
    37    17    12   ar
    38     6     1   ar
    39    34    30    1
    40    28    29    1
@<TRIPOS>MOLECULE
*****
 37 40 0 0 0
SMALL
GASTEIGER

@<TRIPOS>ATOM
      1 C           4.6251   -0.8838   34.2802 C.ar    1  UNL1        0.1674
      2 C           3.9088    0.2206   33.5608 C.ar    1  UNL1        0.1360
      3 N           3.8526    0.2265   32.0619 N.ar    1  UNL1       -0.2413
      4 C           4.5126   -0.8720   31.2823 C.ar    1  UNL1        0.1046
      5 C           5.2288   -1.9763   32.0016 C.ar    1  UNL1        0.1558
      6 C           5.2850   -1.9823   33.5005 C.ar    1  UNL1        0.0772
      7 O           5.8888   -3.0748   31.2219 O.3     1  UNL1       -0.4701
      8 C           6.8546   -4.0004   31.9006 C.3     1  UNL1        0.2525
      9 O           4.6813   -0.8898   35.7791 O.3     1  UNL1       -0.4517
     10 C           3.9747    3.0835   39.3796 C.ar    1  UNL1        0.1737
     11 C           5.4527    2.9986   39.1385 C.ar    1  UNL1        0.0592
     12 C           5.9989    1.9841   38.1780 C.ar    1  UNL1        0.0875
     13 N           7.4770    1.8992   37.9369 N.ar    1  UNL1       -0.2435
     14 C           8.0231    0.8846   36.9765 C.ar    1  UNL1        0.1020
     15 C           7.0912   -0.0450   36.2572 C.ar    1  UNL1        0.0581
     16 C           5.6132    0.0399   36.4983 C.ar    1  UNL1        0.1484
     17 C           5.0670    1.0544   37.4587 C.ar    1  UNL1        0.0554
     18 C           3.5889    1.1394   37.6999 C.ar    1  UNL1        0.0446
     19 C           3.0428    2.1539   38.6603 C.ar    1  UNL1        0.1726
     20 O           1.5647    2.2388   38.9015 O.3     1  UNL1       -0.4684
     21 C           0.8046    1.0211   39.3366 C.3     1  UNL1        0.2526
     22 O           3.4285    4.0981   40.3400 O.3     1  UNL1       -0.4724
     23 C           3.8890    5.3574   42.5653 C.3     1  UNL1        0.0512
     24 C           4.3605    4.8680   41.2281 C.3     1  UNL1        0.2057
     25 C           4.4564   -0.8660   29.7833 C.3     1  UNL1        0.1612
     26 C           3.1628   -0.5736   29.0825 C.2     1  UNL1        0.3165
     27 O           2.8058   -1.3137   27.8275 O.2     1  UNL1       -0.2465
     28 N           2.2264    0.4588   29.6366 N.am    1  UNL1       -0.1709
     29 H           2.4607    0.9445   30.4602 H       1  UNL1        0.3011
     30 C           0.9327    0.7512   28.9357 C.2     1  UNL1        0.3352
     31 N          -0.4131    0.2001   29.3029 N.2     1  UNL1        0.0754
     32 N          -1.4197    0.7544   28.3388 N.2     1  UNL1       -0.0428
     33 C          -0.6959    1.6481   27.3757 C.2     1  UNL1        0.0944
     34 C           0.7580    1.6461   27.7447 C.3     1  UNL1        0.1480
     35 C           1.8462    2.4058   27.0454 C.3     1  UNL1        0.0190
     36 C          -1.3170    2.4100   26.2427 C.3     1  UNL1        0.0459
     37 C          -2.3615    3.4498   26.5216 C.3     1  UNL1        0.0065
@<TRIPOS>BOND
     1    23    24    1
     2    24    22    1
     3    22    10    1
     4    10    11   ar
     5    11    12   ar
     6    12    13   ar
     7    13    14   ar
     8    14    15   ar
     9    15    16   ar
    10    16     9    1
    11     9     1    1
    12     1     2   ar
    13     2     3   ar
    14     3     4   ar
    15     4    25    1
    16    25    26    1
    17    26    27    2
    18    26    28   am
    19    28    30    1
    20    30    31    2
    21    31    32    1
    22    32    33    2
    23    33    36    1
    24    36    37    1
    25    33    34    1
    26    34    35    1
    27     4     5   ar
    28     5     7    1
    29     7     8    1
    30     5     6   ar
    31    16    17   ar
    32    17    18   ar
    33    18    19   ar
    34    19    20    1
    35    20    21    1
    36    19    10   ar
    37    17    12   ar
    38     6     1   ar
    39    34    30    1
    40    28    29    1
@<TRIPOS>MOLECULE
*****
 37 40 0 0 0
SMALL
GASTEIGER

@<TRIPOS>ATOM
      1 C           4.6397   -3.2291   22.4773 C.ar    1  UNL1        0.1674
      2 C           3.9899   -2.0828   23.1942 C.ar    1  UNL1        0.1360
      3 N           4.5027   -1.6496   24.5356 N.ar    1  UNL1       -0.2413
      4 C           5.6653   -2.3625   25.1601 C.ar    1  UNL1        0.1046
      5 C           6.3151   -3.5087   24.4433 C.ar    1  UNL1        0.1558
      6 C           5.8023   -3.9421   23.1019 C.ar    1  UNL1        0.0772
      7 O           7.4777   -4.2217   25.0679 O.3     1  UNL1       -0.4701
      8 C           7.2759   -5.5575   25.7198 C.3     1  UNL1        0.2525
      9 O           4.1269   -3.6624   21.1360 O.3     1  UNL1       -0.4517
     10 C           1.7924    0.5130   18.6129 C.ar    1  UNL1        0.1737
     11 C           3.0222    0.1827   17.8201 C.ar    1  UNL1        0.0592
     12 C           3.9133   -0.9437   18.2527 C.ar    1  UNL1        0.0875
     13 N           5.1431   -1.2740   17.4600 N.ar    1  UNL1       -0.2435
     14 C           6.0342   -2.4004   17.8926 C.ar    1  UNL1        0.1020
     15 C           5.6955   -3.1965   19.1179 C.ar    1  UNL1        0.0581
     16 C           4.4657   -2.8662   19.9106 C.ar    1  UNL1        0.1484
     17 C           3.5746   -1.7398   19.4780 C.ar    1  UNL1        0.0554
     18 C           2.3447   -1.4095   20.2708 C.ar    1  UNL1        0.0446
     19 C           1.4537   -0.2831   19.8382 C.ar    1  UNL1        0.1726
     20 O           0.2238    0.0472   20.6310 O.3     1  UNL1       -0.4684
     21 C           0.2983    1.0421   21.7511 C.3     1  UNL1        0.2526
     22 O           0.9013    1.6395   18.1803 O.3     1  UNL1       -0.4724
     23 C           1.8614    3.5535   19.6515 C.3     1  UNL1        0.0512
     24 C           1.3628    3.0592   18.3260 C.3     1  UNL1        0.2057
     25 C           6.1780   -1.9292   26.5016 C.3     1  UNL1        0.1612
     26 C           5.2777   -1.1881   27.4450 C.2     1  UNL1        0.3165
     27 O           5.8475   -0.1500   28.3657 O.2     1  UNL1       -0.2465
     28 N           3.8076   -1.4851   27.4677 N.am    1  UNL1       -0.1709
     29 H           3.4337   -2.1664   26.8634 H       1  UNL1        0.3011
     30 C           2.9072   -0.7439   28.4112 C.2     1  UNL1        0.3352
     31 N           2.7582   -1.0100   29.8798 N.2     1  UNL1        0.0754
     32 N           1.7566   -0.0371   30.4279 N.2     1  UNL1       -0.0428
     33 C           1.2866    0.8303   29.2979 C.2     1  UNL1        0.0944
     34 C           1.9977    0.3934   28.0515 C.3     1  UNL1        0.1480
     35 C           1.8290    0.9893   26.6853 C.3     1  UNL1        0.0190
     36 C           0.2819    1.9397   29.3970 C.3     1  UNL1        0.0459
     37 C           0.7405    3.3678   29.4106 C.3     1  UNL1        0.0065
@<TRIPOS>BOND
     1    23    24    1
     2    24    22    1
     3    22    10    1
     4    10    11   ar
     5    11    12   ar
     6    12    13   ar
     7    13    14   ar
     8    14    15   ar
     9    15    16   ar
    10    16     9    1
    11     9     1    1
    12     1     2   ar
    13     2     3   ar
    14     3     4   ar
    15     4    25    1
    16    25    26    1
    17    26    27    2
    18    26    28   am
    19    28    30    1
    20    30    31    2
    21    31    32    1
    22    32    33    2
    23    33    36    1
    24    36    37    1
    25    33    34    1
    26    34    35    1
    27     4     5   ar
    28     5     7    1
    29     7     8    1
    30     5     6   ar
    31    16    17   ar
    32    17    18   ar
    33    18    19   ar
    34    19    20    1
    35    20    21    1
    36    19    10   ar
    37    17    12   ar
    38     6     1   ar
    39    34    30    1
    40    28    29    1
@<TRIPOS>MOLECULE
*****
 37 40 0 0 0
SMALL
GASTEIGER

@<TRIPOS>ATOM
      1 C           7.6095   -3.2337   21.6812 C.ar    1  UNL1        0.1674
      2 C           8.3451   -2.6229   20.5254 C.ar    1  UNL1        0.1360
      3 N           7.6294   -2.3652   19.2326 N.ar    1  UNL1       -0.2413
      4 C           6.1781   -2.7184   19.0955 C.ar    1  UNL1        0.1046
      5 C           5.4424   -3.3292   20.2512 C.ar    1  UNL1        0.1558
      6 C           6.1581   -3.5868   21.5441 C.ar    1  UNL1        0.0772
      7 O           3.9910   -3.6823   20.1141 O.3     1  UNL1       -0.4701
      8 C           3.5931   -5.0076   19.5350 C.3     1  UNL1        0.2525
      9 O           8.3251   -3.4913   22.9740 O.3     1  UNL1       -0.4517
     10 C           6.6479   -5.3571   27.7652 C.ar    1  UNL1        0.1737
     11 C           7.1408   -6.5513   27.0031 C.ar    1  UNL1        0.0592
     12 C           7.6833   -6.3835   25.6148 C.ar    1  UNL1        0.0875
     13 N           8.1763   -7.5777   24.8527 N.ar    1  UNL1       -0.2435
     14 C           8.7188   -7.4098   23.4644 C.ar    1  UNL1        0.1020
     15 C           8.7684   -6.0477   22.8382 C.ar    1  UNL1        0.0581
     16 C           8.2755   -4.8534   23.6002 C.ar    1  UNL1        0.1484
     17 C           7.7330   -5.0213   24.9885 C.ar    1  UNL1        0.0554
     18 C           7.2400   -3.8271   25.7507 C.ar    1  UNL1        0.0446
     19 C           6.6975   -3.9949   27.1390 C.ar    1  UNL1        0.1726
     20 O           6.2045   -2.8007   27.9011 O.3     1  UNL1       -0.4684
     21 C           5.0261   -2.0224   27.3955 C.3     1  UNL1        0.2526
     22 O           6.1053   -5.5249   29.1536 O.3     1  UNL1       -0.4724
     23 C           8.4807   -5.1566   30.1394 C.3     1  UNL1        0.0512
     24 C           7.0372   -5.5176   30.3290 C.3     1  UNL1        0.2057
     25 C           5.4624   -2.4607   17.8027 C.3     1  UNL1        0.1612
     26 C           4.6132   -1.2341   17.6470 C.2     1  UNL1        0.3165
     27 O           3.8757   -0.9903   16.3638 O.2     1  UNL1       -0.2465
     28 N           4.5016   -0.2512   18.7746 N.am    1  UNL1       -0.1709
     29 H           4.9857   -0.4112   19.6168 H       1  UNL1        0.3011
     30 C           3.6524    0.9755   18.6190 C.2     1  UNL1        0.3352
     31 N           4.1281    2.3264   18.1730 N.2     1  UNL1        0.0754
     32 N           2.9482    3.2524   18.1604 N.2     1  UNL1       -0.0428
     33 C           1.7432    2.4739   18.5986 C.2     1  UNL1        0.0944
     34 C           2.1785    1.0667   18.8820 C.3     1  UNL1        0.1480
     35 C           1.2949   -0.0529   19.3468 C.3     1  UNL1        0.0190
     36 C           0.3480    3.0087   18.7303 C.3     1  UNL1        0.0459
     37 C          -0.2276    3.8763   17.6505 C.3     1  UNL1        0.0065
@<TRIPOS>BOND
     1    23    24    1
     2    24    22    1
     3    22    10    1
     4    10    11   ar
     5    11    12   ar
     6    12    13   ar
     7    13    14   ar
     8    14    15   ar
     9    15    16   ar
    10    16     9    1
    11     9     1    1
    12     1     2   ar
    13     2     3   ar
    14     3     4   ar
    15     4    25    1
    16    25    26    1
    17    26    27    2
    18    26    28   am
    19    28    30    1
    20    30    31    2
    21    31    32    1
    22    32    33    2
    23    33    36    1
    24    36    37    1
    25    33    34    1
    26    34    35    1
    27     4     5   ar
    28     5     7    1
    29     7     8    1
    30     5     6   ar
    31    16    17   ar
    32    17    18   ar
    33    18    19   ar
    34    19    20    1
    35    20    21    1
    36    19    10   ar
    37    17    12   ar
    38     6     1   ar
    39    34    30    1
    40    28    29    1
@<TRIPOS>MOLECULE
*****
 37 40 0 0 0
SMALL
GASTEIGER

@<TRIPOS>ATOM
      1 C           1.7754   -0.6593   20.6933 C.ar    1  UNL1        0.1674
      2 C           2.4324   -0.4711   22.0286 C.ar    1  UNL1        0.1360
      3 N           1.9182    0.5706   22.9774 N.ar    1  UNL1       -0.2413
      4 C           0.7469    1.4243   22.5909 C.ar    1  UNL1        0.1046
      5 C           0.0899    1.2362   21.2557 C.ar    1  UNL1        0.1558
      6 C           0.6041    0.1944   20.3069 C.ar    1  UNL1        0.0772
      7 O          -1.0814    2.0899   20.8693 O.3     1  UNL1       -0.4701
      8 C          -0.9046    3.2012   19.8774 C.3     1  UNL1        0.2525
      9 O           2.2897   -1.7011   19.7446 O.3     1  UNL1       -0.4517
     10 C           7.3992   -3.3103   20.4884 C.ar    1  UNL1        0.1737
     11 C           7.4051   -2.4665   19.2483 C.ar    1  UNL1        0.0592
     12 C           6.1292   -1.8532   18.7522 C.ar    1  UNL1        0.0875
     13 N           6.1352   -1.0093   17.5122 N.ar    1  UNL1       -0.2435
     14 C           4.8593   -0.3961   17.0162 C.ar    1  UNL1        0.1020
     15 C           3.5775   -0.6267   17.7603 C.ar    1  UNL1        0.0581
     16 C           3.5715   -1.4705   19.0004 C.ar    1  UNL1        0.1484
     17 C           4.8474   -2.0837   19.4964 C.ar    1  UNL1        0.0554
     18 C           4.8415   -2.9276   20.7365 C.ar    1  UNL1        0.0446
     19 C           6.1173   -3.5409   21.2325 C.ar    1  UNL1        0.1726
     20 O           6.1114   -4.3847   22.4727 O.3     1  UNL1       -0.4684
     21 C           6.0930   -3.7327   23.8234 C.3     1  UNL1        0.2526
     22 O           8.6751   -3.9236   20.9844 O.3     1  UNL1       -0.4724
     23 C           9.0937   -6.0386   22.4340 C.3     1  UNL1        0.0512
     24 C           8.7940   -5.4141   21.1036 C.3     1  UNL1        0.2057
     25 C           0.2326    2.4661   23.5398 C.3     1  UNL1        0.1612
     26 C           0.4314    2.2987   25.0171 C.2     1  UNL1        0.3165
     27 O           1.0195    3.4165   25.8262 O.2     1  UNL1       -0.2465
     28 N           0.0421    1.0134   25.6852 N.am    1  UNL1       -0.1709
     29 H          -0.3439    0.2797   25.1541 H       1  UNL1        0.3011
     30 C           0.2408    0.8459   27.1626 C.2     1  UNL1        0.3352
     31 N          -0.8260    0.9440   28.2125 N.2     1  UNL1        0.0754
     32 N          -0.1848    0.7096   29.5481 N.2     1  UNL1       -0.0428
     33 C           1.2783    0.4665   29.3237 C.2     1  UNL1        0.0944
     34 C           1.5413    0.5508   27.8494 C.3     1  UNL1        0.1480
     35 C           2.8714    0.3714   27.1793 C.3     1  UNL1        0.0190
     36 C           2.2991    0.1882   30.3869 C.3     1  UNL1        0.0459
     37 C           2.3162    1.0077   31.6431 C.3     1  UNL1        0.0065
@<TRIPOS>BOND
     1    23    24    1
     2    24    22    1
     3    22    10    1
     4    10    11   ar
     5    11    12   ar
     6    12    13   ar
     7    13    14   ar
     8    14    15   ar
     9    15    16   ar
    10    16     9    1
    11     9     1    1
    12     1     2   ar
    13     2     3   ar
    14     3     4   ar
    15     4    25    1
    16    25    26    1
    17    26    27    2
    18    26    28   am
    19    28    30    1
    20    30    31    2
    21    31    32    1
    22    32    33    2
    23    33    36    1
    24    36    37    1
    25    33    34    1
    26    34    35    1
    27     4     5   ar
    28     5     7    1
    29     7     8    1
    30     5     6   ar
    31    16    17   ar
    32    17    18   ar
    33    18    19   ar
    34    19    20    1
    35    20    21    1
    36    19    10   ar
    37    17    12   ar
    38     6     1   ar
    39    34    30    1
    40    28    29    1
@<TRIPOS>MOLECULE
*****
 37 40 0 0 0
SMALL
GASTEIGER

@<TRIPOS>ATOM
      1 C           6.1995   -3.7641   22.1333 C.ar    1  UNL1        0.1674
      2 C           4.7950   -3.8741   21.6181 C.ar    1  UNL1        0.1360
      3 N           4.4700   -3.4246   20.2245 N.ar    1  UNL1       -0.2413
      4 C           5.5494   -2.8651   19.3460 C.ar    1  UNL1        0.1046
      5 C           6.9538   -2.7550   19.8611 C.ar    1  UNL1        0.1558
      6 C           7.2789   -3.2045   21.2548 C.ar    1  UNL1        0.0772
      7 O           8.0332   -2.1954   18.9826 O.3     1  UNL1       -0.4701
      8 C           9.4371   -2.7111   19.0984 C.3     1  UNL1        0.2525
      9 O           6.5246   -4.2136   23.5269 O.3     1  UNL1       -0.4517
     10 C           6.8353   -4.7991   28.8945 C.ar    1  UNL1        0.1737
     11 C           6.3784   -3.3905   28.6554 C.ar    1  UNL1        0.0592
     12 C           6.1865   -2.8920   27.2537 C.ar    1  UNL1        0.0875
     13 N           5.7296   -1.4834   27.0147 N.ar    1  UNL1       -0.2435
     14 C           5.5377   -0.9849   25.6130 C.ar    1  UNL1        0.1020
     15 C           5.8027   -1.8950   24.4505 C.ar    1  UNL1        0.0581
     16 C           6.2596   -3.3035   24.6895 C.ar    1  UNL1        0.1484
     17 C           6.4515   -3.8020   26.0912 C.ar    1  UNL1        0.0554
     18 C           6.9084   -5.2106   26.3303 C.ar    1  UNL1        0.0446
     19 C           7.1003   -5.7091   27.7319 C.ar    1  UNL1        0.1726
     20 O           7.5573   -7.1177   27.9710 O.3     1  UNL1       -0.4684
     21 C           9.0228   -7.4361   27.9998 C.3     1  UNL1        0.2526
     22 O           7.0273   -5.2976   30.2962 O.3     1  UNL1       -0.4724
     23 C           6.4872   -3.7052   32.2767 C.3     1  UNL1        0.0512
     24 C           7.4885   -4.3574   31.3701 C.3     1  UNL1        0.2057
     25 C           5.2243   -2.4156   17.9523 C.3     1  UNL1        0.1612
     26 C           4.2160   -1.3272   17.7313 C.2     1  UNL1        0.3165
     27 O           3.8100   -0.9529   16.3366 O.2     1  UNL1       -0.2465
     28 N           3.6138   -0.6132   18.9049 N.am    1  UNL1       -0.1709
     29 H           3.8803   -0.8589   19.8203 H       1  UNL1        0.3011
     30 C           2.6055    0.4752   18.6839 C.2     1  UNL1        0.3352
     31 N           1.1635    0.2805   18.3196 N.2     1  UNL1        0.0754
     32 N           0.5290    1.6344   18.1990 N.2     1  UNL1       -0.0428
     33 C           1.5789    2.6658   18.4888 C.2     1  UNL1        0.0944
     34 C           2.8622    1.9494   18.7885 C.3     1  UNL1        0.1480
     35 C           4.1724    2.5940   19.1324 C.3     1  UNL1        0.0190
     36 C           1.3803    4.1526   18.4804 C.3     1  UNL1        0.0459
     37 C           1.9982    4.9856   17.3968 C.3     1  UNL1        0.0065
@<TRIPOS>BOND
     1    23    24    1
     2    24    22    1
     3    22    10    1
     4    10    11   ar
     5    11    12   ar
     6    12    13   ar
     7    13    14   ar
     8    14    15   ar
     9    15    16   ar
    10    16     9    1
    11     9     1    1
    12     1     2   ar
    13     2     3   ar
    14     3     4   ar
    15     4    25    1
    16    25    26    1
    17    26    27    2
    18    26    28   am
    19    28    30    1
    20    30    31    2
    21    31    32    1
    22    32    33    2
    23    33    36    1
    24    36    37    1
    25    33    34    1
    26    34    35    1
    27     4     5   ar
    28     5     7    1
    29     7     8    1
    30     5     6   ar
    31    16    17   ar
    32    17    18   ar
    33    18    19   ar
    34    19    20    1
    35    20    21    1
    36    19    10   ar
    37    17    12   ar
    38     6     1   ar
    39    34    30    1
    40    28    29    1
@<TRIPOS>MOLECULE
*****
 37 40 0 0 0
SMALL
GASTEIGER

@<TRIPOS>ATOM
      1 C           2.5551    1.5728   25.8976 C.ar    1  UNL1        0.1674
      2 C           3.4579    2.2752   26.8680 C.ar    1  UNL1        0.1360
      3 N           2.9747    2.5828   28.2542 N.ar    1  UNL1       -0.2413
      4 C           1.5887    2.1880   28.6702 C.ar    1  UNL1        0.1046
      5 C           0.6858    1.4856   27.6999 C.ar    1  UNL1        0.1558
      6 C           1.1690    1.1780   26.3136 C.ar    1  UNL1        0.0772
      7 O          -0.7002    1.0908   28.1159 O.3     1  UNL1       -0.4701
      8 C          -0.9500   -0.2694   28.6970 C.3     1  UNL1        0.2525
      9 O           3.0383    1.2652   24.5113 O.3     1  UNL1       -0.4517
     10 C           3.3681   -2.2639   20.4264 C.ar    1  UNL1        0.1737
     11 C           4.3611   -2.7220   21.4531 C.ar    1  UNL1        0.0592
     12 C           4.5269   -1.9542   22.7310 C.ar    1  UNL1        0.0875
     13 N           5.5199   -2.4122   23.7577 N.ar    1  UNL1       -0.2435
     14 C           5.6857   -1.6445   25.0356 C.ar    1  UNL1        0.1020
     15 C           4.8585   -0.4187   25.2868 C.ar    1  UNL1        0.0581
     16 C           3.8655    0.0394   24.2601 C.ar    1  UNL1        0.1484
     17 C           3.6997   -0.7284   22.9822 C.ar    1  UNL1        0.0554
     18 C           2.7067   -0.2703   21.9555 C.ar    1  UNL1        0.0446
     19 C           2.5409   -1.0381   20.6776 C.ar    1  UNL1        0.1726
     20 O           1.5479   -0.5801   19.6508 O.3     1  UNL1       -0.4684
     21 C           0.6018    0.5395   19.9696 C.3     1  UNL1        0.2526
     22 O           3.2023   -3.0317   19.1484 O.3     1  UNL1       -0.4724
     23 C           4.6202   -5.1708   18.7441 C.3     1  UNL1        0.0512
     24 C           3.3279   -4.5264   19.1498 C.3     1  UNL1        0.2057
     25 C           1.1054    2.4956   30.0566 C.3     1  UNL1        0.1612
     26 C           1.6205    1.7055   31.2229 C.2     1  UNL1        0.3165
     27 O           0.8697    1.7092   32.5215 O.2     1  UNL1       -0.2465
     28 N           2.8863    0.9117   31.0907 N.am    1  UNL1       -0.1709
     29 H           3.3791    0.9093   30.2384 H       1  UNL1        0.3011
     30 C           3.4015    0.1215   32.2570 C.2     1  UNL1        0.3352
     31 N           3.4726   -1.3741   32.3463 N.2     1  UNL1        0.0754
     32 N           4.0510   -1.7317   33.6833 N.2     1  UNL1       -0.0428
     33 C           4.3373   -0.4570   34.4204 C.2     1  UNL1        0.0944
     34 C           3.9359    0.6883   33.5389 C.3     1  UNL1        0.1480
     35 C           4.0491    2.1449   33.8794 C.3     1  UNL1        0.0190
     36 C           4.9224   -0.3470   35.7972 C.3     1  UNL1        0.0459
     37 C           6.3946   -0.1177   35.9704 C.3     1  UNL1        0.0065
@<TRIPOS>BOND
     1    23    24    1
     2    24    22    1
     3    22    10    1
     4    10    11   ar
     5    11    12   ar
     6    12    13   ar
     7    13    14   ar
     8    14    15   ar
     9    15    16   ar
    10    16     9    1
    11     9     1    1
    12     1     2   ar
    13     2     3   ar
    14     3     4   ar
    15     4    25    1
    16    25    26    1
    17    26    27    2
    18    26    28   am
    19    28    30    1
    20    30    31    2
    21    31    32    1
    22    32    33    2
    23    33    36    1
    24    36    37    1
    25    33    34    1
    26    34    35    1
    27     4     5   ar
    28     5     7    1
    29     7     8    1
    30     5     6   ar
    31    16    17   ar
    32    17    18   ar
    33    18    19   ar
    34    19    20    1
    35    20    21    1
    36    19    10   ar
    37    17    12   ar
    38     6     1   ar
    39    34    30    1
    40    28    29    1
@<TRIPOS>MOLECULE
*****
 37 40 0 0 0
SMALL
GASTEIGER

@<TRIPOS>ATOM
      1 C           6.5701   -1.6422   28.0309 C.ar    1  UNL1        0.1674
      2 C           6.2389   -0.7110   29.1594 C.ar    1  UNL1        0.1360
      3 N           6.0373   -1.2522   30.5437 N.ar    1  UNL1       -0.2413
      4 C           6.1668   -2.7245   30.7997 C.ar    1  UNL1        0.1046
      5 C           6.4980   -3.6556   29.6713 C.ar    1  UNL1        0.1558
      6 C           6.6996   -3.1145   28.2869 C.ar    1  UNL1        0.0772
      7 O           6.6275   -5.1280   29.9273 O.3     1  UNL1       -0.4701
      8 C           7.9857   -5.7614   29.9914 C.3     1  UNL1        0.2525
      9 O           6.7717   -1.1010   26.6466 O.3     1  UNL1       -0.4517
     10 C           4.9667   -3.7090   22.2659 C.ar    1  UNL1        0.1737
     11 C           3.9991   -2.5896   22.5118 C.ar    1  UNL1        0.0592
     12 C           4.2084   -1.6577   23.6684 C.ar    1  UNL1        0.0875
     13 N           3.2407   -0.5383   23.9143 N.ar    1  UNL1       -0.2435
     14 C           3.4500    0.3935   25.0709 C.ar    1  UNL1        0.1020
     15 C           4.6270    0.2060   25.9817 C.ar    1  UNL1        0.0581
     16 C           5.5947   -0.9134   25.7358 C.ar    1  UNL1        0.1484
     17 C           5.3854   -1.8453   24.5792 C.ar    1  UNL1        0.0554
     18 C           6.3531   -2.9647   24.3333 C.ar    1  UNL1        0.0446
     19 C           6.1437   -3.8966   23.1767 C.ar    1  UNL1        0.1726
     20 O           7.1115   -5.0160   22.9307 O.3     1  UNL1       -0.4684
     21 C           8.4755   -4.7210   22.3808 C.3     1  UNL1        0.2526
     22 O           4.7575   -4.6409   21.1092 O.3     1  UNL1       -0.4724
     23 C           4.8166   -3.9787   18.5976 C.3     1  UNL1        0.0512
     24 C           4.0527   -4.1590   19.8759 C.3     1  UNL1        0.2057
     25 C           5.9652   -3.2657   32.1841 C.3     1  UNL1        0.1612
     26 C           5.2914   -2.4245   33.2274 C.2     1  UNL1        0.3165
     27 O           3.8930   -2.7477   33.6632 O.2     1  UNL1       -0.2465
     28 N           6.0162   -1.2602   33.8350 N.am    1  UNL1       -0.1709
     29 H           6.9340   -1.0482   33.5490 H       1  UNL1        0.3011
     30 C           5.3424   -0.4190   34.8783 C.2     1  UNL1        0.3352
     31 N           5.5635   -0.5066   36.3593 N.2     1  UNL1        0.0754
     32 N           4.6870    0.5157   37.0201 N.2     1  UNL1       -0.0428
     33 C           3.9242    1.2352   35.9474 C.2     1  UNL1        0.0944
     34 C           4.3293    0.6575   34.6238 C.3     1  UNL1        0.1480
     35 C           3.8121    1.0818   33.2811 C.3     1  UNL1        0.0190
     36 C           2.9309    2.3386   36.1610 C.3     1  UNL1        0.0459
     37 C           2.4651    2.6704   37.5477 C.3     1  UNL1        0.0065
@<TRIPOS>BOND
     1    23    24    1
     2    24    22    1
     3    22    10    1
     4    10    11   ar
     5    11    12   ar
     6    12    13   ar
     7    13    14   ar
     8    14    15   ar
     9    15    16   ar
    10    16     9    1
    11     9     1    1
    12     1     2   ar
    13     2     3   ar
    14     3     4   ar
    15     4    25    1
    16    25    26    1
    17    26    27    2
    18    26    28   am
    19    28    30    1
    20    30    31    2
    21    31    32    1
    22    32    33    2
    23    33    36    1
    24    36    37    1
    25    33    34    1
    26    34    35    1
    27     4     5   ar
    28     5     7    1
    29     7     8    1
    30     5     6   ar
    31    16    17   ar
    32    17    18   ar
    33    18    19   ar
    34    19    20    1
    35    20    21    1
    36    19    10   ar
    37    17    12   ar
    38     6     1   ar
    39    34    30    1
    40    28    29    1
@<TRIPOS>MOLECULE
*****
 37 40 0 0 0
SMALL
GASTEIGER

@<TRIPOS>ATOM
      1 C           2.5604    0.6282   24.7034 C.ar    1  UNL1        0.1674
      2 C           3.4970   -0.5188   24.9425 C.ar    1  UNL1        0.1360
      3 N           3.8854   -1.4192   23.8074 N.ar    1  UNL1       -0.2413
      4 C           3.3372   -1.1725   22.4331 C.ar    1  UNL1        0.1046
      5 C           2.4006   -0.0256   22.1939 C.ar    1  UNL1        0.1558
      6 C           2.0121    0.8748   23.3291 C.ar    1  UNL1        0.0772
      7 O           1.8523    0.2210   20.8197 O.3     1  UNL1       -0.4701
      8 C           1.0510    1.4585   20.5428 C.3     1  UNL1        0.2525
      9 O           2.1720    1.5285   25.8385 O.3     1  UNL1       -0.4517
     10 C           4.0368   -0.2571   30.5907 C.ar    1  UNL1        0.1737
     11 C           2.5472   -0.4271   30.6380 C.ar    1  UNL1        0.0592
     12 C           1.7086   -0.0231   29.4617 C.ar    1  UNL1        0.0875
     13 N           0.2190   -0.1930   29.5089 N.ar    1  UNL1       -0.2435
     14 C          -0.6196    0.2109   28.3327 C.ar    1  UNL1        0.1020
     15 C           0.0314    0.7848   27.1092 C.ar    1  UNL1        0.0581
     16 C           1.5210    0.9547   27.0620 C.ar    1  UNL1        0.1484
     17 C           2.3596    0.5507   28.2382 C.ar    1  UNL1        0.0554
     18 C           3.8492    0.7206   28.1910 C.ar    1  UNL1        0.0446
     19 C           4.6878    0.3167   29.3673 C.ar    1  UNL1        0.1726
     20 O           6.1774    0.4866   29.3200 O.3     1  UNL1       -0.4684
     21 C           7.0483   -0.6508   28.8752 C.3     1  UNL1        0.2526
     22 O           4.8755   -0.6611   31.7670 O.3     1  UNL1       -0.4724
     23 C           4.3327   -2.5860   33.4254 C.3     1  UNL1        0.0512
     24 C           4.2185   -1.1447   33.0258 C.3     1  UNL1        0.2057
     25 C           3.7256   -2.0729   21.2979 C.3     1  UNL1        0.1612
     26 C           4.6626   -3.2196   21.5370 C.2     1  UNL1        0.3165
     27 O           4.2519   -4.6137   21.1659 O.2     1  UNL1       -0.2465
     28 N           6.0103   -2.9721   22.1472 N.am    1  UNL1       -0.1709
     29 H           6.2799   -2.0571   22.3907 H       1  UNL1        0.3011
     30 C           6.9474   -4.1187   22.3862 C.2     1  UNL1        0.3352
     31 N           7.7168   -4.8626   21.3352 N.2     1  UNL1        0.0754
     32 N           8.5245   -5.9264   22.0177 N.2     1  UNL1       -0.0428
     33 C           8.2543   -5.8401   23.4907 C.2     1  UNL1        0.0944
     34 C           7.2796   -4.7229   23.7184 C.3     1  UNL1        0.1480
     35 C           6.7331   -4.2864   25.0454 C.3     1  UNL1        0.0190
     36 C           8.8536   -6.7169   24.5499 C.3     1  UNL1        0.0459
     37 C           7.9989   -7.7222   25.2633 C.3     1  UNL1        0.0065
@<TRIPOS>BOND
     1    23    24    1
     2    24    22    1
     3    22    10    1
     4    10    11   ar
     5    11    12   ar
     6    12    13   ar
     7    13    14   ar
     8    14    15   ar
     9    15    16   ar
    10    16     9    1
    11     9     1    1
    12     1     2   ar
    13     2     3   ar
    14     3     4   ar
    15     4    25    1
    16    25    26    1
    17    26    27    2
    18    26    28   am
    19    28    30    1
    20    30    31    2
    21    31    32    1
    22    32    33    2
    23    33    36    1
    24    36    37    1
    25    33    34    1
    26    34    35    1
    27     4     5   ar
    28     5     7    1
    29     7     8    1
    30     5     6   ar
    31    16    17   ar
    32    17    18   ar
    33    18    19   ar
    34    19    20    1
    35    20    21    1
    36    19    10   ar
    37    17    12   ar
    38     6     1   ar
    39    34    30    1
    40    28    29    1
