@<TRIPOS>MOLECULE
*****
 27 29 0 0 0
SMALL
GASTEIGER

@<TRIPOS>ATOM
      1 N          -6.9022  -18.5360   20.1425 N.3     1  UNL1       -0.2951
      2 H          -6.0461  -18.5693   19.5890 H       1  UNL1        0.1235
      3 C          -5.1949  -19.0640   22.0284 C.3     1  UNL1        0.0220
      4 C          -6.4848  -18.4433   21.5804 C.3     1  UNL1        0.0768
      5 C          -7.3575  -17.7299   22.5701 C.ar    1  UNL1       -0.0080
      6 C          -7.1967  -16.2541   22.7848 C.ar    1  UNL1       -0.0030
      7 C          -8.0693  -15.5407   23.7745 C.ar    1  UNL1       -0.0003
      8 C          -9.1028  -16.3030   24.5495 C.ar    1  UNL1       -0.0000
      9 C          -9.2637  -17.7789   24.3348 C.ar    1  UNL1       -0.0003
     10 C         -10.2972  -18.5413   25.1097 C.ar    1  UNL1       -0.0000
     11 C         -10.4580  -20.0170   24.8950 C.ar    1  UNL1       -0.0000
     12 C          -9.5854  -20.7305   23.9053 C.ar    1  UNL1       -0.0000
     13 C          -8.5519  -19.9681   23.1303 C.ar    1  UNL1       -0.0003
     14 C          -8.3910  -18.4923   23.3451 C.ar    1  UNL1       -0.0027
     15 C          -7.7599  -19.6774   19.6826 C.3     1  UNL1        0.0691
     16 C          -9.1136  -19.4091   19.0950 C.3     1  UNL1        0.0218
     17 C         -10.3485  -19.6754   19.9037 C.3     1  UNL1        0.0278
     18 C         -10.9554  -18.5796   20.7289 C.ar    1  UNL1       -0.0222
     19 C         -10.4566  -17.1718   20.5897 C.ar    1  UNL1       -0.0043
     20 C         -11.0634  -16.0760   21.4149 C.ar    1  UNL1       -0.0004
     21 C         -12.1691  -16.3880   22.3794 C.ar    1  UNL1        0.0038
     22 C         -12.6679  -17.7958   22.5186 C.ar    1  UNL1        0.0711
     23 C         -12.0610  -18.8916   21.6934 C.ar    1  UNL1       -0.0004
     24 C         -13.7735  -18.1078   23.4831 C.3     1  UNL1        0.4186
     25 F         -14.8792  -18.4198   24.4476 F       1  UNL1       -0.1659
     26 F         -12.8872  -17.7127   24.6270 F       1  UNL1       -0.1659
     27 F         -14.6599  -18.5028   22.3393 F       1  UNL1       -0.1659
@<TRIPOS>BOND
     1     4     3    1
     2     4     1    1
     3     1    15    1
     4    15    16    1
     5    16    17    1
     6    17    18    1
     7    18    19   ar
     8    19    20   ar
     9    20    21   ar
    10    21    22   ar
    11    22    24    1
    12    24    25    1
    13    24    26    1
    14    24    27    1
    15    22    23   ar
    16     4     5    1
    17     5     6   ar
    18     6     7   ar
    19     7     8   ar
    20     8     9   ar
    21     9    10   ar
    22    10    11   ar
    23    11    12   ar
    24    12    13   ar
    25    13    14   ar
    26    23    18   ar
    27    14     5   ar
    28    14     9   ar
    29     1     2    1
@<TRIPOS>MOLECULE
*****
 27 29 0 0 0
SMALL
GASTEIGER

@<TRIPOS>ATOM
      1 N          -7.2585  -18.7352   20.2147 N.3     1  UNL1       -0.2951
      2 H          -6.3996  -18.5255   19.7061 H       1  UNL1        0.1235
      3 C          -5.4508  -19.5675   21.8849 C.3     1  UNL1        0.0220
      4 C          -6.8545  -19.1172   21.6079 C.3     1  UNL1        0.0768
      5 C          -7.8543  -19.0489   22.7240 C.ar    1  UNL1       -0.0080
      6 C          -8.6209  -20.2757   23.1204 C.ar    1  UNL1       -0.0030
      7 C          -9.6207  -20.2073   24.2365 C.ar    1  UNL1       -0.0003
      8 C          -9.8539  -18.9122   24.9563 C.ar    1  UNL1       -0.0000
      9 C          -9.0873  -17.6853   24.5600 C.ar    1  UNL1       -0.0003
     10 C          -9.3204  -16.3901   25.2797 C.ar    1  UNL1       -0.0000
     11 C          -8.5538  -15.1633   24.8834 C.ar    1  UNL1       -0.0000
     12 C          -7.5540  -15.2316   23.7672 C.ar    1  UNL1       -0.0000
     13 C          -7.3208  -16.5268   23.0475 C.ar    1  UNL1       -0.0003
     14 C          -8.0875  -17.7536   23.4438 C.ar    1  UNL1       -0.0027
     15 C          -8.0382  -19.6982   19.3693 C.3     1  UNL1        0.0691
     16 C          -9.4692  -19.4070   19.0266 C.3     1  UNL1        0.0218
     17 C         -10.5552  -19.7191   20.0131 C.3     1  UNL1        0.0278
     18 C         -11.0758  -18.6442   20.9204 C.ar    1  UNL1       -0.0222
     19 C         -10.5593  -17.2415   20.7950 C.ar    1  UNL1       -0.0043
     20 C         -11.0800  -16.1665   21.7023 C.ar    1  UNL1       -0.0004
     21 C         -12.1172  -16.4942   22.7351 C.ar    1  UNL1        0.0038
     22 C         -12.6338  -17.8968   22.8606 C.ar    1  UNL1        0.0711
     23 C         -12.1131  -18.9719   21.9532 C.ar    1  UNL1       -0.0004
     24 C         -13.6711  -18.2245   23.8934 C.3     1  UNL1        0.4186
     25 F         -14.7083  -18.5522   24.9262 F       1  UNL1       -0.1659
     26 F         -14.7251  -18.2510   22.8265 F       1  UNL1       -0.1659
     27 F         -12.6171  -18.1980   24.9604 F       1  UNL1       -0.1659
@<TRIPOS>BOND
     1     4     3    1
     2     4     1    1
     3     1    15    1
     4    15    16    1
     5    16    17    1
     6    17    18    1
     7    18    19   ar
     8    19    20   ar
     9    20    21   ar
    10    21    22   ar
    11    22    24    1
    12    24    25    1
    13    24    26    1
    14    24    27    1
    15    22    23   ar
    16     4     5    1
    17     5     6   ar
    18     6     7   ar
    19     7     8   ar
    20     8     9   ar
    21     9    10   ar
    22    10    11   ar
    23    11    12   ar
    24    12    13   ar
    25    13    14   ar
    26    23    18   ar
    27    14     5   ar
    28    14     9   ar
    29     1     2    1
@<TRIPOS>MOLECULE
*****
 27 29 0 0 0
SMALL
GASTEIGER

@<TRIPOS>ATOM
      1 N          -7.5635  -18.8409   19.9192 N.3     1  UNL1       -0.2951
      2 H          -7.6052  -18.1921   20.7051 H       1  UNL1        0.1235
      3 C          -9.2044  -20.4620   18.7235 C.3     1  UNL1        0.0220
      4 C          -8.9536  -19.3676   19.7181 C.3     1  UNL1        0.0768
      5 C         -10.0928  -18.7997   20.5117 C.ar    1  UNL1       -0.0080
      6 C         -11.0859  -17.8893   19.8523 C.ar    1  UNL1       -0.0030
      7 C         -12.2251  -17.3215   20.6458 C.ar    1  UNL1       -0.0003
      8 C         -12.3712  -17.6641   22.0988 C.ar    1  UNL1       -0.0000
      9 C         -11.3781  -18.5745   22.7583 C.ar    1  UNL1       -0.0003
     10 C         -11.5242  -18.9170   24.2113 C.ar    1  UNL1       -0.0000
     11 C         -10.5311  -19.8274   24.8708 C.ar    1  UNL1       -0.0000
     12 C          -9.3919  -20.3953   24.0772 C.ar    1  UNL1       -0.0000
     13 C          -9.2458  -20.0527   22.6242 C.ar    1  UNL1       -0.0003
     14 C         -10.2389  -19.1423   21.9648 C.ar    1  UNL1       -0.0027
     15 C          -6.4356  -19.7891   20.1999 C.3     1  UNL1        0.0691
     16 C          -5.9238  -19.9522   21.6004 C.3     1  UNL1        0.0218
     17 C          -4.9671  -18.9478   22.1711 C.3     1  UNL1        0.0278
     18 C          -5.4880  -17.7570   22.9198 C.ar    1  UNL1       -0.0222
     19 C          -4.5319  -16.8164   23.5917 C.ar    1  UNL1       -0.0043
     20 C          -5.0528  -15.6256   24.3403 C.ar    1  UNL1       -0.0004
     21 C          -6.5298  -15.3752   24.4171 C.ar    1  UNL1        0.0038
     22 C          -7.4859  -16.3157   23.7453 C.ar    1  UNL1        0.0711
     23 C          -6.9650  -17.5066   22.9966 C.ar    1  UNL1       -0.0004
     24 C          -8.9628  -16.0654   23.8221 C.3     1  UNL1        0.4186
     25 F         -10.4398  -15.8150   23.8989 F       1  UNL1       -0.1659
     26 F          -9.0369  -16.0428   22.3241 F       1  UNL1       -0.1659
     27 F          -8.8887  -16.0880   25.3201 F       1  UNL1       -0.1659
@<TRIPOS>BOND
     1     4     3    1
     2     4     1    1
     3     1    15    1
     4    15    16    1
     5    16    17    1
     6    17    18    1
     7    18    19   ar
     8    19    20   ar
     9    20    21   ar
    10    21    22   ar
    11    22    24    1
    12    24    25    1
    13    24    26    1
    14    24    27    1
    15    22    23   ar
    16     4     5    1
    17     5     6   ar
    18     6     7   ar
    19     7     8   ar
    20     8     9   ar
    21     9    10   ar
    22    10    11   ar
    23    11    12   ar
    24    12    13   ar
    25    13    14   ar
    26    23    18   ar
    27    14     5   ar
    28    14     9   ar
    29     1     2    1
@<TRIPOS>MOLECULE
*****
 27 29 0 0 0
SMALL
GASTEIGER

@<TRIPOS>ATOM
      1 N          -7.3038  -18.6531   20.2142 N.3     1  UNL1       -0.2951
      2 H          -6.5125  -18.2700   19.6971 H       1  UNL1        0.1235
      3 C          -6.8586  -20.5121   21.9738 C.3     1  UNL1        0.0220
      4 C          -6.7816  -19.0735   21.5561 C.3     1  UNL1        0.0768
      5 C          -6.1823  -18.0552   22.4803 C.ar    1  UNL1       -0.0080
      6 C          -4.6919  -17.9382   22.6022 C.ar    1  UNL1       -0.0030
      7 C          -4.0926  -16.9200   23.5263 C.ar    1  UNL1       -0.0003
      8 C          -4.9838  -16.0187   24.3285 C.ar    1  UNL1       -0.0000
      9 C          -6.4743  -16.1357   24.2066 C.ar    1  UNL1       -0.0003
     10 C          -7.3654  -15.2344   25.0088 C.ar    1  UNL1       -0.0000
     11 C          -8.8558  -15.3514   24.8868 C.ar    1  UNL1       -0.0000
     12 C          -9.4551  -16.3697   23.9627 C.ar    1  UNL1       -0.0000
     13 C          -8.5640  -17.2710   23.1605 C.ar    1  UNL1       -0.0003
     14 C          -7.0736  -17.1539   23.2825 C.ar    1  UNL1       -0.0027
     15 C          -7.9615  -19.6591   19.3167 C.3     1  UNL1        0.0691
     16 C          -9.4523  -19.6553   19.1514 C.3     1  UNL1        0.0218
     17 C         -10.3370  -19.9867   20.3165 C.3     1  UNL1        0.0278
     18 C         -11.1219  -18.9030   20.9944 C.ar    1  UNL1       -0.0222
     19 C         -11.2919  -17.5705   20.3269 C.ar    1  UNL1       -0.0043
     20 C         -12.0768  -16.4868   21.0048 C.ar    1  UNL1       -0.0004
     21 C         -12.6917  -16.7356   22.3502 C.ar    1  UNL1        0.0038
     22 C         -12.5216  -18.0680   23.0177 C.ar    1  UNL1        0.0711
     23 C         -11.7367  -19.1518   22.3398 C.ar    1  UNL1       -0.0004
     24 C         -13.1365  -18.3168   24.3631 C.3     1  UNL1        0.4186
     25 F         -13.7513  -18.5656   25.7085 F       1  UNL1       -0.1659
     26 F         -14.4956  -18.0363   23.7938 F       1  UNL1       -0.1659
     27 F         -11.7773  -18.5973   24.9323 F       1  UNL1       -0.1659
@<TRIPOS>BOND
     1     4     3    1
     2     4     1    1
     3     1    15    1
     4    15    16    1
     5    16    17    1
     6    17    18    1
     7    18    19   ar
     8    19    20   ar
     9    20    21   ar
    10    21    22   ar
    11    22    24    1
    12    24    25    1
    13    24    26    1
    14    24    27    1
    15    22    23   ar
    16     4     5    1
    17     5     6   ar
    18     6     7   ar
    19     7     8   ar
    20     8     9   ar
    21     9    10   ar
    22    10    11   ar
    23    11    12   ar
    24    12    13   ar
    25    13    14   ar
    26    23    18   ar
    27    14     5   ar
    28    14     9   ar
    29     1     2    1
@<TRIPOS>MOLECULE
*****
 27 29 0 0 0
SMALL
GASTEIGER

@<TRIPOS>ATOM
      1 N          -5.1868  -15.8309   23.4654 N.3     1  UNL1       -0.2951
      2 H          -5.5720  -15.9682   22.5310 H       1  UNL1        0.1235
      3 C          -4.0102  -17.4236   25.1474 C.3     1  UNL1        0.0220
      4 C          -4.2804  -16.9952   23.7355 C.3     1  UNL1        0.0768
      5 C          -3.6443  -17.7311   22.5937 C.ar    1  UNL1       -0.0080
      6 C          -2.2427  -17.3989   22.1752 C.ar    1  UNL1       -0.0030
      7 C          -1.6066  -18.1348   21.0333 C.ar    1  UNL1       -0.0003
      8 C          -2.3720  -19.2029   20.3100 C.ar    1  UNL1       -0.0000
      9 C          -3.7736  -19.5352   20.7286 C.ar    1  UNL1       -0.0003
     10 C          -4.5390  -20.6033   20.0053 C.ar    1  UNL1       -0.0000
     11 C          -5.9405  -20.9356   20.4238 C.ar    1  UNL1       -0.0000
     12 C          -6.5767  -20.1997   21.5656 C.ar    1  UNL1       -0.0000
     13 C          -5.8113  -19.1316   22.2889 C.ar    1  UNL1       -0.0003
     14 C          -4.4098  -18.7993   21.8704 C.ar    1  UNL1       -0.0027
     15 C          -6.3468  -15.5565   24.3760 C.3     1  UNL1        0.0691
     16 C          -7.7281  -15.4137   23.8088 C.3     1  UNL1        0.0218
     17 C          -8.9005  -16.0085   24.5309 C.3     1  UNL1        0.0278
     18 C          -9.3927  -17.3768   24.1626 C.ar    1  UNL1       -0.0222
     19 C          -9.7120  -18.3734   25.2372 C.ar    1  UNL1       -0.0043
     20 C         -10.2042  -19.7417   24.8689 C.ar    1  UNL1       -0.0004
     21 C         -10.3769  -20.1133   23.4260 C.ar    1  UNL1        0.0038
     22 C         -10.0576  -19.1167   22.3514 C.ar    1  UNL1        0.0711
     23 C          -9.5655  -17.7484   22.7197 C.ar    1  UNL1       -0.0004
     24 C         -10.2304  -19.4884   20.9085 C.3     1  UNL1        0.4186
     25 F         -10.4032  -19.8601   19.4655 F       1  UNL1       -0.1659
     26 F         -11.2265  -20.5399   21.2986 F       1  UNL1       -0.1659
     27 F          -9.2343  -18.4369   20.5184 F       1  UNL1       -0.1659
@<TRIPOS>BOND
     1     4     3    1
     2     4     1    1
     3     1    15    1
     4    15    16    1
     5    16    17    1
     6    17    18    1
     7    18    19   ar
     8    19    20   ar
     9    20    21   ar
    10    21    22   ar
    11    22    24    1
    12    24    25    1
    13    24    26    1
    14    24    27    1
    15    22    23   ar
    16     4     5    1
    17     5     6   ar
    18     6     7   ar
    19     7     8   ar
    20     8     9   ar
    21     9    10   ar
    22    10    11   ar
    23    11    12   ar
    24    12    13   ar
    25    13    14   ar
    26    23    18   ar
    27    14     5   ar
    28    14     9   ar
    29     1     2    1
@<TRIPOS>MOLECULE
*****
 27 29 0 0 0
SMALL
GASTEIGER

@<TRIPOS>ATOM
      1 N          -6.8082  -18.9989   19.8567 N.3     1  UNL1       -0.2951
      2 H          -6.4427  -18.4626   19.0698 H       1  UNL1        0.1235
      3 C          -5.4512  -21.1678   20.3088 C.3     1  UNL1        0.0220
      4 C          -5.6377  -19.6906   20.4904 C.3     1  UNL1        0.0768
      5 C          -4.6537  -18.9050   21.3057 C.ar    1  UNL1       -0.0080
      6 C          -4.9431  -18.6061   22.7468 C.ar    1  UNL1       -0.0030
      7 C          -3.9591  -17.8205   23.5620 C.ar    1  UNL1       -0.0003
      8 C          -2.6858  -17.3339   22.9362 C.ar    1  UNL1       -0.0000
      9 C          -2.3963  -17.6328   21.4950 C.ar    1  UNL1       -0.0003
     10 C          -1.1230  -17.1462   20.8692 C.ar    1  UNL1       -0.0000
     11 C          -0.8336  -17.4451   19.4281 C.ar    1  UNL1       -0.0000
     12 C          -1.8176  -18.2307   18.6128 C.ar    1  UNL1       -0.0000
     13 C          -3.0909  -18.7173   19.2386 C.ar    1  UNL1       -0.0003
     14 C          -3.3803  -18.4184   20.6797 C.ar    1  UNL1       -0.0027
     15 C          -7.9617  -19.8030   19.3342 C.3     1  UNL1        0.0691
     16 C          -9.3286  -19.1905   19.2562 C.3     1  UNL1        0.0218
     17 C         -10.4094  -19.6467   20.1909 C.3     1  UNL1        0.0278
     18 C         -11.2045  -18.6389   20.9669 C.ar    1  UNL1       -0.0222
     19 C         -11.4372  -17.2697   20.4002 C.ar    1  UNL1       -0.0043
     20 C         -12.2323  -16.2620   21.1762 C.ar    1  UNL1       -0.0004
     21 C         -12.7948  -16.6234   22.5189 C.ar    1  UNL1        0.0038
     22 C         -12.5622  -17.9925   23.0857 C.ar    1  UNL1        0.0711
     23 C         -11.7671  -19.0004   22.3097 C.ar    1  UNL1       -0.0004
     24 C         -13.1247  -18.3540   24.4284 C.3     1  UNL1        0.4186
     25 F         -13.6872  -18.7154   25.7711 F       1  UNL1       -0.1659
     26 F         -11.7454  -18.6827   24.9177 F       1  UNL1       -0.1659
     27 F         -14.5040  -18.0252   23.9390 F       1  UNL1       -0.1659
@<TRIPOS>BOND
     1     4     3    1
     2     4     1    1
     3     1    15    1
     4    15    16    1
     5    16    17    1
     6    17    18    1
     7    18    19   ar
     8    19    20   ar
     9    20    21   ar
    10    21    22   ar
    11    22    24    1
    12    24    25    1
    13    24    26    1
    14    24    27    1
    15    22    23   ar
    16     4     5    1
    17     5     6   ar
    18     6     7   ar
    19     7     8   ar
    20     8     9   ar
    21     9    10   ar
    22    10    11   ar
    23    11    12   ar
    24    12    13   ar
    25    13    14   ar
    26    23    18   ar
    27    14     5   ar
    28    14     9   ar
    29     1     2    1
@<TRIPOS>MOLECULE
*****
 27 29 0 0 0
SMALL
GASTEIGER

@<TRIPOS>ATOM
      1 N          -9.0452  -19.4388   19.6139 N.3     1  UNL1       -0.2951
      2 H          -9.1934  -19.1692   18.6413 H       1  UNL1        0.1235
      3 C         -11.0970  -17.8506   19.7474 C.3     1  UNL1        0.0220
      4 C         -10.0626  -18.6965   20.4288 C.3     1  UNL1        0.0768
      5 C         -10.0455  -18.8002   21.9251 C.ar    1  UNL1       -0.0080
      6 C         -10.6870  -19.9744   22.6029 C.ar    1  UNL1       -0.0030
      7 C         -10.6699  -20.0781   24.0992 C.ar    1  UNL1       -0.0003
      8 C         -10.0112  -19.0076   24.9177 C.ar    1  UNL1       -0.0000
      9 C          -9.3696  -17.8332   24.2399 C.ar    1  UNL1       -0.0003
     10 C          -8.7109  -16.7627   25.0584 C.ar    1  UNL1       -0.0000
     11 C          -8.0693  -15.5884   24.3806 C.ar    1  UNL1       -0.0000
     12 C          -8.0865  -15.4847   22.8843 C.ar    1  UNL1       -0.0000
     13 C          -8.7452  -16.5553   22.0658 C.ar    1  UNL1       -0.0003
     14 C          -9.3867  -17.7295   22.7436 C.ar    1  UNL1       -0.0027
     15 C          -7.5828  -19.2587   19.8951 C.3     1  UNL1        0.0691
     16 C          -6.8077  -20.3539   20.5656 C.3     1  UNL1        0.0218
     17 C          -5.3134  -20.3984   20.4432 C.3     1  UNL1        0.0278
     18 C          -4.4729  -19.3680   21.1372 C.ar    1  UNL1       -0.0222
     19 C          -4.8976  -18.8278   22.4706 C.ar    1  UNL1       -0.0043
     20 C          -4.0572  -17.7973   23.1646 C.ar    1  UNL1       -0.0004
     21 C          -2.7920  -17.3069   22.5252 C.ar    1  UNL1        0.0038
     22 C          -2.3672  -17.8470   21.1919 C.ar    1  UNL1        0.0711
     23 C          -3.2077  -18.8776   20.4978 C.ar    1  UNL1       -0.0004
     24 C          -1.1020  -17.3566   20.5526 C.3     1  UNL1        0.4186
     25 F           0.1632  -16.8662   19.9132 F       1  UNL1       -0.1659
     26 F          -1.2300  -16.0592   21.2945 F       1  UNL1       -0.1659
     27 F          -0.9740  -18.6540   19.8107 F       1  UNL1       -0.1659
@<TRIPOS>BOND
     1     4     3    1
     2     4     1    1
     3     1    15    1
     4    15    16    1
     5    16    17    1
     6    17    18    1
     7    18    19   ar
     8    19    20   ar
     9    20    21   ar
    10    21    22   ar
    11    22    24    1
    12    24    25    1
    13    24    26    1
    14    24    27    1
    15    22    23   ar
    16     4     5    1
    17     5     6   ar
    18     6     7   ar
    19     7     8   ar
    20     8     9   ar
    21     9    10   ar
    22    10    11   ar
    23    11    12   ar
    24    12    13   ar
    25    13    14   ar
    26    23    18   ar
    27    14     5   ar
    28    14     9   ar
    29     1     2    1
@<TRIPOS>MOLECULE
*****
 27 29 0 0 0
SMALL
GASTEIGER

@<TRIPOS>ATOM
      1 N          -8.1867  -15.1712   23.5860 N.3     1  UNL1       -0.2951
      2 H          -8.1475  -14.6267   24.4477 H       1  UNL1        0.1235
      3 C          -8.9992  -17.1145   25.1071 C.3     1  UNL1        0.0220
      4 C          -9.1182  -16.3190   23.8411 C.3     1  UNL1        0.0768
      5 C         -10.1688  -16.6711   22.8300 C.ar    1  UNL1       -0.0080
      6 C         -11.5359  -16.0614   22.9255 C.ar    1  UNL1       -0.0030
      7 C         -12.5865  -16.4136   21.9145 C.ar    1  UNL1       -0.0003
      8 C         -12.2700  -17.3754   20.8079 C.ar    1  UNL1       -0.0000
      9 C         -10.9028  -17.9851   20.7123 C.ar    1  UNL1       -0.0003
     10 C         -10.5862  -18.9469   19.6056 C.ar    1  UNL1       -0.0000
     11 C          -9.2191  -19.5566   19.5101 C.ar    1  UNL1       -0.0000
     12 C          -8.1685  -19.2044   20.5211 C.ar    1  UNL1       -0.0000
     13 C          -8.4850  -18.2426   21.6278 C.ar    1  UNL1       -0.0003
     14 C          -9.8522  -17.6330   21.7233 C.ar    1  UNL1       -0.0027
     15 C          -6.7682  -15.4337   23.1747 C.3     1  UNL1        0.0691
     16 C          -5.6709  -15.3909   24.1965 C.3     1  UNL1        0.0218
     17 C          -4.7812  -16.5826   24.3918 C.3     1  UNL1        0.0278
     18 C          -4.1607  -17.2580   23.2048 C.ar    1  UNL1       -0.0222
     19 C          -2.8712  -16.7424   22.6377 C.ar    1  UNL1       -0.0043
     20 C          -2.2507  -17.4177   21.4508 C.ar    1  UNL1       -0.0004
     21 C          -2.9196  -18.6086   20.8309 C.ar    1  UNL1        0.0038
     22 C          -4.2090  -19.1242   21.3979 C.ar    1  UNL1        0.0711
     23 C          -4.8296  -18.4489   22.5849 C.ar    1  UNL1       -0.0004
     24 C          -4.8779  -20.3151   20.7780 C.3     1  UNL1        0.4186
     25 F          -5.5469  -21.5060   20.1581 F       1  UNL1       -0.1659
     26 F          -5.7186  -20.4836   22.0089 F       1  UNL1       -0.1659
     27 F          -4.0373  -20.1466   19.5472 F       1  UNL1       -0.1659
@<TRIPOS>BOND
     1     4     3    1
     2     4     1    1
     3     1    15    1
     4    15    16    1
     5    16    17    1
     6    17    18    1
     7    18    19   ar
     8    19    20   ar
     9    20    21   ar
    10    21    22   ar
    11    22    24    1
    12    24    25    1
    13    24    26    1
    14    24    27    1
    15    22    23   ar
    16     4     5    1
    17     5     6   ar
    18     6     7   ar
    19     7     8   ar
    20     8     9   ar
    21     9    10   ar
    22    10    11   ar
    23    11    12   ar
    24    12    13   ar
    25    13    14   ar
    26    23    18   ar
    27    14     5   ar
    28    14     9   ar
    29     1     2    1
@<TRIPOS>MOLECULE
*****
 27 29 0 0 0
SMALL
GASTEIGER

@<TRIPOS>ATOM
      1 N          -8.0146  -18.7845   19.6541 N.3     1  UNL1       -0.2951
      2 H          -8.0457  -17.8143   19.3408 H       1  UNL1        0.1235
      3 C          -9.8395  -20.4908   18.9412 C.3     1  UNL1        0.0220
      4 C          -9.4336  -19.2677   19.7088 C.3     1  UNL1        0.0768
      5 C         -10.4467  -18.5278   20.5312 C.ar    1  UNL1       -0.0080
      6 C         -11.2835  -17.4538   19.9019 C.ar    1  UNL1       -0.0030
      7 C         -12.2966  -16.7139   20.7243 C.ar    1  UNL1       -0.0003
      8 C         -12.4728  -17.0480   22.1759 C.ar    1  UNL1       -0.0000
      9 C         -11.6358  -18.1221   22.8052 C.ar    1  UNL1       -0.0003
     10 C         -11.8120  -18.4563   24.2569 C.ar    1  UNL1       -0.0000
     11 C         -10.9751  -19.5303   24.8861 C.ar    1  UNL1       -0.0000
     12 C          -9.9621  -20.2702   24.0638 C.ar    1  UNL1       -0.0000
     13 C          -9.7859  -19.9361   22.6122 C.ar    1  UNL1       -0.0003
     14 C         -10.6228  -18.8620   21.9829 C.ar    1  UNL1       -0.0027
     15 C          -7.1643  -18.8134   20.8896 C.3     1  UNL1        0.0691
     16 C          -6.4233  -20.0636   21.2610 C.3     1  UNL1        0.0218
     17 C          -5.2336  -19.9878   22.1713 C.3     1  UNL1        0.0278
     18 C          -4.1342  -19.0072   21.8887 C.ar    1  UNL1       -0.0222
     19 C          -3.5711  -18.1711   22.9996 C.ar    1  UNL1       -0.0043
     20 C          -2.4717  -17.1906   22.7170 C.ar    1  UNL1       -0.0004
     21 C          -1.9355  -17.0460   21.3236 C.ar    1  UNL1        0.0038
     22 C          -2.4985  -17.8821   20.2128 C.ar    1  UNL1        0.0711
     23 C          -3.5979  -18.8627   20.4954 C.ar    1  UNL1       -0.0004
     24 C          -1.9623  -17.7375   18.8194 C.3     1  UNL1        0.4186
     25 F          -1.4260  -17.5930   17.4260 F       1  UNL1       -0.1659
     26 F          -0.6575  -18.3320   19.2599 F       1  UNL1       -0.1659
     27 F          -3.2671  -17.1431   18.3789 F       1  UNL1       -0.1659
@<TRIPOS>BOND
     1     4     3    1
     2     4     1    1
     3     1    15    1
     4    15    16    1
     5    16    17    1
     6    17    18    1
     7    18    19   ar
     8    19    20   ar
     9    20    21   ar
    10    21    22   ar
    11    22    24    1
    12    24    25    1
    13    24    26    1
    14    24    27    1
    15    22    23   ar
    16     4     5    1
    17     5     6   ar
    18     6     7   ar
    19     7     8   ar
    20     8     9   ar
    21     9    10   ar
    22    10    11   ar
    23    11    12   ar
    24    12    13   ar
    25    13    14   ar
    26    23    18   ar
    27    14     5   ar
    28    14     9   ar
    29     1     2    1
