@<TRIPOS>MOLECULE
*****
 31 34 0 0 0
SMALL
GASTEIGER

@<TRIPOS>ATOM
      1 C           7.7513   -5.6424   26.9904 C.ar    1  UNL1        0.1431
      2 C           7.1115   -4.7883   25.9363 C.ar    1  UNL1        0.0955
      3 C           6.3437   -3.5611   26.3295 C.ar    1  UNL1        0.0955
      4 C           6.2157   -3.1880   27.7767 C.ar    1  UNL1        0.1431
      5 C           6.8555   -4.0422   28.8308 C.ar    1  UNL1        0.0371
      6 C           6.7276   -3.6691   30.2780 C.ar    1  UNL1        0.0031
      7 C           7.3674   -4.5232   31.3320 C.ar    1  UNL1        0.0001
      8 C           8.1351   -5.7504   30.9389 C.ar    1  UNL1        0.0001
      9 C           8.2631   -6.1235   29.4917 C.ar    1  UNL1        0.0031
     10 C           7.6233   -5.2693   28.4377 C.ar    1  UNL1        0.0371
     11 C           5.8254   -2.9177   25.0775 C.2     1  UNL1        0.2619
     12 O           5.0038   -1.6648   25.0051 O.2     1  UNL1       -0.2690
     13 N           6.2728   -3.7473   23.9106 N.am    1  UNL1       -0.2009
     14 C           7.0676   -4.9033   24.4414 C.2     1  UNL1        0.2619
     15 O           7.7065   -5.9846   23.6213 O.2     1  UNL1       -0.2690
     16 C           5.9773   -3.4695   22.4664 C.ar    1  UNL1        0.0612
     17 C           7.0489   -2.9163   21.5745 C.ar    1  UNL1        0.0150
     18 C           6.7534   -2.6386   20.1304 C.ar    1  UNL1       -0.0026
     19 C           5.3863   -2.9140   19.5782 C.ar    1  UNL1       -0.0165
     20 C           4.3146   -3.4672   20.4701 C.ar    1  UNL1       -0.0026
     21 C           4.6101   -3.7449   21.9142 C.ar    1  UNL1        0.0150
     22 C           5.0907   -2.6363   18.1340 C.3     1  UNL1        0.0679
     23 C           4.4002   -1.3640   17.7410 C.2     1  UNL1        0.0547
     24 O           4.0976   -0.3235   18.7783 O.co2   1  UNL1       -0.5488
     25 O           4.0121   -1.1322   16.3107 O.co2   1  UNL1       -0.5488
     26 O           8.5190   -6.8695   26.5973 O.3     1  UNL1       -0.4753
     27 C           8.3051   -9.2764   27.5520 C.3     1  UNL1        0.0512
     28 C           7.8452   -8.2097   26.6029 C.3     1  UNL1        0.2055
     29 O           5.4479   -1.9609   28.1698 O.3     1  UNL1       -0.4753
     30 C           6.1261   -0.6230   28.1799 C.3     1  UNL1        0.2055
     31 C           7.6119   -0.5339   27.9938 C.3     1  UNL1        0.0512
@<TRIPOS>UNITY_ATOM_ATTR
24 1
charge -1
@<TRIPOS>BOND
     1    27    28    1
     2    28    26    1
     3    26     1    1
     4     1     2   ar
     5     2     3   ar
     6     3     4   ar
     7     4    29    1
     8    29    30    1
     9    30    31    1
    10     4     5   ar
    11     5     6   ar
    12     6     7   ar
    13     7     8   ar
    14     8     9   ar
    15     9    10   ar
    16     3    11    1
    17    11    12    2
    18    11    13   am
    19    13    16    1
    20    16    17   ar
    21    17    18   ar
    22    18    19   ar
    23    19    22    1
    24    22    23    1
    25    23    24   ar
    26    23    25   ar
    27    19    20   ar
    28    20    21   ar
    29    13    14   am
    30    14    15    2
    31    10     1   ar
    32    21    16   ar
    33    14     2    1
    34    10     5   ar
@<TRIPOS>MOLECULE
*****
 31 34 0 0 0
SMALL
GASTEIGER

@<TRIPOS>ATOM
      1 C           3.9430   -1.5020   22.8003 C.ar    1  UNL1        0.1431
      2 C           2.7787   -0.5614   22.8995 C.ar    1  UNL1        0.0955
      3 C           1.9556   -0.2560   21.6834 C.ar    1  UNL1        0.0955
      4 C           2.2966   -0.8911   20.3680 C.ar    1  UNL1        0.1431
      5 C           3.4609   -1.8317   20.2687 C.ar    1  UNL1        0.0371
      6 C           3.8020   -2.4668   18.9533 C.ar    1  UNL1        0.0031
      7 C           4.9662   -3.4073   18.8541 C.ar    1  UNL1        0.0001
      8 C           5.7894   -3.7128   20.0703 C.ar    1  UNL1        0.0001
      9 C           5.4483   -3.0777   21.3857 C.ar    1  UNL1        0.0031
     10 C           4.2841   -2.1371   21.4849 C.ar    1  UNL1        0.0371
     11 C           0.8746    0.7036   22.0843 C.2     1  UNL1        0.2619
     12 O          -0.1768    1.2752   21.1800 O.2     1  UNL1       -0.2690
     13 N           1.0297    0.9912   23.5483 N.am    1  UNL1       -0.2009
     14 C           2.2065    0.2094   24.0521 C.2     1  UNL1        0.2619
     15 O           2.7208    0.2000   25.4612 O.2     1  UNL1       -0.2690
     16 C           0.1606    1.9010   24.3650 C.ar    1  UNL1        0.0612
     17 C          -0.3076    1.4707   25.7235 C.ar    1  UNL1        0.0150
     18 C          -1.1767    2.3804   26.5403 C.ar    1  UNL1       -0.0026
     19 C          -1.5776    3.7204   25.9985 C.ar    1  UNL1       -0.0165
     20 C          -1.1094    4.1507   24.6400 C.ar    1  UNL1       -0.0026
     21 C          -0.2403    3.2410   23.8233 C.ar    1  UNL1        0.0150
     22 C          -2.4467    4.6301   26.8152 C.3     1  UNL1        0.0679
     23 C          -3.9368    4.4588   26.7979 C.2     1  UNL1        0.0547
     24 O          -4.7930    5.2424   27.7482 O.co2   1  UNL1       -0.5488
     25 O          -4.5707    3.5039   25.8303 O.co2   1  UNL1       -0.5488
     26 O           4.7661   -1.8074   24.0165 O.3     1  UNL1       -0.4753
     27 C           6.4314    0.1017   23.4399 C.3     1  UNL1        0.0512
     28 C           5.8715   -0.8799   24.4264 C.3     1  UNL1        0.2055
     29 O           1.4735   -0.5856   19.1518 O.3     1  UNL1       -0.4753
     30 C           1.7434    0.6570   18.3562 C.3     1  UNL1        0.2055
     31 C           3.1267    1.2355   18.3149 C.3     1  UNL1        0.0512
@<TRIPOS>UNITY_ATOM_ATTR
24 1
charge -1
@<TRIPOS>BOND
     1    27    28    1
     2    28    26    1
     3    26     1    1
     4     1     2   ar
     5     2     3   ar
     6     3     4   ar
     7     4    29    1
     8    29    30    1
     9    30    31    1
    10     4     5   ar
    11     5     6   ar
    12     6     7   ar
    13     7     8   ar
    14     8     9   ar
    15     9    10   ar
    16     3    11    1
    17    11    12    2
    18    11    13   am
    19    13    16    1
    20    16    17   ar
    21    17    18   ar
    22    18    19   ar
    23    19    22    1
    24    22    23    1
    25    23    24   ar
    26    23    25   ar
    27    19    20   ar
    28    20    21   ar
    29    13    14   am
    30    14    15    2
    31    10     1   ar
    32    21    16   ar
    33    14     2    1
    34    10     5   ar
@<TRIPOS>MOLECULE
*****
 31 34 0 0 0
SMALL
GASTEIGER

@<TRIPOS>ATOM
      1 C           6.3557   -3.2441   27.7656 C.ar    1  UNL1        0.1431
      2 C           6.4471   -3.6167   26.3155 C.ar    1  UNL1        0.0955
      3 C           7.2184   -4.8347   25.9013 C.ar    1  UNL1        0.0955
      4 C           7.8984   -5.6800   26.9372 C.ar    1  UNL1        0.1431
      5 C           7.8071   -5.3073   28.3873 C.ar    1  UNL1        0.0371
      6 C           8.4871   -6.1527   29.4232 C.ar    1  UNL1        0.0031
      7 C           8.3957   -5.7800   30.8732 C.ar    1  UNL1        0.0001
      8 C           7.6243   -4.5620   31.2874 C.ar    1  UNL1        0.0001
      9 C           6.9444   -3.7167   30.2516 C.ar    1  UNL1        0.0031
     10 C           7.0357   -4.0894   28.8015 C.ar    1  UNL1        0.0371
     11 C           7.1335   -4.9515   24.4083 C.2     1  UNL1        0.2619
     12 O           7.7621   -6.0255   23.5708 O.2     1  UNL1       -0.2690
     13 N           6.3097   -3.8058   23.8997 N.am    1  UNL1       -0.2009
     14 C           5.8855   -2.9808   25.0785 C.2     1  UNL1        0.2619
     15 O           5.0469   -1.7381   25.0289 O.2     1  UNL1       -0.2690
     16 C           5.9699   -3.5329   22.4644 C.ar    1  UNL1        0.0612
     17 C           4.5853   -3.8063   21.9565 C.ar    1  UNL1        0.0150
     18 C           4.2454   -3.5334   20.5212 C.ar    1  UNL1       -0.0026
     19 C           5.2902   -2.9871   19.5939 C.ar    1  UNL1       -0.0165
     20 C           6.6748   -2.7137   20.1018 C.ar    1  UNL1       -0.0026
     21 C           7.0146   -2.9866   21.5371 C.ar    1  UNL1        0.0150
     22 C           4.9503   -2.7142   18.1586 C.3     1  UNL1        0.0679
     23 C           4.2395   -1.4476   17.7839 C.2     1  UNL1        0.0547
     24 O           4.0102   -1.1155   16.3392 O.co2   1  UNL1       -0.5488
     25 O           3.7580   -0.5131   18.8539 O.co2   1  UNL1       -0.5488
     26 O           5.5844   -2.0261   28.1798 O.3     1  UNL1       -0.4753
     27 C           7.6674   -0.5412   27.7255 C.3     1  UNL1        0.0512
     28 C           6.2652   -0.6907   28.2370 C.3     1  UNL1        0.2055
     29 O           8.6697   -6.8980   26.5229 O.3     1  UNL1       -0.4753
     30 C           7.9869   -8.2319   26.4576 C.3     1  UNL1        0.2055
     31 C           8.2334   -9.2539   27.5274 C.3     1  UNL1        0.0512
@<TRIPOS>UNITY_ATOM_ATTR
24 1
charge -1
@<TRIPOS>BOND
     1    27    28    1
     2    28    26    1
     3    26     1    1
     4     1     2   ar
     5     2     3   ar
     6     3     4   ar
     7     4    29    1
     8    29    30    1
     9    30    31    1
    10     4     5   ar
    11     5     6   ar
    12     6     7   ar
    13     7     8   ar
    14     8     9   ar
    15     9    10   ar
    16     3    11    1
    17    11    12    2
    18    11    13   am
    19    13    16    1
    20    16    17   ar
    21    17    18   ar
    22    18    19   ar
    23    19    22    1
    24    22    23    1
    25    23    24   ar
    26    23    25   ar
    27    19    20   ar
    28    20    21   ar
    29    13    14   am
    30    14    15    2
    31    10     1   ar
    32    21    16   ar
    33    14     2    1
    34    10     5   ar
@<TRIPOS>MOLECULE
*****
 31 34 0 0 0
SMALL
GASTEIGER

@<TRIPOS>ATOM
      1 C           2.2762   -0.8597   20.3680 C.ar    1  UNL1        0.1431
      2 C           1.9485   -0.2304   21.6895 C.ar    1  UNL1        0.0955
      3 C           2.7873   -0.5369   22.8947 C.ar    1  UNL1        0.0955
      4 C           3.9538   -1.4726   22.7784 C.ar    1  UNL1        0.1431
      5 C           4.2816   -2.1019   21.4568 C.ar    1  UNL1        0.0371
      6 C           5.4481   -3.0376   21.3404 C.ar    1  UNL1        0.0031
      7 C           5.7759   -3.6669   20.0189 C.ar    1  UNL1        0.0001
      8 C           4.9371   -3.3605   18.8137 C.ar    1  UNL1        0.0001
      9 C           3.7705   -2.4248   18.9300 C.ar    1  UNL1        0.0031
     10 C           3.4428   -1.7955   20.2516 C.ar    1  UNL1        0.0371
     11 C           2.2259    0.2278   24.0567 C.2     1  UNL1        0.2619
     12 O           2.7571    0.2156   25.4594 O.2     1  UNL1       -0.2690
     13 N           1.0402    1.0068   23.5697 N.am    1  UNL1       -0.2009
     14 C           0.8688    0.7236   22.1067 C.2     1  UNL1        0.2619
     15 O          -0.1956    1.2942   21.2170 O.2     1  UNL1       -0.2690
     16 C           0.1775    1.9104   24.3999 C.ar    1  UNL1        0.0612
     17 C          -0.3095    1.4558   25.7438 C.ar    1  UNL1        0.0150
     18 C          -1.1722    2.3593   26.5739 C.ar    1  UNL1       -0.0026
     19 C          -1.5480    3.7176   26.0602 C.ar    1  UNL1       -0.0165
     20 C          -1.0610    4.1722   24.7164 C.ar    1  UNL1       -0.0026
     21 C          -0.1983    3.2687   23.8862 C.ar    1  UNL1        0.0150
     22 C          -2.4107    4.6212   26.8904 C.3     1  UNL1        0.0679
     23 C          -3.9045    4.5038   26.8210 C.2     1  UNL1        0.0547
     24 O          -4.5362    3.5048   25.8974 O.co2   1  UNL1       -0.5488
     25 O          -4.7666    5.3854   27.6751 O.co2   1  UNL1       -0.5488
     26 O           1.4374   -0.5533   19.1628 O.3     1  UNL1       -0.4753
     27 C           2.9570    1.4837   18.6228 C.3     1  UNL1        0.0512
     28 C           1.7852    0.6110   18.2833 C.3     1  UNL1        0.2055
     29 O           4.7926   -1.7790   23.9836 O.3     1  UNL1       -0.4753
     30 C           5.9560   -0.8983   24.3313 C.3     1  UNL1        0.2055
     31 C           6.2882    0.2815   23.4666 C.3     1  UNL1        0.0512
@<TRIPOS>UNITY_ATOM_ATTR
24 1
charge -1
@<TRIPOS>BOND
     1    27    28    1
     2    28    26    1
     3    26     1    1
     4     1     2   ar
     5     2     3   ar
     6     3     4   ar
     7     4    29    1
     8    29    30    1
     9    30    31    1
    10     4     5   ar
    11     5     6   ar
    12     6     7   ar
    13     7     8   ar
    14     8     9   ar
    15     9    10   ar
    16     3    11    1
    17    11    12    2
    18    11    13   am
    19    13    16    1
    20    16    17   ar
    21    17    18   ar
    22    18    19   ar
    23    19    22    1
    24    22    23    1
    25    23    24   ar
    26    23    25   ar
    27    19    20   ar
    28    20    21   ar
    29    13    14   am
    30    14    15    2
    31    10     1   ar
    32    21    16   ar
    33    14     2    1
    34    10     5   ar
@<TRIPOS>MOLECULE
*****
 31 34 0 0 0
SMALL
GASTEIGER

@<TRIPOS>ATOM
      1 C           7.4875   -5.7728   28.7412 C.ar    1  UNL1        0.1431
      2 C           6.9254   -4.5234   29.3519 C.ar    1  UNL1        0.0955
      3 C           6.4808   -3.3929   28.4720 C.ar    1  UNL1        0.0955
      4 C           6.5982   -3.5118   26.9814 C.ar    1  UNL1        0.1431
      5 C           7.1603   -4.7613   26.3706 C.ar    1  UNL1        0.0371
      6 C           7.2777   -4.8801   24.8799 C.ar    1  UNL1        0.0031
      7 C           7.8397   -6.1296   24.2692 C.ar    1  UNL1        0.0001
      8 C           8.2844   -7.2601   25.1491 C.ar    1  UNL1        0.0001
      9 C           8.1670   -7.1412   26.6397 C.ar    1  UNL1        0.0031
     10 C           7.6049   -5.8918   27.2505 C.ar    1  UNL1        0.0371
     11 C           5.9703   -2.2922   29.3540 C.2     1  UNL1        0.2619
     12 O           5.4262   -0.9729   28.8920 O.2     1  UNL1       -0.2690
     13 N           6.0994   -2.7424   30.7790 N.am    1  UNL1       -0.2009
     14 C           6.6897   -4.1214   30.7777 C.2     1  UNL1        0.2619
     15 O           6.9914   -4.9525   31.9894 O.2     1  UNL1       -0.2690
     16 C           5.7071   -1.9524   31.9922 C.ar    1  UNL1        0.0612
     17 C           6.3976   -0.6566   32.2990 C.ar    1  UNL1        0.0150
     18 C           6.0053    0.1334   33.5123 C.ar    1  UNL1       -0.0026
     19 C           4.9225   -0.3724   34.4187 C.ar    1  UNL1       -0.0165
     20 C           4.2321   -1.6682   34.1120 C.ar    1  UNL1       -0.0026
     21 C           4.6244   -2.4582   32.8987 C.ar    1  UNL1        0.0150
     22 C           4.5302    0.4176   35.6320 C.3     1  UNL1        0.0679
     23 C           5.4242    0.4360   36.8363 C.2     1  UNL1        0.0547
     24 O           5.2429    1.4892   37.8890 O.co2   1  UNL1       -0.5488
     25 O           6.4994   -0.5988   36.9881 O.co2   1  UNL1       -0.5488
     26 O           7.9321   -6.9033   29.6211 O.3     1  UNL1       -0.4753
     27 C           9.5294   -7.3171   31.6280 C.3     1  UNL1        0.0512
     28 C           9.3149   -6.9019   30.2026 C.3     1  UNL1        0.2055
     29 O           6.1535   -2.3813   26.1015 O.3     1  UNL1       -0.4753
     30 C           7.1361   -1.3309   25.6759 C.3     1  UNL1        0.2055
     31 C           8.3519   -1.0588   26.5113 C.3     1  UNL1        0.0512
@<TRIPOS>UNITY_ATOM_ATTR
24 1
charge -1
@<TRIPOS>BOND
     1    27    28    1
     2    28    26    1
     3    26     1    1
     4     1     2   ar
     5     2     3   ar
     6     3     4   ar
     7     4    29    1
     8    29    30    1
     9    30    31    1
    10     4     5   ar
    11     5     6   ar
    12     6     7   ar
    13     7     8   ar
    14     8     9   ar
    15     9    10   ar
    16     3    11    1
    17    11    12    2
    18    11    13   am
    19    13    16    1
    20    16    17   ar
    21    17    18   ar
    22    18    19   ar
    23    19    22    1
    24    22    23    1
    25    23    24   ar
    26    23    25   ar
    27    19    20   ar
    28    20    21   ar
    29    13    14   am
    30    14    15    2
    31    10     1   ar
    32    21    16   ar
    33    14     2    1
    34    10     5   ar
@<TRIPOS>MOLECULE
*****
 31 34 0 0 0
SMALL
GASTEIGER

@<TRIPOS>ATOM
      1 C          -1.2125    3.0115   24.9363 C.ar    1  UNL1        0.1431
      2 C          -0.7560    2.8114   23.5216 C.ar    1  UNL1        0.0955
      3 C          -1.6519    3.1985   22.3825 C.ar    1  UNL1        0.0955
      4 C          -3.0043    3.7857   22.6581 C.ar    1  UNL1        0.1431
      5 C          -3.4609    3.9859   24.0729 C.ar    1  UNL1        0.0371
      6 C          -4.8133    4.5731   24.3486 C.ar    1  UNL1        0.0031
      7 C          -5.2698    4.7733   25.7633 C.ar    1  UNL1        0.0001
      8 C          -4.3739    4.3862   26.9024 C.ar    1  UNL1        0.0001
      9 C          -3.0215    3.7990   26.6267 C.ar    1  UNL1        0.0031
     10 C          -2.5650    3.5988   25.2120 C.ar    1  UNL1        0.0371
     11 C          -0.9354    2.8857   21.1023 C.2     1  UNL1        0.2619
     12 O          -1.4647    3.1134   19.7174 O.2     1  UNL1       -0.2690
     13 N           0.4033    2.3053   21.4502 N.am    1  UNL1       -0.2009
     14 C           0.5142    2.2594   22.9453 C.2     1  UNL1        0.2619
     15 O           1.6890    1.7508   23.7271 O.2     1  UNL1       -0.2690
     16 C           1.4477    1.8507   20.4742 C.ar    1  UNL1        0.0612
     17 C           2.8170    2.4626   20.5017 C.ar    1  UNL1        0.0150
     18 C           3.8614    2.0080   19.5258 C.ar    1  UNL1       -0.0026
     19 C           3.5366    0.9415   18.5223 C.ar    1  UNL1       -0.0165
     20 C           2.1674    0.3296   18.4948 C.ar    1  UNL1       -0.0026
     21 C           1.1230    0.7842   19.4707 C.ar    1  UNL1        0.0150
     22 C           4.5810    0.4869   17.5463 C.3     1  UNL1        0.0679
     23 C           5.4469   -0.6943   17.8704 C.2     1  UNL1        0.0547
     24 O           6.7079   -0.9353   17.0945 O.co2   1  UNL1       -0.5488
     25 O           5.0518   -1.6345   18.9704 O.co2   1  UNL1       -0.5488
     26 O          -0.3166    2.6244   26.0754 O.3     1  UNL1       -0.4753
     27 C          -0.8786    0.9205   27.9544 C.3     1  UNL1        0.0512
     28 C          -0.3258    1.2161   26.5917 C.3     1  UNL1        0.2055
     29 O          -3.9002    4.1728   21.5191 O.3     1  UNL1       -0.4753
     30 C          -4.7898    3.1466   20.8823 C.3     1  UNL1        0.2055
     31 C          -5.4991    3.4616   19.5987 C.3     1  UNL1        0.0512
@<TRIPOS>UNITY_ATOM_ATTR
24 1
charge -1
@<TRIPOS>BOND
     1    27    28    1
     2    28    26    1
     3    26     1    1
     4     1     2   ar
     5     2     3   ar
     6     3     4   ar
     7     4    29    1
     8    29    30    1
     9    30    31    1
    10     4     5   ar
    11     5     6   ar
    12     6     7   ar
    13     7     8   ar
    14     8     9   ar
    15     9    10   ar
    16     3    11    1
    17    11    12    2
    18    11    13   am
    19    13    16    1
    20    16    17   ar
    21    17    18   ar
    22    18    19   ar
    23    19    22    1
    24    22    23    1
    25    23    24   ar
    26    23    25   ar
    27    19    20   ar
    28    20    21   ar
    29    13    14   am
    30    14    15    2
    31    10     1   ar
    32    21    16   ar
    33    14     2    1
    34    10     5   ar
@<TRIPOS>MOLECULE
*****
 31 34 0 0 0
SMALL
GASTEIGER

@<TRIPOS>ATOM
      1 C           4.3058   -1.8195   20.6979 C.ar    1  UNL1        0.1431
      2 C           4.6987   -2.0820   22.1215 C.ar    1  UNL1        0.0955
      3 C           3.9264   -1.4501   23.2414 C.ar    1  UNL1        0.0955
      4 C           2.7612   -0.5556   22.9377 C.ar    1  UNL1        0.1431
      5 C           2.3682   -0.2931   21.5141 C.ar    1  UNL1        0.0371
      6 C           1.2030    0.6013   21.2104 C.ar    1  UNL1        0.0031
      7 C           0.8101    0.8638   19.7868 C.ar    1  UNL1        0.0001
      8 C           1.5824    0.2319   18.6669 C.ar    1  UNL1        0.0001
      9 C           2.7476   -0.6625   18.9706 C.ar    1  UNL1        0.0031
     10 C           3.1405   -0.9250   20.3941 C.ar    1  UNL1        0.0371
     11 C           4.5433   -1.8901   24.5359 C.2     1  UNL1        0.2619
     12 O           4.0868   -1.4955   25.9092 O.2     1  UNL1       -0.2690
     13 N           5.6969   -2.7939   24.2161 N.am    1  UNL1       -0.2009
     14 C           5.7929   -2.9126   22.7239 C.2     1  UNL1        0.2619
     15 O           6.8054   -3.7200   21.9669 O.2     1  UNL1       -0.2690
     16 C           6.5965   -3.4619   25.2134 C.ar    1  UNL1        0.0612
     17 C           6.7595   -4.9529   25.1957 C.ar    1  UNL1        0.0150
     18 C           7.6591   -5.6209   26.1930 C.ar    1  UNL1       -0.0026
     19 C           8.3957   -4.7979   27.2079 C.ar    1  UNL1       -0.0165
     20 C           8.2327   -3.3069   27.2256 C.ar    1  UNL1       -0.0026
     21 C           7.3331   -2.6389   26.2283 C.ar    1  UNL1        0.0150
     22 C           9.2953   -5.4658   28.2052 C.3     1  UNL1        0.0679
     23 C           8.7617   -6.5598   29.0818 C.2     1  UNL1        0.0547
     24 O           7.8283   -6.2300   30.2088 O.co2   1  UNL1       -0.5488
     25 O           9.1616   -7.9837   28.8314 O.co2   1  UNL1       -0.5488
     26 O           5.0781   -2.4514   19.5780 O.3     1  UNL1       -0.4753
     27 C           3.3759   -4.3738   19.1815 C.3     1  UNL1        0.0512
     28 C           4.7871   -3.8655   19.1707 C.3     1  UNL1        0.2055
     29 O           1.9889    0.0763   24.0577 O.3     1  UNL1       -0.4753
     30 C           2.4580    1.3692   24.6561 C.3     1  UNL1        0.2055
     31 C           2.3118    1.6105   26.1294 C.3     1  UNL1        0.0512
@<TRIPOS>UNITY_ATOM_ATTR
24 1
charge -1
@<TRIPOS>BOND
     1    27    28    1
     2    28    26    1
     3    26     1    1
     4     1     2   ar
     5     2     3   ar
     6     3     4   ar
     7     4    29    1
     8    29    30    1
     9    30    31    1
    10     4     5   ar
    11     5     6   ar
    12     6     7   ar
    13     7     8   ar
    14     8     9   ar
    15     9    10   ar
    16     3    11    1
    17    11    12    2
    18    11    13   am
    19    13    16    1
    20    16    17   ar
    21    17    18   ar
    22    18    19   ar
    23    19    22    1
    24    22    23    1
    25    23    24   ar
    26    23    25   ar
    27    19    20   ar
    28    20    21   ar
    29    13    14   am
    30    14    15    2
    31    10     1   ar
    32    21    16   ar
    33    14     2    1
    34    10     5   ar
@<TRIPOS>MOLECULE
*****
 31 34 0 0 0
SMALL
GASTEIGER

@<TRIPOS>ATOM
      1 C           7.3247   -4.2286   27.4996 C.ar    1  UNL1        0.1431
      2 C           6.6537   -3.5619   26.3355 C.ar    1  UNL1        0.0955
      3 C           5.7454   -2.3901   26.5637 C.ar    1  UNL1        0.0955
      4 C           5.5081   -1.8851   27.9560 C.ar    1  UNL1        0.1431
      5 C           6.1790   -2.5518   29.1202 C.ar    1  UNL1        0.0371
      6 C           5.9417   -2.0468   30.5125 C.ar    1  UNL1        0.0031
      7 C           6.6126   -2.7135   31.6767 C.ar    1  UNL1        0.0001
      8 C           7.5210   -3.8853   31.4485 C.ar    1  UNL1        0.0001
      9 C           7.7583   -4.3903   30.0562 C.ar    1  UNL1        0.0031
     10 C           7.0873   -3.7236   28.8920 C.ar    1  UNL1        0.0371
     11 C           5.2266   -1.9393   25.2304 C.2     1  UNL1        0.2619
     12 O           4.2854   -0.7961   24.9913 O.2     1  UNL1       -0.2690
     13 N           5.8143   -2.8323   24.1782 N.am    1  UNL1       -0.2009
     14 C           6.6963   -3.8351   24.8612 C.2     1  UNL1        0.2619
     15 O           7.4828   -4.9207   24.1881 O.2     1  UNL1       -0.2690
     16 C           5.5640   -2.7390   22.7022 C.ar    1  UNL1        0.0612
     17 C           6.2774   -1.7035   21.8845 C.ar    1  UNL1        0.0150
     18 C           6.0271   -1.6101   20.4085 C.ar    1  UNL1       -0.0026
     19 C           5.0632   -2.5522   19.7502 C.ar    1  UNL1       -0.0165
     20 C           4.3498   -3.5877   20.5679 C.ar    1  UNL1       -0.0026
     21 C           4.6001   -3.6811   22.0439 C.ar    1  UNL1        0.0150
     22 C           4.8129   -2.4589   18.2741 C.3     1  UNL1        0.0679
     23 C           3.9499   -1.3604   17.7278 C.2     1  UNL1        0.0547
     24 O           3.0662   -0.5724   18.6488 O.co2   1  UNL1       -0.5488
     25 O           3.9706   -1.0498   16.2605 O.co2   1  UNL1       -0.5488
     26 O           8.2330   -5.4003   27.2714 O.3     1  UNL1       -0.4753
     27 C           7.2787   -7.5812   26.2307 C.3     1  UNL1        0.0512
     28 C           7.7107   -6.7970   27.4342 C.3     1  UNL1        0.2055
     29 O           4.5998   -0.7134   28.1841 O.3     1  UNL1       -0.4753
     30 C           3.1156   -0.9181   28.2577 C.3     1  UNL1        0.2055
     31 C           2.2459    0.1223   28.8989 C.3     1  UNL1        0.0512
@<TRIPOS>UNITY_ATOM_ATTR
24 1
charge -1
@<TRIPOS>BOND
     1    27    28    1
     2    28    26    1
     3    26     1    1
     4     1     2   ar
     5     2     3   ar
     6     3     4   ar
     7     4    29    1
     8    29    30    1
     9    30    31    1
    10     4     5   ar
    11     5     6   ar
    12     6     7   ar
    13     7     8   ar
    14     8     9   ar
    15     9    10   ar
    16     3    11    1
    17    11    12    2
    18    11    13   am
    19    13    16    1
    20    16    17   ar
    21    17    18   ar
    22    18    19   ar
    23    19    22    1
    24    22    23    1
    25    23    24   ar
    26    23    25   ar
    27    19    20   ar
    28    20    21   ar
    29    13    14   am
    30    14    15    2
    31    10     1   ar
    32    21    16   ar
    33    14     2    1
    34    10     5   ar
@<TRIPOS>MOLECULE
*****
 31 34 0 0 0
SMALL
GASTEIGER

@<TRIPOS>ATOM
      1 C           3.2114    2.6431   34.0872 C.ar    1  UNL1        0.1431
      2 C           2.6434    2.1493   32.7897 C.ar    1  UNL1        0.0955
      3 C           2.8769    0.7313   32.3601 C.ar    1  UNL1        0.0955
      4 C           3.6783   -0.1930   33.2280 C.ar    1  UNL1        0.1431
      5 C           4.2464    0.3007   34.5256 C.ar    1  UNL1        0.0371
      6 C           5.0479   -0.6236   35.3934 C.ar    1  UNL1        0.0031
      7 C           5.6159   -0.1298   36.6909 C.ar    1  UNL1        0.0001
      8 C           5.3824    1.2883   37.1205 C.ar    1  UNL1        0.0001
      9 C           4.5809    2.2126   36.2526 C.ar    1  UNL1        0.0031
     10 C           4.0129    1.7188   34.9552 C.ar    1  UNL1        0.0371
     11 C           2.1970    0.5295   31.0383 C.2     1  UNL1        0.2619
     12 O           2.1747   -0.7424   30.2434 O.2     1  UNL1       -0.2690
     13 N           1.5434    1.8228   30.6510 N.am    1  UNL1       -0.2009
     14 C           1.8193    2.8239   31.7334 C.2     1  UNL1        0.2619
     15 O           1.3529    4.2494   31.7557 O.2     1  UNL1       -0.2690
     16 C           0.7527    2.0714   29.4008 C.ar    1  UNL1        0.0612
     17 C           1.0715    3.2536   28.5344 C.ar    1  UNL1        0.0150
     18 C           0.2808    3.5022   27.2842 C.ar    1  UNL1       -0.0026
     19 C          -0.8287    2.5685   26.9004 C.ar    1  UNL1       -0.0165
     20 C          -1.1474    1.3863   27.7668 C.ar    1  UNL1       -0.0026
     21 C          -0.3568    1.1377   29.0170 C.ar    1  UNL1        0.0150
     22 C          -1.6194    2.8171   25.6502 C.3     1  UNL1        0.0679
     23 C          -0.9110    3.0935   24.3572 C.2     1  UNL1        0.0547
     24 O          -1.2204    4.3414   23.5843 O.co2   1  UNL1       -0.5488
     25 O           0.1069    2.1222   23.8371 O.co2   1  UNL1       -0.5488
     26 O           2.9779    4.0612   34.5168 O.3     1  UNL1       -0.4753
     27 C           1.6255    4.4544   36.7000 C.3     1  UNL1        0.0512
     28 C           1.6972    4.4361   35.2018 C.3     1  UNL1        0.2055
     29 O           3.9118   -1.6111   32.7984 O.3     1  UNL1       -0.4753
     30 C           5.0789   -1.9454   31.9175 C.3     1  UNL1        0.2055
     31 C           6.1319   -2.8997   32.3976 C.3     1  UNL1        0.0512
@<TRIPOS>UNITY_ATOM_ATTR
24 1
charge -1
@<TRIPOS>BOND
     1    27    28    1
     2    28    26    1
     3    26     1    1
     4     1     2   ar
     5     2     3   ar
     6     3     4   ar
     7     4    29    1
     8    29    30    1
     9    30    31    1
    10     4     5   ar
    11     5     6   ar
    12     6     7   ar
    13     7     8   ar
    14     8     9   ar
    15     9    10   ar
    16     3    11    1
    17    11    12    2
    18    11    13   am
    19    13    16    1
    20    16    17   ar
    21    17    18   ar
    22    18    19   ar
    23    19    22    1
    24    22    23    1
    25    23    24   ar
    26    23    25   ar
    27    19    20   ar
    28    20    21   ar
    29    13    14   am
    30    14    15    2
    31    10     1   ar
    32    21    16   ar
    33    14     2    1
    34    10     5   ar
