@<TRIPOS>MOLECULE
*****
 36 39 0 0 0
SMALL
GASTEIGER

@<TRIPOS>ATOM
      1 C          -1.9767    4.0584   20.8090 C.ar    1  UNL1        0.0528
      2 C          -1.0410    2.8895   20.7182 C.ar    1  UNL1        0.0167
      3 C           0.4192    3.1160   20.4605 C.ar    1  UNL1        0.0505
      4 C           0.9438    4.5113   20.2936 C.ar    1  UNL1        0.0170
      5 C           0.0082    5.6802   20.3843 C.ar    1  UNL1        0.0307
      6 C          -1.4521    5.4537   20.6421 C.ar    1  UNL1        0.1402
      7 F          -2.3878    6.6226   20.7328 F       1  UNL1       -0.2044
      8 C          -4.9540    3.5186   25.2917 C.3     1  UNL1        0.0320
      9 C          -4.4483    3.6230   23.8833 C.3     1  UNL1        0.1157
     10 C          -5.4028    3.5010   22.7327 C.3     1  UNL1        0.0343
     11 C          -4.8971    3.6054   21.3244 C.3     1  UNL1        0.0601
     12 C          -5.8517    3.4834   20.1738 C.3     1  UNL1        0.0837
     13 C          -5.3460    3.5878   18.7654 C.3     1  UNL1        0.3553
     14 F          -5.3476    3.6172   17.2658 F       1  UNL1       -0.1914
     15 F          -6.8068    3.3715   18.5023 F       1  UNL1       -0.1914
     16 C          -3.8857    3.8143   18.5078 C.2     1  UNL1        0.3505
     17 N          -3.3800    3.9188   17.0994 N.pl3   1  UNL1       -0.2456
     18 N          -2.9312    3.9364   19.6584 N.2     1  UNL1       -0.0666
     19 C          -3.4369    3.8319   21.0667 C.3     1  UNL1        0.2224
     20 C          -2.4824    3.9540   22.2173 C.3     1  UNL1        0.1950
     21 O          -2.9881    3.8495   23.6256 O.3     1  UNL1       -0.3514
     22 H          -4.0065    3.8387   16.3442 H       1  UNL1        0.2883
     23 H          -2.4216    4.0674   16.9303 H       1  UNL1        0.2883
     24 N           1.3550    1.9471   20.3697 N.am    1  UNL1       -0.2791
     25 C           1.3760    1.0974   19.1337 C.2     1  UNL1        0.2688
     26 O           0.4613    1.4167   17.9885 O.2     1  UNL1       -0.2681
     27 H           1.9553    1.7375   21.1213 H       1  UNL1        0.1552
     28 C           2.3116   -0.0714   19.0429 C.ar    1  UNL1        0.1541
     29 C           2.3731   -1.0714   20.1592 C.ar    1  UNL1        0.1258
     30 N           3.3088   -2.2403   20.0684 N.ar    1  UNL1       -0.2070
     31 C           4.1830   -2.4091   18.8612 C.ar    1  UNL1        0.2469
     32 C           4.1216   -1.4091   17.7449 C.ar    1  UNL1        0.1566
     33 N           3.1858   -0.2402   17.8357 N.ar    1  UNL1       -0.2328
     34 O           5.1187   -3.5780   18.7704 O.3     1  UNL1       -0.4265
     35 C           4.5854   -4.9758   18.8788 C.3     1  UNL1        0.4044
     36 F           3.1440   -5.2038   19.2254 F       1  UNL1       -0.1809
@<TRIPOS>BOND
     1     9     8    1
     2     9    10    1
     3    11    10    1
     4    11    12    1
     5    12    13    1
     6    13    14    1
     7    13    15    1
     8    13    16    1
     9    16    17    1
    10    16    18    2
    11    18    19    1
    12    19     1    1
    13     1     2   ar
    14     2     3   ar
    15     3    24    1
    16    24    25   am
    17    25    26    2
    18    25    28    1
    19    28    29   ar
    20    29    30   ar
    21    30    31   ar
    22    31    34    1
    23    34    35    1
    24    35    36    1
    25    31    32   ar
    26    32    33   ar
    27     3     4   ar
    28     4     5   ar
    29     5     6   ar
    30     6     7    1
    31    19    20    1
    32    20    21    1
    33    21     9    1
    34    19    11    1
    35     6     1   ar
    36    33    28   ar
    37    17    22    1
    38    17    23    1
    39    24    27    1
@<TRIPOS>MOLECULE
*****
 36 39 0 0 0
SMALL
GASTEIGER

@<TRIPOS>ATOM
      1 C           2.9898    0.1359   20.6833 C.ar    1  UNL1        0.0528
      2 C           1.5355    0.4367   20.8948 C.ar    1  UNL1        0.0167
      3 C           0.9157    1.6376   20.2440 C.ar    1  UNL1        0.0505
      4 C           1.7500    2.5379   19.3819 C.ar    1  UNL1        0.0170
      5 C           3.2043    2.2372   19.1704 C.ar    1  UNL1        0.0307
      6 C           3.8242    1.0362   19.8211 C.ar    1  UNL1        0.1402
      7 F           5.2784    0.7355   19.6097 F       1  UNL1       -0.2044
      8 C           3.8823   -1.3042   25.8194 C.3     1  UNL1        0.0320
      9 C           3.7914   -1.2245   24.3243 C.3     1  UNL1        0.1157
     10 C           4.3203   -2.3457   23.4799 C.3     1  UNL1        0.0343
     11 C           4.2294   -2.2660   21.9848 C.3     1  UNL1        0.0601
     12 C           4.7584   -3.3873   21.1404 C.3     1  UNL1        0.0837
     13 C           4.6675   -3.3075   19.6452 C.3     1  UNL1        0.3553
     14 F           4.8090   -3.6911   18.2021 F       1  UNL1       -0.1914
     15 F           5.3365   -4.6417   19.7948 F       1  UNL1       -0.1914
     16 C           4.0477   -2.1065   18.9945 C.2     1  UNL1        0.3505
     17 N           3.9568   -2.0268   17.4994 N.pl3   1  UNL1       -0.2456
     18 N           3.5187   -0.9853   19.8389 N.2     1  UNL1       -0.0666
     19 C           3.6096   -1.0650   21.3340 C.3     1  UNL1        0.2224
     20 C           3.0807    0.0562   22.1784 C.3     1  UNL1        0.1950
     21 O           3.1716   -0.0235   23.6736 O.3     1  UNL1       -0.3514
     22 H           4.3039   -2.7627   16.9452 H       1  UNL1        0.2883
     23 H           3.5500   -1.2385   17.0723 H       1  UNL1        0.2883
     24 N          -0.5387    1.9384   20.4555 N.am    1  UNL1       -0.2791
     25 C          -0.9489    3.0404   21.3867 C.2     1  UNL1        0.2688
     26 O           0.0951    3.8417   22.1065 O.2     1  UNL1       -0.2681
     27 H          -1.2238    1.4125   19.9830 H       1  UNL1        0.1552
     28 C          -2.4031    3.3412   21.5982 C.ar    1  UNL1        0.1541
     29 C          -2.8427    4.1015   22.8142 C.ar    1  UNL1        0.1258
     30 N          -4.2969    4.4023   23.0257 N.ar    1  UNL1       -0.2070
     31 C          -5.3116    3.9427   22.0211 C.ar    1  UNL1        0.2469
     32 C          -4.8721    3.1824   20.8050 C.ar    1  UNL1        0.1566
     33 N          -3.4178    2.8816   20.5936 N.ar    1  UNL1       -0.2328
     34 O          -6.7658    4.2435   22.2325 O.3     1  UNL1       -0.4265
     35 C          -7.3216    4.3186   23.6237 C.3     1  UNL1        0.4044
     36 F          -8.7872    4.1024   23.8585 F       1  UNL1       -0.1809
@<TRIPOS>BOND
     1     9     8    1
     2     9    10    1
     3    11    10    1
     4    11    12    1
     5    12    13    1
     6    13    14    1
     7    13    15    1
     8    13    16    1
     9    16    17    1
    10    16    18    2
    11    18    19    1
    12    19     1    1
    13     1     2   ar
    14     2     3   ar
    15     3    24    1
    16    24    25   am
    17    25    26    2
    18    25    28    1
    19    28    29   ar
    20    29    30   ar
    21    30    31   ar
    22    31    34    1
    23    34    35    1
    24    35    36    1
    25    31    32   ar
    26    32    33   ar
    27     3     4   ar
    28     4     5   ar
    29     5     6   ar
    30     6     7    1
    31    19    20    1
    32    20    21    1
    33    21     9    1
    34    19    11    1
    35     6     1   ar
    36    33    28   ar
    37    17    22    1
    38    17    23    1
    39    24    27    1
@<TRIPOS>MOLECULE
*****
 36 39 0 0 0
SMALL
GASTEIGER

@<TRIPOS>ATOM
      1 C          -1.7163    3.9543   21.5239 C.ar    1  UNL1        0.0528
      2 C          -0.8202    2.7801   21.2621 C.ar    1  UNL1        0.0167
      3 C           0.6070    3.0014   20.8572 C.ar    1  UNL1        0.0505
      4 C           1.1383    4.3969   20.7141 C.ar    1  UNL1        0.0170
      5 C           0.2423    5.5710   20.9759 C.ar    1  UNL1        0.0307
      6 C          -1.1850    5.3497   21.3809 C.ar    1  UNL1        0.1402
      7 F          -2.0810    6.5238   21.6427 F       1  UNL1       -0.2044
      8 C          -6.3228    3.2324   18.7838 C.3     1  UNL1        0.0320
      9 C          -5.2630    3.3993   19.8322 C.3     1  UNL1        0.1157
     10 C          -5.6305    3.3447   21.2854 C.3     1  UNL1        0.0343
     11 C          -4.5707    3.5116   22.3337 C.3     1  UNL1        0.0601
     12 C          -4.9382    3.4570   23.7871 C.3     1  UNL1        0.0837
     13 C          -3.8784    3.6239   24.8354 C.3     1  UNL1        0.3553
     14 F          -3.2370    3.7261   26.1874 F       1  UNL1       -0.1914
     15 F          -5.0829    3.4380   25.7099 F       1  UNL1       -0.1914
     16 C          -2.4511    3.8452   24.4304 C.2     1  UNL1        0.3505
     17 N          -1.3913    4.0120   25.4788 N.pl3   1  UNL1       -0.2456
     18 N          -2.0837    3.8997   22.9772 N.2     1  UNL1       -0.0666
     19 C          -3.1435    3.7329   21.9288 C.3     1  UNL1        0.2224
     20 C          -2.7760    3.7874   20.4756 C.3     1  UNL1        0.1950
     21 O          -3.8358    3.6206   19.4273 O.3     1  UNL1       -0.3514
     22 H          -1.6325    3.9762   26.4326 H       1  UNL1        0.2883
     23 H          -0.4546    4.1573   25.2130 H       1  UNL1        0.2883
     24 N           1.5031    1.8273   20.5954 N.am    1  UNL1       -0.2791
     25 C           1.4391    1.1142   19.2773 C.2     1  UNL1        0.2688
     26 O           0.4790    1.5753   18.2210 O.2     1  UNL1       -0.2681
     27 H           2.1333    1.5247   21.2886 H       1  UNL1        0.1552
     28 C           2.3351   -0.0599   19.0154 C.ar    1  UNL1        0.1541
     29 C           2.4245   -1.1732   20.0167 C.ar    1  UNL1        0.1258
     30 N           3.3205   -2.3473   19.7548 N.ar    1  UNL1       -0.2070
     31 C           4.1272   -2.4081   18.4916 C.ar    1  UNL1        0.2469
     32 C           4.0378   -1.2948   17.4903 C.ar    1  UNL1        0.1566
     33 N           3.1417   -0.1207   17.7522 N.ar    1  UNL1       -0.2328
     34 O           5.0232   -3.5822   18.2297 O.3     1  UNL1       -0.4265
     35 C           4.8396   -4.8533   19.0047 C.3     1  UNL1        0.4044
     36 F           3.4593   -5.3756   19.2728 F       1  UNL1       -0.1809
@<TRIPOS>BOND
     1     9     8    1
     2     9    10    1
     3    11    10    1
     4    11    12    1
     5    12    13    1
     6    13    14    1
     7    13    15    1
     8    13    16    1
     9    16    17    1
    10    16    18    2
    11    18    19    1
    12    19     1    1
    13     1     2   ar
    14     2     3   ar
    15     3    24    1
    16    24    25   am
    17    25    26    2
    18    25    28    1
    19    28    29   ar
    20    29    30   ar
    21    30    31   ar
    22    31    34    1
    23    34    35    1
    24    35    36    1
    25    31    32   ar
    26    32    33   ar
    27     3     4   ar
    28     4     5   ar
    29     5     6   ar
    30     6     7    1
    31    19    20    1
    32    20    21    1
    33    21     9    1
    34    19    11    1
    35     6     1   ar
    36    33    28   ar
    37    17    22    1
    38    17    23    1
    39    24    27    1
@<TRIPOS>MOLECULE
*****
 36 39 0 0 0
SMALL
GASTEIGER

@<TRIPOS>ATOM
      1 C          -2.0914    3.9550   21.2872 C.ar    1  UNL1        0.0528
      2 C          -1.2975    2.7610   20.8463 C.ar    1  UNL1        0.0167
      3 C          -0.3138    2.8883   19.7211 C.ar    1  UNL1        0.0505
      4 C          -0.1239    4.2095   19.0368 C.ar    1  UNL1        0.0170
      5 C          -0.9177    5.4035   19.4776 C.ar    1  UNL1        0.0307
      6 C          -1.9015    5.2762   20.6028 C.ar    1  UNL1        0.1402
      7 F          -2.6953    6.4701   21.0436 F       1  UNL1       -0.2044
      8 C          -1.6106    3.2175   26.6233 C.3     1  UNL1        0.0320
      9 C          -2.0988    3.4209   25.2197 C.3     1  UNL1        0.1157
     10 C          -3.5707    3.4970   24.9411 C.3     1  UNL1        0.0343
     11 C          -4.0589    3.7004   23.5375 C.3     1  UNL1        0.0601
     12 C          -5.5309    3.7765   23.2590 C.3     1  UNL1        0.0837
     13 C          -6.0191    3.9799   21.8553 C.3     1  UNL1        0.3553
     14 F          -6.9627    4.1609   20.7035 F       1  UNL1       -0.1914
     15 F          -7.3306    3.9155   22.5804 F       1  UNL1       -0.1914
     16 C          -5.0352    4.1072   20.7301 C.2     1  UNL1        0.3505
     17 N          -5.5234    4.3106   19.3264 N.pl3   1  UNL1       -0.2456
     18 N          -3.5633    4.0311   21.0086 N.2     1  UNL1       -0.0666
     19 C          -3.0752    3.8277   22.4123 C.3     1  UNL1        0.2224
     20 C          -1.6032    3.7516   22.6908 C.3     1  UNL1        0.1950
     21 O          -1.1151    3.5482   24.0945 O.3     1  UNL1       -0.3514
     22 H          -6.4895    4.3605   19.1436 H       1  UNL1        0.2883
     23 H          -4.8777    4.3941   18.5879 H       1  UNL1        0.2883
     24 N           0.4801    1.6944   19.2803 N.am    1  UNL1       -0.2791
     25 C           1.7467    1.3299   19.9965 C.2     1  UNL1        0.2688
     26 O           2.2194    2.1593   21.1535 O.2     1  UNL1       -0.2681
     27 H           0.1698    1.1500   18.5209 H       1  UNL1        0.1552
     28 C           2.5405    0.1360   19.5557 C.ar    1  UNL1        0.1541
     29 C           3.0515    0.0532   18.1478 C.ar    1  UNL1        0.1258
     30 N           3.8454   -1.1406   17.7070 N.ar    1  UNL1       -0.2070
     31 C           4.1283   -2.2519   18.6741 C.ar    1  UNL1        0.2469
     32 C           3.6174   -2.1692   20.0819 C.ar    1  UNL1        0.1566
     33 N           2.8235   -0.9752   20.5227 N.ar    1  UNL1       -0.2328
     34 O           4.9222   -3.4458   18.2333 O.3     1  UNL1       -0.4265
     35 C           4.6467   -4.7927   18.8331 C.3     1  UNL1        0.4044
     36 F           3.2367   -5.2037   19.1380 F       1  UNL1       -0.1809
@<TRIPOS>BOND
     1     9     8    1
     2     9    10    1
     3    11    10    1
     4    11    12    1
     5    12    13    1
     6    13    14    1
     7    13    15    1
     8    13    16    1
     9    16    17    1
    10    16    18    2
    11    18    19    1
    12    19     1    1
    13     1     2   ar
    14     2     3   ar
    15     3    24    1
    16    24    25   am
    17    25    26    2
    18    25    28    1
    19    28    29   ar
    20    29    30   ar
    21    30    31   ar
    22    31    34    1
    23    34    35    1
    24    35    36    1
    25    31    32   ar
    26    32    33   ar
    27     3     4   ar
    28     4     5   ar
    29     5     6   ar
    30     6     7    1
    31    19    20    1
    32    20    21    1
    33    21     9    1
    34    19    11    1
    35     6     1   ar
    36    33    28   ar
    37    17    22    1
    38    17    23    1
    39    24    27    1
@<TRIPOS>MOLECULE
*****
 36 39 0 0 0
SMALL
GASTEIGER

@<TRIPOS>ATOM
      1 C           4.4594   -1.5342   19.9772 C.ar    1  UNL1        0.0528
      2 C           4.8481   -1.7453   21.4105 C.ar    1  UNL1        0.0167
      3 C           4.7750   -3.1170   22.0132 C.ar    1  UNL1        0.0505
      4 C           4.3131   -4.2775   21.1826 C.ar    1  UNL1        0.0170
      5 C           3.9245   -4.0664   19.7493 C.ar    1  UNL1        0.0307
      6 C           3.9976   -2.6947   19.1466 C.ar    1  UNL1        0.1402
      7 F           3.6089   -2.4836   17.7133 F       1  UNL1       -0.2044
      8 C           8.5125    1.5546   18.1656 C.3     1  UNL1        0.0320
      9 C           7.1859    0.9822   18.5686 C.3     1  UNL1        0.1157
     10 C           5.9324    1.7815   18.3689 C.3     1  UNL1        0.0343
     11 C           4.6057    1.2091   18.7719 C.3     1  UNL1        0.0601
     12 C           3.3522    2.0084   18.5721 C.3     1  UNL1        0.0837
     13 C           2.0255    1.4360   18.9751 C.3     1  UNL1        0.3553
     14 F           0.5458    1.3268   19.1953 F       1  UNL1       -0.1914
     15 F           1.5848    2.7697   18.4489 F       1  UNL1       -0.1914
     16 C           1.9524    0.0643   19.5778 C.2     1  UNL1        0.3505
     17 N           0.6258   -0.5081   19.9807 N.pl3   1  UNL1       -0.2456
     18 N           3.2059   -0.7350   19.7775 N.2     1  UNL1       -0.0666
     19 C           4.5326   -0.1626   19.3745 C.3     1  UNL1        0.2224
     20 C           5.7861   -0.9618   19.5742 C.3     1  UNL1        0.1950
     21 O           7.1127   -0.3894   19.1713 O.3     1  UNL1       -0.3514
     22 H          -0.1969    0.0164   19.8496 H       1  UNL1        0.2883
     23 H           0.5778   -1.4084   20.3763 H       1  UNL1        0.2883
     24 N           5.1636   -3.3281   23.4466 N.am    1  UNL1       -0.2791
     25 C           6.3665   -4.1587   23.7829 C.2     1  UNL1        0.2688
     26 O           7.1808   -4.7782   22.6859 O.2     1  UNL1       -0.2681
     27 H           4.6292   -2.9216   24.1665 H       1  UNL1        0.1552
     28 C           6.7552   -4.3699   25.2161 C.ar    1  UNL1        0.1541
     29 C           6.6346   -3.2438   26.1997 C.ar    1  UNL1        0.1258
     30 N           7.0233   -3.4550   27.6330 N.ar    1  UNL1       -0.2070
     31 C           7.5327   -4.7923   28.0827 C.ar    1  UNL1        0.2469
     32 C           7.6533   -5.9184   27.0992 C.ar    1  UNL1        0.1566
     33 N           7.2646   -5.7071   25.6658 N.ar    1  UNL1       -0.2328
     34 O           7.9213   -5.0035   29.5160 O.3     1  UNL1       -0.4265
     35 C           6.8709   -5.3183   30.5394 C.3     1  UNL1        0.4044
     36 F           7.2079   -6.1811   31.7192 F       1  UNL1       -0.1809
@<TRIPOS>BOND
     1     9     8    1
     2     9    10    1
     3    11    10    1
     4    11    12    1
     5    12    13    1
     6    13    14    1
     7    13    15    1
     8    13    16    1
     9    16    17    1
    10    16    18    2
    11    18    19    1
    12    19     1    1
    13     1     2   ar
    14     2     3   ar
    15     3    24    1
    16    24    25   am
    17    25    26    2
    18    25    28    1
    19    28    29   ar
    20    29    30   ar
    21    30    31   ar
    22    31    34    1
    23    34    35    1
    24    35    36    1
    25    31    32   ar
    26    32    33   ar
    27     3     4   ar
    28     4     5   ar
    29     5     6   ar
    30     6     7    1
    31    19    20    1
    32    20    21    1
    33    21     9    1
    34    19    11    1
    35     6     1   ar
    36    33    28   ar
    37    17    22    1
    38    17    23    1
    39    24    27    1
@<TRIPOS>MOLECULE
*****
 36 39 0 0 0
SMALL
GASTEIGER

@<TRIPOS>ATOM
      1 C           4.2531    1.7486   36.7747 C.ar    1  UNL1        0.0528
      2 C           4.2651    0.8066   35.6073 C.ar    1  UNL1        0.0167
      3 C           5.3972   -0.1625   35.4372 C.ar    1  UNL1        0.0505
      4 C           6.5175   -0.1896   36.4343 C.ar    1  UNL1        0.0170
      5 C           6.5056    0.7522   37.6016 C.ar    1  UNL1        0.0307
      6 C           5.3734    1.7214   37.7718 C.ar    1  UNL1        0.1402
      7 F           5.3615    2.6633   38.9391 F       1  UNL1       -0.2044
      8 C           2.9379    6.4316   34.4105 C.3     1  UNL1        0.0320
      9 C           2.9989    5.1936   35.2553 C.3     1  UNL1        0.1157
     10 C           1.9277    4.9247   36.2703 C.3     1  UNL1        0.0343
     11 C           1.9887    3.6867   37.1151 C.3     1  UNL1        0.0601
     12 C           0.9175    3.4178   38.1301 C.3     1  UNL1        0.0837
     13 C           0.9785    2.1798   38.9749 C.3     1  UNL1        0.3553
     14 F           0.6008    1.1547   40.0027 F       1  UNL1       -0.1914
     15 F          -0.2849    2.7929   39.5021 F       1  UNL1       -0.1914
     16 C           2.1108    1.2107   38.8047 C.2     1  UNL1        0.3505
     17 N           2.1718   -0.0273   39.6494 N.pl3   1  UNL1       -0.2456
     18 N           3.1819    1.4796   37.7897 N.2     1  UNL1       -0.0666
     19 C           3.1209    2.7176   36.9449 C.3     1  UNL1        0.2224
     20 C           4.1921    2.9865   35.9299 C.3     1  UNL1        0.1950
     21 O           4.1311    4.2245   35.0851 O.3     1  UNL1       -0.3514
     22 H           1.4687   -0.2038   40.3156 H       1  UNL1        0.2883
     23 H           2.9149   -0.6633   39.5377 H       1  UNL1        0.2883
     24 N           5.4092   -1.1044   34.2698 N.am    1  UNL1       -0.2791
     25 C           6.3953   -0.9070   33.1568 C.2     1  UNL1        0.2688
     26 O           7.3694    0.2324   33.2112 O.2     1  UNL1       -0.2681
     27 H           4.7699   -1.8522   34.2341 H       1  UNL1        0.1552
     28 C           6.4073   -1.8489   31.9895 C.ar    1  UNL1        0.1541
     29 C           6.7041   -3.3037   32.2027 C.ar    1  UNL1        0.1258
     30 N           6.7161   -4.2456   31.0354 N.ar    1  UNL1       -0.2070
     31 C           6.4312   -3.7327   29.6548 C.ar    1  UNL1        0.2469
     32 C           6.1344   -2.2779   29.4417 C.ar    1  UNL1        0.1566
     33 N           6.1224   -1.3360   30.6091 N.ar    1  UNL1       -0.2328
     34 O           6.4432   -4.6746   28.4875 O.3     1  UNL1       -0.4265
     35 C           7.5564   -5.6687   28.3373 C.3     1  UNL1        0.4044
     36 F           7.6941   -6.7944   29.3189 F       1  UNL1       -0.1809
@<TRIPOS>BOND
     1     9     8    1
     2     9    10    1
     3    11    10    1
     4    11    12    1
     5    12    13    1
     6    13    14    1
     7    13    15    1
     8    13    16    1
     9    16    17    1
    10    16    18    2
    11    18    19    1
    12    19     1    1
    13     1     2   ar
    14     2     3   ar
    15     3    24    1
    16    24    25   am
    17    25    26    2
    18    25    28    1
    19    28    29   ar
    20    29    30   ar
    21    30    31   ar
    22    31    34    1
    23    34    35    1
    24    35    36    1
    25    31    32   ar
    26    32    33   ar
    27     3     4   ar
    28     4     5   ar
    29     5     6   ar
    30     6     7    1
    31    19    20    1
    32    20    21    1
    33    21     9    1
    34    19    11    1
    35     6     1   ar
    36    33    28   ar
    37    17    22    1
    38    17    23    1
    39    24    27    1
@<TRIPOS>MOLECULE
*****
 36 39 0 0 0
SMALL
GASTEIGER

@<TRIPOS>ATOM
      1 C          -9.4797  -19.1209   20.9275 C.ar    1  UNL1        0.0528
      2 C          -8.0609  -18.6339   20.9200 C.ar    1  UNL1        0.0167
      3 C          -7.1882  -18.8844   19.7260 C.ar    1  UNL1        0.0505
      4 C          -7.7343  -19.6218   18.5394 C.ar    1  UNL1        0.0170
      5 C          -9.1530  -20.1088   18.5468 C.ar    1  UNL1        0.0307
      6 C         -10.0257  -19.8583   19.7409 C.ar    1  UNL1        0.1402
      7 F         -11.4444  -20.3453   19.7483 F       1  UNL1       -0.2044
      8 C          -9.8675  -21.3759   25.8279 C.3     1  UNL1        0.0320
      9 C         -10.0291  -20.5408   24.5925 C.3     1  UNL1        0.1157
     10 C         -11.0633  -19.4552   24.5510 C.3     1  UNL1        0.0343
     11 C         -11.2249  -18.6200   23.3155 C.3     1  UNL1        0.0601
     12 C         -12.2592  -17.5344   23.2741 C.3     1  UNL1        0.0837
     13 C         -12.4208  -16.6992   22.0386 C.3     1  UNL1        0.3553
     14 F         -12.9492  -15.6506   21.1053 F       1  UNL1       -0.1914
     15 F         -13.4770  -16.0846   22.9085 F       1  UNL1       -0.1914
     16 C         -11.5481  -16.9497   20.8446 C.2     1  UNL1        0.3505
     17 N         -11.7097  -16.1145   19.6091 N.pl3   1  UNL1       -0.2456
     18 N         -10.5139  -18.0353   20.8860 N.2     1  UNL1       -0.0666
     19 C         -10.3523  -18.8705   22.1215 C.3     1  UNL1        0.2224
     20 C          -9.3180  -19.9560   22.1630 C.3     1  UNL1        0.1950
     21 O          -9.1564  -20.7912   23.3984 O.3     1  UNL1       -0.3514
     22 H         -12.3886  -15.4020   19.5819 H       1  UNL1        0.2883
     23 H         -11.1370  -16.2789   18.8254 H       1  UNL1        0.2883
     24 N          -5.7694  -18.3974   19.7185 N.am    1  UNL1       -0.2791
     25 C          -4.6567  -19.3231   20.1120 C.2     1  UNL1        0.2688
     26 O          -4.9627  -20.7358   20.5129 O.2     1  UNL1       -0.2681
     27 H          -5.5686  -17.4702   19.4554 H       1  UNL1        0.1552
     28 C          -3.2380  -18.8362   20.1045 C.ar    1  UNL1        0.1541
     29 C          -2.3816  -19.0021   21.3248 C.ar    1  UNL1        0.1258
     30 N          -0.9629  -18.5152   21.3174 N.ar    1  UNL1       -0.2070
     31 C          -0.4005  -17.8623   20.0896 C.ar    1  UNL1        0.2469
     32 C          -1.2568  -17.6964   18.8692 C.ar    1  UNL1        0.1566
     33 N          -2.6756  -18.1834   18.8767 N.ar    1  UNL1       -0.2328
     34 O           1.0183  -17.3754   20.0821 O.3     1  UNL1       -0.4265
     35 C           2.0247  -17.9831   21.0136 C.3     1  UNL1        0.4044
     36 F           3.3569  -17.3232   21.2125 F       1  UNL1       -0.1809
@<TRIPOS>BOND
     1     9     8    1
     2     9    10    1
     3    11    10    1
     4    11    12    1
     5    12    13    1
     6    13    14    1
     7    13    15    1
     8    13    16    1
     9    16    17    1
    10    16    18    2
    11    18    19    1
    12    19     1    1
    13     1     2   ar
    14     2     3   ar
    15     3    24    1
    16    24    25   am
    17    25    26    2
    18    25    28    1
    19    28    29   ar
    20    29    30   ar
    21    30    31   ar
    22    31    34    1
    23    34    35    1
    24    35    36    1
    25    31    32   ar
    26    32    33   ar
    27     3     4   ar
    28     4     5   ar
    29     5     6   ar
    30     6     7    1
    31    19    20    1
    32    20    21    1
    33    21     9    1
    34    19    11    1
    35     6     1   ar
    36    33    28   ar
    37    17    22    1
    38    17    23    1
    39    24    27    1
@<TRIPOS>MOLECULE
*****
 36 39 0 0 0
SMALL
GASTEIGER

@<TRIPOS>ATOM
      1 C           3.2966    0.0716   20.5206 C.ar    1  UNL1        0.0528
      2 C           1.8381    0.4047   20.4108 C.ar    1  UNL1        0.0167
      3 C           1.4046    1.6456   19.6882 C.ar    1  UNL1        0.0505
      4 C           2.4294    2.5534   19.0754 C.ar    1  UNL1        0.0170
      5 C           3.8878    2.2204   19.1851 C.ar    1  UNL1        0.0307
      6 C           4.3215    0.9794   19.9078 C.ar    1  UNL1        0.1402
      7 F           5.7799    0.6464   20.0175 F       1  UNL1       -0.2044
      8 C           4.2586   -5.0225   18.9798 C.3     1  UNL1        0.0320
      9 C           4.0825   -3.7381   19.7342 C.3     1  UNL1        0.1157
     10 C           4.3399   -3.6946   21.2113 C.3     1  UNL1        0.0343
     11 C           4.1637   -2.4101   21.9658 C.3     1  UNL1        0.0601
     12 C           4.4212   -2.3666   23.4429 C.3     1  UNL1        0.0837
     13 C           4.2450   -1.0822   24.1974 C.3     1  UNL1        0.3553
     14 F           4.2159   -0.1117   25.3407 F       1  UNL1       -0.1914
     15 F           4.6685   -1.9861   25.3171 F       1  UNL1       -0.1914
     16 C           3.8114    0.1587   23.4747 C.2     1  UNL1        0.3505
     17 N           3.6353    1.4431   24.2292 N.pl3   1  UNL1       -0.2456
     18 N           3.5540    0.1152   21.9977 N.2     1  UNL1       -0.0666
     19 C           3.7302   -1.1693   21.2432 C.3     1  UNL1        0.2224
     20 C           3.4728   -1.2128   19.7661 C.3     1  UNL1        0.1950
     21 O           3.6489   -2.4972   19.0116 O.3     1  UNL1       -0.3514
     22 H           3.8042    1.4717   25.1987 H       1  UNL1        0.2883
     23 H           3.3507    2.2576   23.7549 H       1  UNL1        0.2883
     24 N          -0.0539    1.9787   19.5784 N.am    1  UNL1       -0.2791
     25 C          -0.6903    2.8989   20.5775 C.2     1  UNL1        0.2688
     26 O           0.1318    3.4860   21.6864 O.2     1  UNL1       -0.2681
     27 H          -0.5934    1.5934   18.8506 H       1  UNL1        0.1552
     28 C          -2.1487    3.2321   20.4678 C.ar    1  UNL1        0.1541
     29 C          -2.6918    3.8123   19.1956 C.ar    1  UNL1        0.1258
     30 N          -4.1502    4.1454   19.0859 N.ar    1  UNL1       -0.2070
     31 C          -5.0655    3.8983   20.2483 C.ar    1  UNL1        0.2469
     32 C          -4.5224    3.3181   21.5205 C.ar    1  UNL1        0.1566
     33 N          -3.0639    2.9850   21.6302 N.ar    1  UNL1       -0.2328
     34 O          -6.5239    4.2315   20.1386 O.3     1  UNL1       -0.4265
     35 C          -7.1589    4.3838   18.7882 C.3     1  UNL1        0.4044
     36 F          -8.5174    5.0075   18.6643 F       1  UNL1       -0.1809
@<TRIPOS>BOND
     1     9     8    1
     2     9    10    1
     3    11    10    1
     4    11    12    1
     5    12    13    1
     6    13    14    1
     7    13    15    1
     8    13    16    1
     9    16    17    1
    10    16    18    2
    11    18    19    1
    12    19     1    1
    13     1     2   ar
    14     2     3   ar
    15     3    24    1
    16    24    25   am
    17    25    26    2
    18    25    28    1
    19    28    29   ar
    20    29    30   ar
    21    30    31   ar
    22    31    34    1
    23    34    35    1
    24    35    36    1
    25    31    32   ar
    26    32    33   ar
    27     3     4   ar
    28     4     5   ar
    29     5     6   ar
    30     6     7    1
    31    19    20    1
    32    20    21    1
    33    21     9    1
    34    19    11    1
    35     6     1   ar
    36    33    28   ar
    37    17    22    1
    38    17    23    1
    39    24    27    1
@<TRIPOS>MOLECULE
*****
 36 39 0 0 0
SMALL
GASTEIGER

@<TRIPOS>ATOM
      1 C          -2.4821    4.1660   23.7232 C.ar    1  UNL1        0.0528
      2 C          -1.8499    3.1622   24.6413 C.ar    1  UNL1        0.0167
      3 C          -1.7992    3.4233   26.1175 C.ar    1  UNL1        0.0505
      4 C          -2.3808    4.6883   26.6757 C.ar    1  UNL1        0.0170
      5 C          -3.0129    5.6921   25.7578 C.ar    1  UNL1        0.0307
      6 C          -3.0636    5.4310   24.2815 C.ar    1  UNL1        0.1402
      7 F          -3.6958    6.4348   23.3636 F       1  UNL1       -0.2044
      8 C           1.2776    3.7447   19.8584 C.3     1  UNL1        0.0320
      9 C           0.0075    3.7981   20.6546 C.3     1  UNL1        0.1157
     10 C          -1.3133    3.5903   19.9746 C.3     1  UNL1        0.0343
     11 C          -2.5834    3.6437   20.7709 C.3     1  UNL1        0.0601
     12 C          -3.9042    3.4359   20.0908 C.3     1  UNL1        0.0837
     13 C          -5.1743    3.4893   20.8871 C.3     1  UNL1        0.3553
     14 F          -6.6386    3.4468   21.2095 F       1  UNL1       -0.1914
     15 F          -5.7335    3.2134   19.5228 F       1  UNL1       -0.1914
     16 C          -5.1236    3.7505   22.3633 C.2     1  UNL1        0.3505
     17 N          -6.3937    3.8038   23.1596 N.pl3   1  UNL1       -0.2456
     18 N          -3.8028    3.9582   23.0433 N.2     1  UNL1       -0.0666
     19 C          -2.5327    3.9049   22.2471 C.3     1  UNL1        0.2224
     20 C          -1.2120    4.1126   22.9270 C.3     1  UNL1        0.1950
     21 O           0.0581    4.0592   22.1308 O.3     1  UNL1       -0.3514
     22 H          -7.2606    3.6675   22.7133 H       1  UNL1        0.2883
     23 H          -6.3604    3.9753   24.1285 H       1  UNL1        0.2883
     24 N          -1.1670    2.4195   27.0355 N.am    1  UNL1       -0.2791
     25 C           0.1711    2.7041   27.6507 C.2     1  UNL1        0.2688
     26 O           0.8769    3.9926   27.3479 O.2     1  UNL1       -0.2681
     27 H          -1.6303    1.5738   27.2342 H       1  UNL1        0.1552
     28 C           0.8033    1.7004   28.5687 C.ar    1  UNL1        0.1541
     29 C           0.7673    1.9143   30.0529 C.ar    1  UNL1        0.1258
     30 N           1.3995    0.9106   30.9709 N.ar    1  UNL1       -0.2070
     31 C           2.0677   -0.3072   30.4047 C.ar    1  UNL1        0.2469
     32 C           2.1036   -0.5212   28.9205 C.ar    1  UNL1        0.1566
     33 N           1.4714    0.4826   28.0025 N.ar    1  UNL1       -0.2328
     34 O           2.6999   -1.3110   31.3227 O.3     1  UNL1       -0.4265
     35 C           4.0911   -1.0858   31.8363 C.3     1  UNL1        0.4044
     36 F           4.6471   -1.9737   32.9098 F       1  UNL1       -0.1809
@<TRIPOS>BOND
     1     9     8    1
     2     9    10    1
     3    11    10    1
     4    11    12    1
     5    12    13    1
     6    13    14    1
     7    13    15    1
     8    13    16    1
     9    16    17    1
    10    16    18    2
    11    18    19    1
    12    19     1    1
    13     1     2   ar
    14     2     3   ar
    15     3    24    1
    16    24    25   am
    17    25    26    2
    18    25    28    1
    19    28    29   ar
    20    29    30   ar
    21    30    31   ar
    22    31    34    1
    23    34    35    1
    24    35    36    1
    25    31    32   ar
    26    32    33   ar
    27     3     4   ar
    28     4     5   ar
    29     5     6   ar
    30     6     7    1
    31    19    20    1
    32    20    21    1
    33    21     9    1
    34    19    11    1
    35     6     1   ar
    36    33    28   ar
    37    17    22    1
    38    17    23    1
    39    24    27    1
