@<TRIPOS>MOLECULE
*****
 29 32 0 0 0
SMALL
GASTEIGER

@<TRIPOS>ATOM
      1 C          -5.7902  -15.8494   23.8881 C.3     1  UNL1        0.0759
      2 C          -6.2287  -15.1597   25.1460 C.3     1  UNL1        0.0389
      3 C          -7.6960  -15.4137   25.3265 C.3     1  UNL1        0.0923
      4 N          -8.1644  -16.2602   24.1803 N.pl3   1  UNL1       -0.3061
      5 C          -6.9866  -16.5295   23.2913 C.3     1  UNL1        0.1065
      6 C          -9.5647  -16.7512   23.9615 C.ar    1  UNL1        0.0479
      7 C         -10.0125  -18.0415   24.5817 C.ar    1  UNL1        0.0142
      8 C         -11.4129  -18.5326   24.3629 C.ar    1  UNL1       -0.0026
      9 C         -12.3654  -17.7334   23.5239 C.ar    1  UNL1       -0.0165
     10 C         -11.9176  -16.4431   22.9037 C.ar    1  UNL1       -0.0026
     11 C         -10.5172  -15.9520   23.1225 C.ar    1  UNL1        0.0142
     12 C         -13.7658  -18.2244   23.3051 C.3     1  UNL1        0.0679
     13 C         -14.6493  -18.5199   24.4808 C.2     1  UNL1        0.0547
     14 O         -16.0758  -18.9291   24.2629 O.co2   1  UNL1       -0.5488
     15 O         -14.1062  -18.4061   25.8743 O.co2   1  UNL1       -0.5488
     16 N          -4.3996  -15.8576   23.3259 N.3     1  UNL1       -0.2948
     17 H          -4.4719  -15.5467   22.3571 H       1  UNL1        0.1235
     18 C          -3.2067  -17.7767   24.6079 C.3     1  UNL1        0.0220
     19 C          -3.6026  -17.1283   23.3146 C.3     1  UNL1        0.0769
     20 C          -3.2016  -17.7505   22.0100 C.ar    1  UNL1       -0.0080
     21 C          -1.9847  -17.2559   21.2858 C.ar    1  UNL1       -0.0030
     22 C          -1.5836  -17.8781   19.9812 C.ar    1  UNL1       -0.0003
     23 C          -2.3995  -18.9950   19.4008 C.ar    1  UNL1       -0.0000
     24 C          -3.6164  -19.4897   20.1250 C.ar    1  UNL1       -0.0003
     25 C          -4.4323  -20.6066   19.5445 C.ar    1  UNL1       -0.0000
     26 C          -5.6491  -21.1012   20.2687 C.ar    1  UNL1       -0.0000
     27 C          -6.0502  -20.4790   21.5733 C.ar    1  UNL1       -0.0000
     28 C          -5.2344  -19.3621   22.1538 C.ar    1  UNL1       -0.0003
     29 C          -4.0175  -18.8675   21.4296 C.ar    1  UNL1       -0.0027
@<TRIPOS>UNITY_ATOM_ATTR
14 1
charge -1
@<TRIPOS>BOND
     1    19    18    1
     2    19    16    1
     3     1    16    1
     4     1     2    1
     5     2     3    1
     6     3     4    1
     7     4     6    1
     8     6     7   ar
     9     7     8   ar
    10     8     9   ar
    11     9    12    1
    12    12    13    1
    13    13    14   ar
    14    13    15   ar
    15     9    10   ar
    16    10    11   ar
    17     4     5    1
    18    19    20    1
    19    20    21   ar
    20    21    22   ar
    21    22    23   ar
    22    23    24   ar
    23    24    25   ar
    24    25    26   ar
    25    26    27   ar
    26    27    28   ar
    27    28    29   ar
    28     5     1    1
    29    29    20   ar
    30    11     6   ar
    31    29    24   ar
    32    16    17    1
@<TRIPOS>MOLECULE
*****
 29 32 0 0 0
SMALL
GASTEIGER

@<TRIPOS>ATOM
      1 C          -7.6489  -15.9044   24.5212 C.3     1  UNL1        0.0759
      2 C          -6.6924  -15.1971   25.4349 C.3     1  UNL1        0.0389
      3 C          -5.2979  -15.5247   24.9896 C.3     1  UNL1        0.0923
      4 N          -5.3926  -16.4344   23.8007 N.pl3   1  UNL1       -0.3061
      5 C          -6.8455  -16.6691   23.5112 C.3     1  UNL1        0.1065
      6 C          -4.2371  -17.0085   23.0358 C.ar    1  UNL1        0.0479
      7 C          -3.1971  -16.0982   22.4529 C.ar    1  UNL1        0.0142
      8 C          -2.0417  -16.6723   21.6878 C.ar    1  UNL1       -0.0026
      9 C          -1.9262  -18.1567   21.5057 C.ar    1  UNL1       -0.0165
     10 C          -2.9662  -19.0670   22.0886 C.ar    1  UNL1       -0.0026
     11 C          -4.1217  -18.4929   22.8536 C.ar    1  UNL1        0.0142
     12 C          -0.7707  -18.7309   20.7407 C.3     1  UNL1        0.0679
     13 C          -0.0979  -17.9169   19.6753 C.2     1  UNL1        0.0547
     14 O          -0.6366  -17.9218   18.2754 O.co2   1  UNL1       -0.5488
     15 O           1.1134  -17.0981   20.0100 O.co2   1  UNL1       -0.5488
     16 N          -9.1458  -15.8557   24.6030 N.3     1  UNL1       -0.2948
     17 H          -9.3809  -15.6404   25.5720 H       1  UNL1        0.1235
     18 C         -10.1040  -18.2021   25.1742 C.3     1  UNL1        0.0220
     19 C          -9.9576  -17.0566   24.2170 C.3     1  UNL1        0.0769
     20 C         -10.6230  -17.1119   22.8738 C.ar    1  UNL1       -0.0080
     21 C         -11.8701  -16.3177   22.6214 C.ar    1  UNL1       -0.0030
     22 C         -12.5355  -16.3730   21.2782 C.ar    1  UNL1       -0.0003
     23 C         -11.9537  -17.2225   20.1874 C.ar    1  UNL1       -0.0000
     24 C         -10.7065  -18.0168   20.4398 C.ar    1  UNL1       -0.0003
     25 C         -10.1247  -18.8663   19.3491 C.ar    1  UNL1       -0.0000
     26 C          -8.8775  -19.6605   19.6015 C.ar    1  UNL1       -0.0000
     27 C          -8.2122  -19.6052   20.9447 C.ar    1  UNL1       -0.0000
     28 C          -8.7939  -18.7557   22.0355 C.ar    1  UNL1       -0.0003
     29 C         -10.0411  -17.9615   21.7830 C.ar    1  UNL1       -0.0027
@<TRIPOS>UNITY_ATOM_ATTR
14 1
charge -1
@<TRIPOS>BOND
     1    19    18    1
     2    19    16    1
     3     1    16    1
     4     1     2    1
     5     2     3    1
     6     3     4    1
     7     4     6    1
     8     6     7   ar
     9     7     8   ar
    10     8     9   ar
    11     9    12    1
    12    12    13    1
    13    13    14   ar
    14    13    15   ar
    15     9    10   ar
    16    10    11   ar
    17     4     5    1
    18    19    20    1
    19    20    21   ar
    20    21    22   ar
    21    22    23   ar
    22    23    24   ar
    23    24    25   ar
    24    25    26   ar
    25    26    27   ar
    26    27    28   ar
    27    28    29   ar
    28     5     1    1
    29    29    20   ar
    30    11     6   ar
    31    29    24   ar
    32    16    17    1
@<TRIPOS>MOLECULE
*****
 29 32 0 0 0
SMALL
GASTEIGER

@<TRIPOS>ATOM
      1 C          -9.9583  -19.3467   20.2102 C.3     1  UNL1        0.0759
      2 C          -9.5635  -20.0413   18.9406 C.3     1  UNL1        0.0389
      3 C          -8.0654  -20.0961   18.8887 C.3     1  UNL1        0.0923
      4 N          -7.5343  -19.4354   20.1263 N.pl3   1  UNL1       -0.3061
      5 C          -8.7041  -18.9723   20.9429 C.3     1  UNL1        0.1065
      6 C          -6.0874  -19.2674   20.4842 C.ar    1  UNL1        0.0479
      7 C          -5.6769  -19.1743   21.9239 C.ar    1  UNL1        0.0142
      8 C          -4.2299  -19.0063   22.2819 C.ar    1  UNL1       -0.0026
      9 C          -3.1935  -18.9313   21.2001 C.ar    1  UNL1       -0.0165
     10 C          -3.6041  -19.0244   19.7604 C.ar    1  UNL1       -0.0026
     11 C          -5.0510  -19.1924   19.4024 C.ar    1  UNL1        0.0142
     12 C          -1.7465  -18.7633   21.5581 C.3     1  UNL1        0.0679
     13 C          -0.8255  -18.0261   20.6317 C.2     1  UNL1        0.0547
     14 O           0.1686  -18.7840   19.8026 O.co2   1  UNL1       -0.5488
     15 O          -0.8985  -16.5312   20.5344 O.co2   1  UNL1       -0.5488
     16 N         -11.3609  -19.0744   20.6668 N.3     1  UNL1       -0.2948
     17 H         -11.9042  -18.8521   19.8327 H       1  UNL1        0.1235
     18 C         -12.5992  -16.8890   21.3309 C.3     1  UNL1        0.0220
     19 C         -11.6275  -17.9830   21.6608 C.3     1  UNL1        0.0769
     20 C         -10.9224  -17.9858   22.9848 C.ar    1  UNL1       -0.0080
     21 C         -11.3668  -18.9219   24.0693 C.ar    1  UNL1       -0.0030
     22 C         -10.6617  -18.9246   25.3932 C.ar    1  UNL1       -0.0003
     23 C          -9.5122  -17.9913   25.6326 C.ar    1  UNL1       -0.0000
     24 C          -9.0677  -17.0551   24.5481 C.ar    1  UNL1       -0.0003
     25 C          -7.9181  -16.1218   24.7875 C.ar    1  UNL1       -0.0000
     26 C          -7.4736  -15.1858   23.7030 C.ar    1  UNL1       -0.0000
     27 C          -8.1788  -15.1830   22.3791 C.ar    1  UNL1       -0.0000
     28 C          -9.3283  -16.1163   22.1397 C.ar    1  UNL1       -0.0003
     29 C          -9.7728  -17.0524   23.2242 C.ar    1  UNL1       -0.0027
@<TRIPOS>UNITY_ATOM_ATTR
14 1
charge -1
@<TRIPOS>BOND
     1    19    18    1
     2    19    16    1
     3     1    16    1
     4     1     2    1
     5     2     3    1
     6     3     4    1
     7     4     6    1
     8     6     7   ar
     9     7     8   ar
    10     8     9   ar
    11     9    12    1
    12    12    13    1
    13    13    14   ar
    14    13    15   ar
    15     9    10   ar
    16    10    11   ar
    17     4     5    1
    18    19    20    1
    19    20    21   ar
    20    21    22   ar
    21    22    23   ar
    22    23    24   ar
    23    24    25   ar
    24    25    26   ar
    25    26    27   ar
    26    27    28   ar
    27    28    29   ar
    28     5     1    1
    29    29    20   ar
    30    11     6   ar
    31    29    24   ar
    32    16    17    1
@<TRIPOS>MOLECULE
*****
 29 32 0 0 0
SMALL
GASTEIGER

@<TRIPOS>ATOM
      1 C          -6.0122  -15.9787   23.9692 C.3     1  UNL1        0.0759
      2 C          -6.4949  -15.1488   25.1218 C.3     1  UNL1        0.0389
      3 C          -7.9757  -15.3509   25.2504 C.3     1  UNL1        0.0923
      4 N          -8.4082  -16.3056   24.1774 N.pl3   1  UNL1       -0.3061
      5 C          -7.1947  -16.6936   23.3856 C.3     1  UNL1        0.1065
      6 C          -9.8082  -16.7877   23.9382 C.ar    1  UNL1        0.0479
      7 C         -10.7492  -15.9728   23.1011 C.ar    1  UNL1        0.0142
      8 C         -12.1494  -16.4548   22.8619 C.ar    1  UNL1       -0.0026
      9 C         -12.6085  -17.7517   23.4596 C.ar    1  UNL1       -0.0165
     10 C         -11.6675  -18.5665   24.2967 C.ar    1  UNL1       -0.0026
     11 C         -10.2674  -18.0845   24.5359 C.ar    1  UNL1        0.0142
     12 C         -14.0087  -18.2337   23.2204 C.3     1  UNL1        0.0679
     13 C         -14.8892  -18.5868   24.3824 C.2     1  UNL1        0.0547
     14 O         -14.3442  -18.5361   25.7789 O.co2   1  UNL1       -0.5488
     15 O         -16.3145  -18.9906   24.1477 O.co2   1  UNL1       -0.5488
     16 N          -4.5958  -16.0764   23.4854 N.3     1  UNL1       -0.2948
     17 H          -4.5900  -15.7420   22.5218 H       1  UNL1        0.1235
     18 C          -3.1860  -17.8727   24.7247 C.3     1  UNL1        0.0220
     19 C          -3.8920  -17.4011   23.4882 C.3     1  UNL1        0.0769
     20 C          -3.8943  -18.2542   22.2544 C.ar    1  UNL1       -0.0080
     21 C          -4.9332  -19.3225   22.0831 C.ar    1  UNL1       -0.0030
     22 C          -4.9356  -20.1756   20.8493 C.ar    1  UNL1       -0.0003
     23 C          -3.8990  -19.9604   19.7868 C.ar    1  UNL1       -0.0000
     24 C          -2.8600  -18.8920   19.9579 C.ar    1  UNL1       -0.0003
     25 C          -1.8234  -18.6768   18.8954 C.ar    1  UNL1       -0.0000
     26 C          -0.7845  -17.6085   19.0666 C.ar    1  UNL1       -0.0000
     27 C          -0.7822  -16.7554   20.3004 C.ar    1  UNL1       -0.0000
     28 C          -1.8188  -16.9706   21.3629 C.ar    1  UNL1       -0.0003
     29 C          -2.8577  -18.0389   21.1917 C.ar    1  UNL1       -0.0027
@<TRIPOS>UNITY_ATOM_ATTR
14 1
charge -1
@<TRIPOS>BOND
     1    19    18    1
     2    19    16    1
     3     1    16    1
     4     1     2    1
     5     2     3    1
     6     3     4    1
     7     4     6    1
     8     6     7   ar
     9     7     8   ar
    10     8     9   ar
    11     9    12    1
    12    12    13    1
    13    13    14   ar
    14    13    15   ar
    15     9    10   ar
    16    10    11   ar
    17     4     5    1
    18    19    20    1
    19    20    21   ar
    20    21    22   ar
    21    22    23   ar
    22    23    24   ar
    23    24    25   ar
    24    25    26   ar
    25    26    27   ar
    26    27    28   ar
    27    28    29   ar
    28     5     1    1
    29    29    20   ar
    30    11     6   ar
    31    29    24   ar
    32    16    17    1
@<TRIPOS>MOLECULE
*****
 29 32 0 0 0
SMALL
GASTEIGER

@<TRIPOS>ATOM
      1 C          -9.5828  -17.7947   24.3456 C.3     1  UNL1        0.0759
      2 C          -9.0953  -16.3769   24.3935 C.3     1  UNL1        0.0389
      3 C          -7.7207  -16.3389   23.7941 C.3     1  UNL1        0.0923
      4 N          -7.3588  -17.7332   23.3758 N.pl3   1  UNL1       -0.3061
      5 C          -8.5096  -18.6329   23.7167 C.3     1  UNL1        0.1065
      6 C          -6.0720  -18.1538   22.7300 C.ar    1  UNL1        0.0479
      7 C          -4.7633  -17.6696   23.2804 C.ar    1  UNL1        0.0142
      8 C          -3.4764  -18.0902   22.6347 C.ar    1  UNL1       -0.0026
      9 C          -3.4982  -18.9950   21.4385 C.ar    1  UNL1       -0.0165
     10 C          -4.8069  -19.4792   20.8881 C.ar    1  UNL1       -0.0026
     11 C          -6.0938  -19.0586   21.5338 C.ar    1  UNL1        0.0142
     12 C          -2.2113  -19.4157   20.7927 C.3     1  UNL1        0.0679
     13 C          -1.4784  -18.4658   19.8924 C.2     1  UNL1        0.0547
     14 O          -2.2179  -17.3459   19.2224 O.co2   1  UNL1       -0.5488
     15 O          -0.0060  -18.6358   19.6621 O.co2   1  UNL1       -0.5488
     16 N         -10.9104  -18.2877   24.8400 N.3     1  UNL1       -0.2948
     17 H         -10.8074  -19.2877   25.0128 H       1  UNL1        0.1235
     18 C         -13.4822  -18.4965   24.5358 C.3     1  UNL1        0.0220
     19 C         -12.1362  -18.1187   23.9921 C.3     1  UNL1        0.0769
     20 C         -12.0160  -17.5720   22.6004 C.ar    1  UNL1       -0.0080
     21 C         -12.5281  -16.1972   22.2879 C.ar    1  UNL1       -0.0030
     22 C         -12.4079  -15.6505   20.8962 C.ar    1  UNL1       -0.0003
     23 C         -11.7756  -16.4786   19.8172 C.ar    1  UNL1       -0.0000
     24 C         -11.2635  -17.8535   20.1297 C.ar    1  UNL1       -0.0003
     25 C         -10.6313  -18.6815   19.0506 C.ar    1  UNL1       -0.0000
     26 C         -10.1192  -20.0563   19.3631 C.ar    1  UNL1       -0.0000
     27 C         -10.2394  -20.6030   20.7548 C.ar    1  UNL1       -0.0000
     28 C         -10.8717  -19.7749   21.8339 C.ar    1  UNL1       -0.0003
     29 C         -11.3837  -18.4002   21.5213 C.ar    1  UNL1       -0.0027
@<TRIPOS>UNITY_ATOM_ATTR
14 1
charge -1
@<TRIPOS>BOND
     1    19    18    1
     2    19    16    1
     3     1    16    1
     4     1     2    1
     5     2     3    1
     6     3     4    1
     7     4     6    1
     8     6     7   ar
     9     7     8   ar
    10     8     9   ar
    11     9    12    1
    12    12    13    1
    13    13    14   ar
    14    13    15   ar
    15     9    10   ar
    16    10    11   ar
    17     4     5    1
    18    19    20    1
    19    20    21   ar
    20    21    22   ar
    21    22    23   ar
    22    23    24   ar
    23    24    25   ar
    24    25    26   ar
    25    26    27   ar
    26    27    28   ar
    27    28    29   ar
    28     5     1    1
    29    29    20   ar
    30    11     6   ar
    31    29    24   ar
    32    16    17    1
@<TRIPOS>MOLECULE
*****
 29 32 0 0 0
SMALL
GASTEIGER

@<TRIPOS>ATOM
      1 C          -9.3221  -19.4626   21.4911 C.3     1  UNL1        0.0759
      2 C          -9.3313  -19.7516   20.0192 C.3     1  UNL1        0.0389
      3 C          -7.9128  -19.7220   19.5322 C.3     1  UNL1        0.0923
      4 N          -7.0270  -19.4147   20.7030 N.pl3   1  UNL1       -0.3061
      5 C          -7.8980  -19.2543   21.9137 C.3     1  UNL1        0.1065
      6 C          -5.5327  -19.2897   20.6691 C.ar    1  UNL1        0.0479
      7 C          -4.7335  -19.5052   21.9200 C.ar    1  UNL1        0.0142
      8 C          -3.2391  -19.3802   21.8862 C.ar    1  UNL1       -0.0026
      9 C          -2.5439  -19.0397   20.6014 C.ar    1  UNL1       -0.0165
     10 C          -3.3431  -18.8242   19.3504 C.ar    1  UNL1       -0.0026
     11 C          -4.8375  -18.9492   19.3843 C.ar    1  UNL1        0.0142
     12 C          -1.0494  -18.9147   20.5674 C.3     1  UNL1        0.0679
     13 C          -0.4115  -17.5586   20.5032 C.2     1  UNL1        0.0547
     14 O          -1.2056  -16.3384   20.8645 O.co2   1  UNL1       -0.5488
     15 O           1.0203  -17.4228   20.0776 O.co2   1  UNL1       -0.5488
     16 N         -10.5257  -19.3938   22.3837 N.3     1  UNL1       -0.2948
     17 H         -11.3301  -19.6562   21.8140 H       1  UNL1        0.1235
     18 C         -12.2685  -17.8944   23.5938 C.3     1  UNL1        0.0220
     19 C         -10.8803  -18.1062   23.0667 C.3     1  UNL1        0.0769
     20 C          -9.8466  -17.0305   23.2226 C.ar    1  UNL1       -0.0080
     21 C          -9.4474  -16.1971   22.0411 C.ar    1  UNL1       -0.0030
     22 C          -8.4137  -15.1214   22.1970 C.ar    1  UNL1       -0.0003
     23 C          -7.7793  -14.8790   23.5344 C.ar    1  UNL1       -0.0000
     24 C          -8.1785  -15.7124   24.7160 C.ar    1  UNL1       -0.0003
     25 C          -7.5441  -15.4701   26.0534 C.ar    1  UNL1       -0.0000
     26 C          -7.9434  -16.3034   27.2349 C.ar    1  UNL1       -0.0000
     27 C          -8.9770  -17.3792   27.0790 C.ar    1  UNL1       -0.0000
     28 C          -9.6115  -17.6215   25.7416 C.ar    1  UNL1       -0.0003
     29 C          -9.2122  -16.7882   24.5601 C.ar    1  UNL1       -0.0027
@<TRIPOS>UNITY_ATOM_ATTR
14 1
charge -1
@<TRIPOS>BOND
     1    19    18    1
     2    19    16    1
     3     1    16    1
     4     1     2    1
     5     2     3    1
     6     3     4    1
     7     4     6    1
     8     6     7   ar
     9     7     8   ar
    10     8     9   ar
    11     9    12    1
    12    12    13    1
    13    13    14   ar
    14    13    15   ar
    15     9    10   ar
    16    10    11   ar
    17     4     5    1
    18    19    20    1
    19    20    21   ar
    20    21    22   ar
    21    22    23   ar
    22    23    24   ar
    23    24    25   ar
    24    25    26   ar
    25    26    27   ar
    26    27    28   ar
    27    28    29   ar
    28     5     1    1
    29    29    20   ar
    30    11     6   ar
    31    29    24   ar
    32    16    17    1
@<TRIPOS>MOLECULE
*****
 29 32 0 0 0
SMALL
GASTEIGER

@<TRIPOS>ATOM
      1 C          -8.1849  -15.6662   24.4995 C.3     1  UNL1        0.0759
      2 C          -7.2198  -15.3513   25.6039 C.3     1  UNL1        0.0389
      3 C          -5.8763  -15.8924   25.2137 C.3     1  UNL1        0.0923
      4 N          -6.0110  -16.5416   23.8682 N.pl3   1  UNL1       -0.3061
      5 C          -7.4378  -16.4018   23.4269 C.3     1  UNL1        0.1065
      6 C          -4.9119  -17.2127   23.0992 C.ar    1  UNL1        0.0479
      7 C          -5.1648  -18.5271   22.4221 C.ar    1  UNL1        0.0142
      8 C          -4.0657  -19.1984   21.6530 C.ar    1  UNL1       -0.0026
      9 C          -2.7138  -18.5552   21.5611 C.ar    1  UNL1       -0.0165
     10 C          -2.4609  -17.2408   22.2382 C.ar    1  UNL1       -0.0026
     11 C          -3.5599  -16.5696   23.0072 C.ar    1  UNL1        0.0142
     12 C          -1.6146  -19.2264   20.7920 C.3     1  UNL1        0.0679
     13 C          -0.7896  -18.4370   19.8192 C.2     1  UNL1        0.0547
     14 O          -1.3445  -18.0976   18.4676 O.co2   1  UNL1       -0.5488
     15 O           0.5901  -17.9870   20.1981 O.co2   1  UNL1       -0.5488
     16 N          -9.6413  -15.3083   24.4726 N.3     1  UNL1       -0.2948
     17 H          -9.9677  -15.3296   25.4388 H       1  UNL1        0.1235
     18 C         -11.7247  -15.4745   22.9292 C.3     1  UNL1        0.0220
     19 C         -10.6025  -16.1365   23.6725 C.3     1  UNL1        0.0769
     20 C         -10.4415  -17.6267   23.6156 C.ar    1  UNL1       -0.0080
     21 C         -10.2764  -18.4122   24.8828 C.ar    1  UNL1       -0.0030
     22 C         -10.1154  -19.9024   24.8259 C.ar    1  UNL1       -0.0003
     23 C         -10.1194  -20.6072   23.5018 C.ar    1  UNL1       -0.0000
     24 C         -10.2844  -19.8218   22.2346 C.ar    1  UNL1       -0.0003
     25 C         -10.2884  -20.5266   20.9105 C.ar    1  UNL1       -0.0000
     26 C         -10.4534  -19.7412   19.6433 C.ar    1  UNL1       -0.0000
     27 C         -10.6145  -18.2509   19.7002 C.ar    1  UNL1       -0.0000
     28 C         -10.6105  -17.5461   21.0242 C.ar    1  UNL1       -0.0003
     29 C         -10.4455  -18.3316   22.2914 C.ar    1  UNL1       -0.0027
@<TRIPOS>UNITY_ATOM_ATTR
14 1
charge -1
@<TRIPOS>BOND
     1    19    18    1
     2    19    16    1
     3     1    16    1
     4     1     2    1
     5     2     3    1
     6     3     4    1
     7     4     6    1
     8     6     7   ar
     9     7     8   ar
    10     8     9   ar
    11     9    12    1
    12    12    13    1
    13    13    14   ar
    14    13    15   ar
    15     9    10   ar
    16    10    11   ar
    17     4     5    1
    18    19    20    1
    19    20    21   ar
    20    21    22   ar
    21    22    23   ar
    22    23    24   ar
    23    24    25   ar
    24    25    26   ar
    25    26    27   ar
    26    27    28   ar
    27    28    29   ar
    28     5     1    1
    29    29    20   ar
    30    11     6   ar
    31    29    24   ar
    32    16    17    1
@<TRIPOS>MOLECULE
*****
 29 32 0 0 0
SMALL
GASTEIGER

@<TRIPOS>ATOM
      1 C          -9.1884  -19.7650   22.4770 C.3     1  UNL1        0.0759
      2 C          -9.4891  -19.6514   21.0118 C.3     1  UNL1        0.0389
      3 C          -8.1902  -19.4639   20.2853 C.3     1  UNL1        0.0923
      4 N          -7.0868  -19.4617   21.3015 N.pl3   1  UNL1       -0.3061
      5 C          -7.7038  -19.6478   22.6560 C.3     1  UNL1        0.1065
      6 C          -5.6235  -19.3015   21.0136 C.ar    1  UNL1        0.0479
      7 C          -5.1557  -19.0847   19.6050 C.ar    1  UNL1        0.0142
      8 C          -3.6923  -18.9245   19.3170 C.ar    1  UNL1       -0.0026
      9 C          -2.6968  -18.9811   20.4376 C.ar    1  UNL1       -0.0165
     10 C          -3.1647  -19.1980   21.8462 C.ar    1  UNL1       -0.0026
     11 C          -4.6281  -19.3582   22.1342 C.ar    1  UNL1        0.0142
     12 C          -1.2334  -18.8210   20.1496 C.3     1  UNL1        0.0679
     13 C          -0.5587  -17.5055   20.4034 C.2     1  UNL1        0.0547
     14 O          -1.3412  -16.3584   20.9708 O.co2   1  UNL1       -0.5488
     15 O           0.8984  -17.3372   20.0897 O.co2   1  UNL1       -0.5488
     16 N         -10.1956  -19.9614   23.5711 N.3     1  UNL1       -0.2948
     17 H         -10.9950  -20.4377   23.1534 H       1  UNL1        0.1235
     18 C         -12.2157  -18.5247   24.3491 C.3     1  UNL1        0.0220
     19 C         -10.7374  -18.7758   24.3135 C.3     1  UNL1        0.0769
     20 C          -9.8007  -17.8414   25.0202 C.ar    1  UNL1       -0.0080
     21 C          -9.5957  -17.9630   26.5011 C.ar    1  UNL1       -0.0030
     22 C          -8.6590  -17.0286   27.2079 C.ar    1  UNL1       -0.0003
     23 C          -7.9273  -15.9726   26.4337 C.ar    1  UNL1       -0.0000
     24 C          -8.1322  -15.8510   24.9527 C.ar    1  UNL1       -0.0003
     25 C          -7.4005  -14.7950   24.1785 C.ar    1  UNL1       -0.0000
     26 C          -7.6055  -14.6734   22.6976 C.ar    1  UNL1       -0.0000
     27 C          -8.5422  -15.6078   21.9909 C.ar    1  UNL1       -0.0000
     28 C          -9.2739  -16.6638   22.7651 C.ar    1  UNL1       -0.0003
     29 C          -9.0689  -16.7854   24.2460 C.ar    1  UNL1       -0.0027
@<TRIPOS>UNITY_ATOM_ATTR
14 1
charge -1
@<TRIPOS>BOND
     1    19    18    1
     2    19    16    1
     3     1    16    1
     4     1     2    1
     5     2     3    1
     6     3     4    1
     7     4     6    1
     8     6     7   ar
     9     7     8   ar
    10     8     9   ar
    11     9    12    1
    12    12    13    1
    13    13    14   ar
    14    13    15   ar
    15     9    10   ar
    16    10    11   ar
    17     4     5    1
    18    19    20    1
    19    20    21   ar
    20    21    22   ar
    21    22    23   ar
    22    23    24   ar
    23    24    25   ar
    24    25    26   ar
    25    26    27   ar
    26    27    28   ar
    27    28    29   ar
    28     5     1    1
    29    29    20   ar
    30    11     6   ar
    31    29    24   ar
    32    16    17    1
@<TRIPOS>MOLECULE
*****
 29 32 0 0 0
SMALL
GASTEIGER

@<TRIPOS>ATOM
      1 C          -9.3869  -17.4740   24.5544 C.3     1  UNL1        0.0759
      2 C          -8.8981  -16.0575   24.4851 C.3     1  UNL1        0.0389
      3 C          -7.5463  -16.0649   23.8349 C.3     1  UNL1        0.0923
      4 N          -7.1996  -17.4859   23.5024 N.pl3   1  UNL1       -0.3061
      5 C          -8.3372  -18.3568   23.9470 C.3     1  UNL1        0.1065
      6 C          -5.9372  -17.9538   22.8413 C.ar    1  UNL1        0.0479
      7 C          -4.6129  -17.3998   23.2765 C.ar    1  UNL1        0.0142
      8 C          -3.3504  -17.8677   22.6154 C.ar    1  UNL1       -0.0026
      9 C          -3.4121  -18.8896   21.5192 C.ar    1  UNL1       -0.0165
     10 C          -4.7363  -19.4437   21.0840 C.ar    1  UNL1       -0.0026
     11 C          -5.9989  -18.9758   21.7450 C.ar    1  UNL1        0.0142
     12 C          -2.1495  -19.3576   20.8581 C.3     1  UNL1        0.0679
     13 C          -1.4323  -18.4618   19.8919 C.2     1  UNL1        0.0547
     14 O          -2.1899  -17.4035   19.1464 O.co2   1  UNL1       -0.5488
     15 O           0.0423  -18.6245   19.6713 O.co2   1  UNL1       -0.5488
     16 N         -10.6955  -17.9280   25.1300 N.3     1  UNL1       -0.2948
     17 H         -10.4810  -18.6572   25.8100 H       1  UNL1        0.1235
     18 C         -13.1621  -18.6440   24.7382 C.3     1  UNL1        0.0220
     19 C         -11.7614  -18.4767   24.2283 C.3     1  UNL1        0.0769
     20 C         -11.4265  -18.8581   22.8168 C.ar    1  UNL1       -0.0080
     21 C         -10.9645  -20.2508   22.5057 C.ar    1  UNL1       -0.0030
     22 C         -10.6296  -20.6322   21.0942 C.ar    1  UNL1       -0.0003
     23 C         -10.7566  -19.6209   19.9938 C.ar    1  UNL1       -0.0000
     24 C         -11.2186  -18.2281   20.3048 C.ar    1  UNL1       -0.0003
     25 C         -11.3457  -17.2167   19.2044 C.ar    1  UNL1       -0.0000
     26 C         -11.8076  -15.8240   19.5155 C.ar    1  UNL1       -0.0000
     27 C         -12.1426  -15.4426   20.9270 C.ar    1  UNL1       -0.0000
     28 C         -12.0155  -16.4539   22.0274 C.ar    1  UNL1       -0.0003
     29 C         -11.5535  -17.8467   21.7163 C.ar    1  UNL1       -0.0027
@<TRIPOS>UNITY_ATOM_ATTR
14 1
charge -1
@<TRIPOS>BOND
     1    19    18    1
     2    19    16    1
     3     1    16    1
     4     1     2    1
     5     2     3    1
     6     3     4    1
     7     4     6    1
     8     6     7   ar
     9     7     8   ar
    10     8     9   ar
    11     9    12    1
    12    12    13    1
    13    13    14   ar
    14    13    15   ar
    15     9    10   ar
    16    10    11   ar
    17     4     5    1
    18    19    20    1
    19    20    21   ar
    20    21    22   ar
    21    22    23   ar
    22    23    24   ar
    23    24    25   ar
    24    25    26   ar
    25    26    27   ar
    26    27    28   ar
    27    28    29   ar
    28     5     1    1
    29    29    20   ar
    30    11     6   ar
    31    29    24   ar
    32    16    17    1
