@<TRIPOS>MOLECULE
*****
 34 38 0 0 0
SMALL
GASTEIGER

@<TRIPOS>ATOM
      1 O         -18.3994   -3.0540   19.4912 O.2     1  UNL1       -0.2526
      2 C         -16.9647   -3.3692   19.1876 C.2     1  UNL1        0.3044
      3 N         -16.4119   -4.7218   18.8489 N.am    1  UNL1       -0.2833
      4 C         -14.9364   -4.5758   18.6214 C.3     1  UNL1        0.1144
      5 C         -14.5774   -3.1330   18.8196 C.3     1  UNL1        0.1212
      6 N         -15.8310   -2.3873   19.1695 N.am    1  UNL1       -0.2634
      7 H         -16.9270   -5.5585   18.7867 H       1  UNL1        0.1515
      8 C         -13.4720   -4.7386   18.3401 C.ar    1  UNL1       -0.0007
      9 C         -12.8815   -4.1688   17.0845 C.ar    1  UNL1       -0.0001
     10 C         -11.4172   -4.3315   16.8034 C.ar    1  UNL1        0.0294
     11 C         -10.5433   -5.0642   17.7778 C.ar    1  UNL1        0.1401
     12 F          -9.0788   -5.2270   17.4966 F       1  UNL1       -0.2042
     13 C         -11.1337   -5.6340   19.0334 C.ar    1  UNL1        0.0294
     14 C         -12.5981   -5.4712   19.3146 C.ar    1  UNL1       -0.0001
     15 C         -14.9893   -6.0527   18.3644 C.ar    1  UNL1       -0.0007
     16 C         -14.5832   -6.5961   17.0266 C.ar    1  UNL1       -0.0001
     17 C         -14.6360   -8.0731   16.7695 C.ar    1  UNL1        0.0294
     18 C         -15.0949   -9.0065   17.8503 C.ar    1  UNL1        0.1401
     19 F         -15.1477  -10.4833   17.5933 F       1  UNL1       -0.2042
     20 C         -15.5010   -8.4631   19.1881 C.ar    1  UNL1        0.0294
     21 C         -15.4482   -6.9861   19.4452 C.ar    1  UNL1       -0.0001
     22 C         -15.9329   -0.9176   19.4519 C.3     1  UNL1        0.0797
     23 C         -17.0138   -0.4005   20.3543 C.3     1  UNL1        0.0372
     24 C         -17.1158    1.0692   20.6366 C.3     1  UNL1        0.0741
     25 N         -16.1368    2.0218   20.0165 N.3     1  UNL1       -0.2689
     26 C         -15.0560    1.5046   19.1142 C.3     1  UNL1        0.0741
     27 C         -14.9540    0.0349   18.8319 C.3     1  UNL1        0.0372
     28 C         -16.2388    3.4913   20.2989 C.3     1  UNL1        0.0991
     29 C         -15.8667    4.0229   21.6513 C.ar    1  UNL1       -0.0061
     30 C         -16.7934    3.8283   22.8145 C.ar    1  UNL1       -0.0029
     31 C         -16.4213    4.3598   24.1669 C.ar    1  UNL1       -0.0003
     32 C         -15.1225    5.0860   24.3560 C.ar    1  UNL1       -0.0000
     33 C         -14.1958    5.2807   23.1927 C.ar    1  UNL1       -0.0003
     34 C         -14.5679    4.7491   21.8403 C.ar    1  UNL1       -0.0029
@<TRIPOS>BOND
     1     1     2    2
     2     2     3   am
     3     3     4    1
     4     4     8    1
     5     8     9   ar
     6     9    10   ar
     7    10    11   ar
     8    11    12    1
     9    11    13   ar
    10    13    14   ar
    11     4    15    1
    12    15    16   ar
    13    16    17   ar
    14    17    18   ar
    15    18    19    1
    16    18    20   ar
    17    20    21   ar
    18     4     5    1
    19     5     6    1
    20     6    22    1
    21    22    23    1
    22    23    24    1
    23    24    25    1
    24    25    28    1
    25    28    29    1
    26    29    30   ar
    27    30    31   ar
    28    31    32   ar
    29    32    33   ar
    30    33    34   ar
    31    25    26    1
    32    26    27    1
    33     6     2   am
    34    27    22    1
    35    14     8   ar
    36    21    15   ar
    37    34    29   ar
    38     3     7    1
@<TRIPOS>MOLECULE
*****
 34 38 0 0 0
SMALL
GASTEIGER

@<TRIPOS>ATOM
      1 O          -1.2308    3.6903   17.0654 O.2     1  UNL1       -0.2526
      2 C          -1.7413    3.6746   18.4758 C.2     1  UNL1        0.3044
      3 N          -3.0496    4.2376   18.9462 N.am    1  UNL1       -0.2833
      4 C          -3.1499    4.0041   20.4245 C.3     1  UNL1        0.1144
      5 C          -1.9036    3.2968   20.8677 C.3     1  UNL1        0.1212
      6 N          -1.0330    3.0932   19.6633 N.am    1  UNL1       -0.2634
      7 H          -3.7240    4.6822   18.3834 H       1  UNL1        0.1515
      8 C          -3.5273    3.9146   21.8735 C.ar    1  UNL1       -0.0007
      9 C          -4.6716    3.0426   22.2980 C.ar    1  UNL1       -0.0001
     10 C          -5.0490    2.9531   23.7469 C.ar    1  UNL1        0.0294
     11 C          -4.2821    3.7356   24.7714 C.ar    1  UNL1        0.1401
     12 F          -4.6595    3.6461   26.2204 F       1  UNL1       -0.2042
     13 C          -3.1378    4.6076   24.3469 C.ar    1  UNL1        0.0294
     14 C          -2.7604    4.6970   22.8980 C.ar    1  UNL1       -0.0001
     15 C          -4.4751    4.6926   20.2842 C.ar    1  UNL1       -0.0007
     16 C          -5.6151    3.9939   19.6044 C.ar    1  UNL1       -0.0001
     17 C          -6.9404    4.6824   19.4641 C.ar    1  UNL1        0.0294
     18 C          -7.1257    6.0697   20.0036 C.ar    1  UNL1        0.1401
     19 F          -8.4508    6.7582   19.8633 F       1  UNL1       -0.2042
     20 C          -5.9857    6.7685   20.6834 C.ar    1  UNL1        0.0294
     21 C          -4.6604    6.0800   20.8237 C.ar    1  UNL1       -0.0001
     22 C           0.3101    2.4254   19.6490 C.3     1  UNL1        0.0797
     23 C           0.7765    1.7053   18.4185 C.3     1  UNL1        0.0372
     24 C           2.1196    1.0375   18.4042 C.3     1  UNL1        0.0741
     25 N           2.9963    1.0897   19.6203 N.3     1  UNL1       -0.2689
     26 C           2.5298    1.8098   20.8507 C.3     1  UNL1        0.0741
     27 C           1.1867    2.4776   20.8650 C.3     1  UNL1        0.0372
     28 C           4.3392    0.4219   19.6059 C.3     1  UNL1        0.0991
     29 C           4.4431   -1.0478   19.3246 C.ar    1  UNL1       -0.0061
     30 C           5.5580   -1.5704   18.4680 C.ar    1  UNL1       -0.0029
     31 C           5.6619   -3.0401   18.1867 C.ar    1  UNL1       -0.0003
     32 C           4.6510   -3.9872   18.7621 C.ar    1  UNL1       -0.0000
     33 C           3.5361   -3.4646   19.6187 C.ar    1  UNL1       -0.0003
     34 C           3.4322   -1.9948   19.9000 C.ar    1  UNL1       -0.0029
@<TRIPOS>BOND
     1     1     2    2
     2     2     3   am
     3     3     4    1
     4     4     8    1
     5     8     9   ar
     6     9    10   ar
     7    10    11   ar
     8    11    12    1
     9    11    13   ar
    10    13    14   ar
    11     4    15    1
    12    15    16   ar
    13    16    17   ar
    14    17    18   ar
    15    18    19    1
    16    18    20   ar
    17    20    21   ar
    18     4     5    1
    19     5     6    1
    20     6    22    1
    21    22    23    1
    22    23    24    1
    23    24    25    1
    24    25    28    1
    25    28    29    1
    26    29    30   ar
    27    30    31   ar
    28    31    32   ar
    29    32    33   ar
    30    33    34   ar
    31    25    26    1
    32    26    27    1
    33     6     2   am
    34    27    22    1
    35    14     8   ar
    36    21    15   ar
    37    34    29   ar
    38     3     7    1
@<TRIPOS>MOLECULE
*****
 34 38 0 0 0
SMALL
GASTEIGER

@<TRIPOS>ATOM
      1 O           0.4887    2.3105   23.4859 O.2     1  UNL1       -0.2526
      2 C          -0.5828    2.6888   22.5068 C.2     1  UNL1        0.3044
      3 N          -1.8207    3.4776   22.8156 N.am    1  UNL1       -0.2833
      4 C          -2.6074    3.6210   21.5465 C.3     1  UNL1        0.1144
      5 C          -1.8557    2.9209   20.4535 C.3     1  UNL1        0.1212
      6 N          -0.6044    2.3448   21.0470 N.am    1  UNL1       -0.2634
      7 H          -2.0726    3.8378   23.6965 H       1  UNL1        0.1515
      8 C          -3.5945    3.9241   20.4585 C.ar    1  UNL1       -0.0007
      9 C          -4.9225    3.2271   20.4350 C.ar    1  UNL1       -0.0001
     10 C          -5.9095    3.5302   19.3470 C.ar    1  UNL1        0.0294
     11 C          -5.5685    4.5304   18.2824 C.ar    1  UNL1        0.1401
     12 F          -6.5556    4.8335   17.1943 F       1  UNL1       -0.2042
     13 C          -4.2406    5.2274   18.3058 C.ar    1  UNL1        0.0294
     14 C          -3.2536    4.9243   19.3938 C.ar    1  UNL1       -0.0001
     15 C          -3.5655    4.3845   22.4121 C.ar    1  UNL1       -0.0007
     16 C          -3.6454    5.8785   22.3055 C.ar    1  UNL1       -0.0001
     17 C          -4.6035    6.6421   23.1711 C.ar    1  UNL1        0.0294
     18 C          -5.4817    5.9115   24.1433 C.ar    1  UNL1        0.1401
     19 F          -6.4397    6.6750   25.0088 F       1  UNL1       -0.2042
     20 C          -5.4017    4.4174   24.2499 C.ar    1  UNL1        0.0294
     21 C          -4.4436    3.6539   23.3843 C.ar    1  UNL1       -0.0001
     22 C           0.4416    1.5621   20.3100 C.3     1  UNL1        0.0797
     23 C           1.3501    2.2544   19.3376 C.3     1  UNL1        0.0372
     24 C           2.3961    1.4717   18.6006 C.3     1  UNL1        0.0741
     25 N           2.5338   -0.0034   18.8360 N.3     1  UNL1       -0.2689
     26 C           1.6253   -0.6957   19.8083 C.3     1  UNL1        0.0741
     27 C           0.5793    0.0871   20.5453 C.3     1  UNL1        0.0372
     28 C           3.5798   -0.7860   18.0990 C.3     1  UNL1        0.0991
     29 C           4.3881   -1.8230   18.8209 C.ar    1  UNL1       -0.0061
     30 C           5.6098   -1.4188   19.5916 C.ar    1  UNL1       -0.0029
     31 C           6.4182   -2.4558   20.3136 C.ar    1  UNL1       -0.0003
     32 C           6.0049   -3.8969   20.2648 C.ar    1  UNL1       -0.0000
     33 C           4.7832   -4.3011   19.4942 C.ar    1  UNL1       -0.0003
     34 C           3.9748   -3.2641   18.7722 C.ar    1  UNL1       -0.0029
@<TRIPOS>BOND
     1     1     2    2
     2     2     3   am
     3     3     4    1
     4     4     8    1
     5     8     9   ar
     6     9    10   ar
     7    10    11   ar
     8    11    12    1
     9    11    13   ar
    10    13    14   ar
    11     4    15    1
    12    15    16   ar
    13    16    17   ar
    14    17    18   ar
    15    18    19    1
    16    18    20   ar
    17    20    21   ar
    18     4     5    1
    19     5     6    1
    20     6    22    1
    21    22    23    1
    22    23    24    1
    23    24    25    1
    24    25    28    1
    25    28    29    1
    26    29    30   ar
    27    30    31   ar
    28    31    32   ar
    29    32    33   ar
    30    33    34   ar
    31    25    26    1
    32    26    27    1
    33     6     2   am
    34    27    22    1
    35    14     8   ar
    36    21    15   ar
    37    34    29   ar
    38     3     7    1
@<TRIPOS>MOLECULE
*****
 34 38 0 0 0
SMALL
GASTEIGER

@<TRIPOS>ATOM
      1 O           5.9141    1.7888   32.0001 O.2     1  UNL1       -0.2526
      2 C           5.0743    1.8295   33.2423 C.2     1  UNL1        0.3044
      3 N           5.5562    2.1690   34.6216 N.am    1  UNL1       -0.2833
      4 C           4.3849    2.0872   35.5550 C.3     1  UNL1        0.1144
      5 C           3.1791    1.6971   34.7526 C.3     1  UNL1        0.1212
      6 N           3.6052    1.5378   33.3232 N.am    1  UNL1       -0.2634
      7 H           6.4792    2.4043   34.8705 H       1  UNL1        0.1515
      8 C           3.4236    2.0869   36.7066 C.ar    1  UNL1       -0.0007
      9 C           3.4427    0.9625   37.6991 C.ar    1  UNL1       -0.0001
     10 C           2.4815    0.9622   38.8506 C.ar    1  UNL1        0.0294
     11 C           1.5012    2.0864   39.0096 C.ar    1  UNL1        0.1401
     12 F           0.5399    2.0861   40.1612 F       1  UNL1       -0.2042
     13 C           1.4821    3.2108   38.0170 C.ar    1  UNL1        0.0294
     14 C           2.4433    3.2111   36.8655 C.ar    1  UNL1       -0.0001
     15 C           5.3897    2.4772   36.5981 C.ar    1  UNL1       -0.0007
     16 C           5.3942    3.8717   37.1508 C.ar    1  UNL1       -0.0001
     17 C           6.3990    4.2618   38.1940 C.ar    1  UNL1        0.0294
     18 C           7.3994    3.2574   38.6845 C.ar    1  UNL1        0.1401
     19 F           8.4041    3.6476   39.7276 F       1  UNL1       -0.2042
     20 C           7.3949    1.8630   38.1319 C.ar    1  UNL1        0.0294
     21 C           6.3900    1.4728   37.0887 C.ar    1  UNL1       -0.0001
     22 C           2.7179    1.1542   32.1762 C.3     1  UNL1        0.0797
     23 C           1.5366    2.0087   31.8235 C.3     1  UNL1        0.0372
     24 C           0.6494    1.6251   30.6765 C.3     1  UNL1        0.0741
     25 N           0.9434    0.3870   29.8822 N.3     1  UNL1       -0.2689
     26 C           2.1247   -0.4674   30.2350 C.3     1  UNL1        0.0741
     27 C           3.0119   -0.0838   31.3820 C.3     1  UNL1        0.0372
     28 C           0.0561    0.0035   28.7352 C.3     1  UNL1        0.0991
     29 C          -0.1572    0.9599   27.5995 C.ar    1  UNL1       -0.0061
     30 C           0.8130    0.9947   26.4562 C.ar    1  UNL1       -0.0029
     31 C           0.5997    1.9511   25.3205 C.ar    1  UNL1       -0.0003
     32 C          -0.5839    2.8726   25.3282 C.ar    1  UNL1       -0.0000
     33 C          -1.5542    2.8377   26.4715 C.ar    1  UNL1       -0.0003
     34 C          -1.3408    1.8813   27.6072 C.ar    1  UNL1       -0.0029
@<TRIPOS>BOND
     1     1     2    2
     2     2     3   am
     3     3     4    1
     4     4     8    1
     5     8     9   ar
     6     9    10   ar
     7    10    11   ar
     8    11    12    1
     9    11    13   ar
    10    13    14   ar
    11     4    15    1
    12    15    16   ar
    13    16    17   ar
    14    17    18   ar
    15    18    19    1
    16    18    20   ar
    17    20    21   ar
    18     4     5    1
    19     5     6    1
    20     6    22    1
    21    22    23    1
    22    23    24    1
    23    24    25    1
    24    25    28    1
    25    28    29    1
    26    29    30   ar
    27    30    31   ar
    28    31    32   ar
    29    32    33   ar
    30    33    34   ar
    31    25    26    1
    32    26    27    1
    33     6     2   am
    34    27    22    1
    35    14     8   ar
    36    21    15   ar
    37    34    29   ar
    38     3     7    1
@<TRIPOS>MOLECULE
*****
 34 38 0 0 0
SMALL
GASTEIGER

@<TRIPOS>ATOM
      1 O           4.3412    4.6517   32.7662 O.2     1  UNL1       -0.2526
      2 C           3.7464    3.9909   33.9743 C.2     1  UNL1        0.3044
      3 N           3.9905    4.3802   35.4021 N.am    1  UNL1       -0.2833
      4 C           3.1980    3.4547   36.2770 C.3     1  UNL1        0.1144
      5 C           2.4641    2.4933   35.3898 C.3     1  UNL1        0.1212
      6 N           2.8030    2.8248   33.9666 N.am    1  UNL1       -0.2634
      7 H           4.5693    5.1143   35.7109 H       1  UNL1        0.1515
      8 C           2.5297    2.6970   37.3858 C.ar    1  UNL1       -0.0007
      9 C           3.0468    1.3484   37.7904 C.ar    1  UNL1       -0.0001
     10 C           2.3785    0.5907   38.8992 C.ar    1  UNL1        0.0294
     11 C           1.1932    1.1818   39.6033 C.ar    1  UNL1        0.1401
     12 F           0.5249    0.4241   40.7121 F       1  UNL1       -0.2042
     13 C           0.6761    2.5304   39.1986 C.ar    1  UNL1        0.0294
     14 C           1.3444    3.2880   38.0898 C.ar    1  UNL1       -0.0001
     15 C           3.7922    4.2576   37.3960 C.ar    1  UNL1       -0.0007
     16 C           3.3053    5.6517   37.6595 C.ar    1  UNL1       -0.0001
     17 C           3.8996    6.4547   38.7786 C.ar    1  UNL1        0.0294
     18 C           4.9807    5.8635   39.6340 C.ar    1  UNL1        0.1401
     19 F           5.5748    6.6665   40.7530 F       1  UNL1       -0.2042
     20 C           5.4676    4.4695   39.3705 C.ar    1  UNL1        0.0294
     21 C           4.8734    3.6665   38.2514 C.ar    1  UNL1       -0.0001
     22 C           2.2888    2.1147   32.7495 C.3     1  UNL1        0.0797
     23 C           1.0674    2.6248   32.0437 C.3     1  UNL1        0.0372
     24 C           0.5532    1.9147   30.8266 C.3     1  UNL1        0.0741
     25 N           1.2603    0.6945   30.3152 N.3     1  UNL1       -0.2689
     26 C           2.4816    0.1845   31.0211 C.3     1  UNL1        0.0741
     27 C           2.9958    0.8946   32.2382 C.3     1  UNL1        0.0372
     28 C           0.7460   -0.0155   29.0982 C.3     1  UNL1        0.0991
     29 C           0.6511    0.7117   27.7896 C.ar    1  UNL1       -0.0061
     30 C          -0.6691    1.2519   27.3260 C.ar    1  UNL1       -0.0029
     31 C          -0.7640    1.9791   26.0174 C.ar    1  UNL1       -0.0003
     32 C           0.4613    2.1660   25.1727 C.ar    1  UNL1       -0.0000
     33 C           1.7816    1.6258   25.6364 C.ar    1  UNL1       -0.0003
     34 C           1.8765    0.8986   26.9449 C.ar    1  UNL1       -0.0029
@<TRIPOS>BOND
     1     1     2    2
     2     2     3   am
     3     3     4    1
     4     4     8    1
     5     8     9   ar
     6     9    10   ar
     7    10    11   ar
     8    11    12    1
     9    11    13   ar
    10    13    14   ar
    11     4    15    1
    12    15    16   ar
    13    16    17   ar
    14    17    18   ar
    15    18    19    1
    16    18    20   ar
    17    20    21   ar
    18     4     5    1
    19     5     6    1
    20     6    22    1
    21    22    23    1
    22    23    24    1
    23    24    25    1
    24    25    28    1
    25    28    29    1
    26    29    30   ar
    27    30    31   ar
    28    31    32   ar
    29    32    33   ar
    30    33    34   ar
    31    25    26    1
    32    26    27    1
    33     6     2   am
    34    27    22    1
    35    14     8   ar
    36    21    15   ar
    37    34    29   ar
    38     3     7    1
@<TRIPOS>MOLECULE
*****
 34 38 0 0 0
SMALL
GASTEIGER

@<TRIPOS>ATOM
      1 O          -1.8845    3.8633   20.7499 O.2     1  UNL1       -0.2526
      2 C          -1.3499    3.5131   22.1069 C.2     1  UNL1        0.3044
      3 N          -1.9013    3.9835   23.4201 N.am    1  UNL1       -0.2833
      4 C          -1.0622    3.3920   24.5137 C.3     1  UNL1        0.1144
      5 C           0.0079    2.5561   23.8764 C.3     1  UNL1        0.1212
      6 N          -0.1700    2.6309   22.3888 N.am    1  UNL1       -0.2634
      7 H          -2.6777    4.5763   23.5427 H       1  UNL1        0.1515
      8 C          -0.4186    2.9563   25.7968 C.ar    1  UNL1       -0.0007
      9 C           0.7703    3.6996   26.3297 C.ar    1  UNL1       -0.0001
     10 C           1.4138    3.2638   27.6127 C.ar    1  UNL1        0.0294
     11 C           0.8684    2.0848   28.3626 C.ar    1  UNL1        0.1401
     12 F           1.5119    1.6491   29.6457 F       1  UNL1       -0.2042
     13 C          -0.3205    1.3416   27.8297 C.ar    1  UNL1        0.0294
     14 C          -0.9640    1.7773   26.5467 C.ar    1  UNL1       -0.0001
     15 C          -1.9976    4.1369   25.4193 C.ar    1  UNL1       -0.0007
     16 C          -3.3633    3.5858   25.7041 C.ar    1  UNL1       -0.0001
     17 C          -4.2989    4.3306   26.6097 C.ar    1  UNL1        0.0294
     18 C          -3.8687    5.6266   27.2305 C.ar    1  UNL1        0.1401
     19 F          -4.8042    6.3713   28.1361 F       1  UNL1       -0.2042
     20 C          -2.5030    6.1777   26.9458 C.ar    1  UNL1        0.0294
     21 C          -1.5674    5.4329   26.0401 C.ar    1  UNL1       -0.0001
     22 C           0.6825    1.9441   21.3633 C.3     1  UNL1        0.0797
     23 C           2.1589    2.2052   21.3189 C.3     1  UNL1        0.0372
     24 C           3.0114    1.5184   20.2934 C.3     1  UNL1        0.0741
     25 N           2.3874    0.5705   19.3123 N.3     1  UNL1       -0.2689
     26 C           0.9110    0.3095   19.3569 C.3     1  UNL1        0.0741
     27 C           0.0585    0.9963   20.3824 C.3     1  UNL1        0.0372
     28 C           3.2399   -0.1162   18.2869 C.3     1  UNL1        0.0991
     29 C           3.8750   -1.4378   18.6028 C.ar    1  UNL1       -0.0061
     30 C           3.2390   -2.3551   19.6048 C.ar    1  UNL1       -0.0029
     31 C           3.8741   -3.6767   19.9208 C.ar    1  UNL1       -0.0003
     32 C           5.1453   -4.0811   19.2348 C.ar    1  UNL1       -0.0000
     33 C           5.7814   -3.1638   18.2328 C.ar    1  UNL1       -0.0003
     34 C           5.1462   -1.8422   17.9168 C.ar    1  UNL1       -0.0029
@<TRIPOS>BOND
     1     1     2    2
     2     2     3   am
     3     3     4    1
     4     4     8    1
     5     8     9   ar
     6     9    10   ar
     7    10    11   ar
     8    11    12    1
     9    11    13   ar
    10    13    14   ar
    11     4    15    1
    12    15    16   ar
    13    16    17   ar
    14    17    18   ar
    15    18    19    1
    16    18    20   ar
    17    20    21   ar
    18     4     5    1
    19     5     6    1
    20     6    22    1
    21    22    23    1
    22    23    24    1
    23    24    25    1
    24    25    28    1
    25    28    29    1
    26    29    30   ar
    27    30    31   ar
    28    31    32   ar
    29    32    33   ar
    30    33    34   ar
    31    25    26    1
    32    26    27    1
    33     6     2   am
    34    27    22    1
    35    14     8   ar
    36    21    15   ar
    37    34    29   ar
    38     3     7    1
@<TRIPOS>MOLECULE
*****
 34 38 0 0 0
SMALL
GASTEIGER

@<TRIPOS>ATOM
      1 O          -0.2107   -0.5347   20.8559 O.2     1  UNL1       -0.2526
      2 C           1.0366   -0.0965   20.1472 C.2     1  UNL1        0.3044
      3 N           2.3227   -0.8645   20.0699 N.am    1  UNL1       -0.2833
      4 C           3.2977   -0.0560   19.2663 C.3     1  UNL1        0.1144
      5 C           2.6142    1.2117   18.8471 C.3     1  UNL1        0.1212
      6 N           1.2167    1.1867   19.3916 N.am    1  UNL1       -0.2634
      7 H           2.4964   -1.7446   20.4753 H       1  UNL1        0.1515
      8 C           4.4668    0.5123   18.5177 C.ar    1  UNL1       -0.0007
      9 C           5.1945    1.7073   19.0584 C.ar    1  UNL1       -0.0001
     10 C           6.3635    2.2756   18.3098 C.ar    1  UNL1        0.0294
     11 C           6.8048    1.6488   17.0205 C.ar    1  UNL1        0.1401
     12 F           7.9739    2.2171   16.2718 F       1  UNL1       -0.2042
     13 C           6.0771    0.4538   16.4797 C.ar    1  UNL1        0.0294
     14 C           4.9081   -0.1144   17.2283 C.ar    1  UNL1       -0.0001
     15 C           4.2257   -1.2048   19.5290 C.ar    1  UNL1       -0.0007
     16 C           5.3879   -1.0320   20.4614 C.ar    1  UNL1       -0.0001
     17 C           6.3160   -2.1809   20.7241 C.ar    1  UNL1        0.0294
     18 C           6.0817   -3.5026   20.0544 C.ar    1  UNL1        0.1401
     19 F           7.0096   -4.6513   20.3172 F       1  UNL1       -0.2042
     20 C           4.9194   -3.6753   19.1221 C.ar    1  UNL1        0.0294
     21 C           3.9914   -2.5265   18.8594 C.ar    1  UNL1       -0.0001
     22 C           0.1812    2.2569   19.2119 C.3     1  UNL1        0.0797
     23 C          -0.0007    2.9072   17.8724 C.3     1  UNL1        0.0372
     24 C          -1.0362    3.9774   17.6927 C.3     1  UNL1        0.0741
     25 N          -1.8899    4.3974   18.8524 N.3     1  UNL1       -0.2689
     26 C          -1.7080    3.7471   20.1918 C.3     1  UNL1        0.0741
     27 C          -0.6725    2.6768   20.3715 C.3     1  UNL1        0.0372
     28 C          -2.9254    5.4675   18.6727 C.3     1  UNL1        0.0991
     29 C          -4.3826    5.1248   18.7678 C.ar    1  UNL1       -0.0061
     30 C          -5.3792    6.1829   19.1383 C.ar    1  UNL1       -0.0029
     31 C          -6.8364    5.8402   19.2334 C.ar    1  UNL1       -0.0003
     32 C          -7.2970    4.4395   18.9579 C.ar    1  UNL1       -0.0000
     33 C          -6.3004    3.3814   18.5874 C.ar    1  UNL1       -0.0003
     34 C          -4.8432    3.7241   18.4923 C.ar    1  UNL1       -0.0029
@<TRIPOS>BOND
     1     1     2    2
     2     2     3   am
     3     3     4    1
     4     4     8    1
     5     8     9   ar
     6     9    10   ar
     7    10    11   ar
     8    11    12    1
     9    11    13   ar
    10    13    14   ar
    11     4    15    1
    12    15    16   ar
    13    16    17   ar
    14    17    18   ar
    15    18    19    1
    16    18    20   ar
    17    20    21   ar
    18     4     5    1
    19     5     6    1
    20     6    22    1
    21    22    23    1
    22    23    24    1
    23    24    25    1
    24    25    28    1
    25    28    29    1
    26    29    30   ar
    27    30    31   ar
    28    31    32   ar
    29    32    33   ar
    30    33    34   ar
    31    25    26    1
    32    26    27    1
    33     6     2   am
    34    27    22    1
    35    14     8   ar
    36    21    15   ar
    37    34    29   ar
    38     3     7    1
@<TRIPOS>MOLECULE
*****
 34 38 0 0 0
SMALL
GASTEIGER

@<TRIPOS>ATOM
      1 O          -0.4152    1.4150   20.7864 O.2     1  UNL1       -0.2526
      2 C           0.7876    0.8871   21.5107 C.2     1  UNL1        0.3044
      3 N           1.8803    0.0514   20.9129 N.am    1  UNL1       -0.2833
      4 C           2.8768   -0.2500   21.9927 C.3     1  UNL1        0.1144
      5 C           2.3999    0.3994   23.2580 C.3     1  UNL1        0.1212
      6 N           1.1086    1.1022   22.9601 N.am    1  UNL1       -0.2634
      7 H           1.9341   -0.2469   19.9762 H       1  UNL1        0.1515
      8 C           4.0232   -0.7072   22.8453 C.ar    1  UNL1       -0.0007
      9 C           4.1511   -2.1549   23.2166 C.ar    1  UNL1       -0.0001
     10 C           5.2974   -2.6120   24.0691 C.ar    1  UNL1        0.0294
     11 C           6.3158   -1.6215   24.5505 C.ar    1  UNL1        0.1401
     12 F           7.4622   -2.0787   25.4031 F       1  UNL1       -0.2042
     13 C           6.1879   -0.1738   24.1792 C.ar    1  UNL1        0.0294
     14 C           5.0416    0.2833   23.3267 C.ar    1  UNL1       -0.0001
     15 C           3.5934   -0.9950   20.9057 C.ar    1  UNL1       -0.0007
     16 C           4.9159   -0.4979   20.4020 C.ar    1  UNL1       -0.0001
     17 C           5.6325   -1.2429   19.3149 C.ar    1  UNL1        0.0294
     18 C           5.0266   -2.4850   18.7317 C.ar    1  UNL1        0.1401
     19 F           5.7432   -3.2299   17.6448 F       1  UNL1       -0.2042
     20 C           3.7041   -2.9821   19.2355 C.ar    1  UNL1        0.0294
     21 C           2.9874   -2.2371   20.3226 C.ar    1  UNL1       -0.0001
     22 C           0.2834    1.8829   23.9395 C.3     1  UNL1        0.0797
     23 C          -0.0612    1.2873   25.2724 C.3     1  UNL1        0.0372
     24 C          -0.8864    2.0681   26.2519 C.3     1  UNL1        0.0741
     25 N          -1.3671    3.4444   25.8986 N.3     1  UNL1       -0.2689
     26 C          -1.0224    4.0399   24.5657 C.3     1  UNL1        0.0741
     27 C          -0.1972    3.2592   23.5862 C.3     1  UNL1        0.0372
     28 C          -2.1923    4.2251   26.8781 C.3     1  UNL1        0.0991
     29 C          -3.5932    4.6286   26.5249 C.ar    1  UNL1       -0.0061
     30 C          -4.2266    5.8085   27.2004 C.ar    1  UNL1       -0.0029
     31 C          -5.6275    6.2120   26.8473 C.ar    1  UNL1       -0.0003
     32 C          -6.3949    5.4355   25.8186 C.ar    1  UNL1       -0.0000
     33 C          -5.7614    4.2555   25.1430 C.ar    1  UNL1       -0.0003
     34 C          -4.3606    3.8521   25.4962 C.ar    1  UNL1       -0.0029
@<TRIPOS>BOND
     1     1     2    2
     2     2     3   am
     3     3     4    1
     4     4     8    1
     5     8     9   ar
     6     9    10   ar
     7    10    11   ar
     8    11    12    1
     9    11    13   ar
    10    13    14   ar
    11     4    15    1
    12    15    16   ar
    13    16    17   ar
    14    17    18   ar
    15    18    19    1
    16    18    20   ar
    17    20    21   ar
    18     4     5    1
    19     5     6    1
    20     6    22    1
    21    22    23    1
    22    23    24    1
    23    24    25    1
    24    25    28    1
    25    28    29    1
    26    29    30   ar
    27    30    31   ar
    28    31    32   ar
    29    32    33   ar
    30    33    34   ar
    31    25    26    1
    32    26    27    1
    33     6     2   am
    34    27    22    1
    35    14     8   ar
    36    21    15   ar
    37    34    29   ar
    38     3     7    1
@<TRIPOS>MOLECULE
*****
 34 38 0 0 0
SMALL
GASTEIGER

@<TRIPOS>ATOM
      1 O           5.1581   -0.9177   16.9998 O.2     1  UNL1       -0.2526
      2 C           4.4946   -0.3178   18.2040 C.2     1  UNL1        0.3044
      3 N           3.4756    0.7828   18.1924 N.am    1  UNL1       -0.2833
      4 C           3.0849    1.0676   19.6124 C.3     1  UNL1        0.1144
      5 C           3.8625    0.1430   20.5014 C.3     1  UNL1        0.1212
      6 N           4.7338   -0.7133   19.6310 N.am    1  UNL1       -0.2634
      7 H           3.1247    1.2382   17.3932 H       1  UNL1        0.1515
      8 C           2.5063    1.5676   20.9029 C.ar    1  UNL1       -0.0007
      9 C           2.9934    2.8577   21.4932 C.ar    1  UNL1       -0.0001
     10 C           2.4148    3.3576   22.7836 C.ar    1  UNL1        0.0294
     11 C           1.3492    2.5675   23.4837 C.ar    1  UNL1        0.1401
     12 F           0.7706    3.0675   24.7742 F       1  UNL1       -0.2042
     13 C           0.8621    1.2775   22.8934 C.ar    1  UNL1        0.0294
     14 C           1.4407    0.7775   21.6030 C.ar    1  UNL1       -0.0001
     15 C           2.1863    2.0967   18.9931 C.ar    1  UNL1       -0.0007
     16 C           2.7486    3.4158   18.5529 C.ar    1  UNL1       -0.0001
     17 C           1.8500    4.4450   17.9336 C.ar    1  UNL1        0.0294
     18 C           0.3892    4.1550   17.7545 C.ar    1  UNL1        0.1401
     19 F          -0.5092    5.1841   17.1352 F       1  UNL1       -0.2042
     20 C          -0.1730    2.8359   18.1947 C.ar    1  UNL1        0.0294
     21 C           0.7256    1.8067   18.8140 C.ar    1  UNL1       -0.0001
     22 C           5.6783   -1.7780   20.1044 C.3     1  UNL1        0.0797
     23 C           5.2873   -3.2231   20.0107 C.3     1  UNL1        0.0372
     24 C           6.2319   -4.2878   20.4842 C.3     1  UNL1        0.0741
     25 N           7.5675   -3.9075   21.0514 N.3     1  UNL1       -0.2689
     26 C           7.9584   -2.4623   21.1450 C.3     1  UNL1        0.0741
     27 C           7.0138   -1.3976   20.6716 C.3     1  UNL1        0.0372
     28 C           8.5119   -4.9722   21.5248 C.3     1  UNL1        0.0991
     29 C           8.3011   -5.6221   22.8601 C.ar    1  UNL1       -0.0061
     30 C           7.5871   -4.8803   23.9509 C.ar    1  UNL1       -0.0029
     31 C           7.3763   -5.5302   25.2862 C.ar    1  UNL1       -0.0003
     32 C           7.8794   -6.9220   25.5307 C.ar    1  UNL1       -0.0000
     33 C           8.5934   -7.6639   24.4400 C.ar    1  UNL1       -0.0003
     34 C           8.8043   -7.0139   23.1046 C.ar    1  UNL1       -0.0029
@<TRIPOS>BOND
     1     1     2    2
     2     2     3   am
     3     3     4    1
     4     4     8    1
     5     8     9   ar
     6     9    10   ar
     7    10    11   ar
     8    11    12    1
     9    11    13   ar
    10    13    14   ar
    11     4    15    1
    12    15    16   ar
    13    16    17   ar
    14    17    18   ar
    15    18    19    1
    16    18    20   ar
    17    20    21   ar
    18     4     5    1
    19     5     6    1
    20     6    22    1
    21    22    23    1
    22    23    24    1
    23    24    25    1
    24    25    28    1
    25    28    29    1
    26    29    30   ar
    27    30    31   ar
    28    31    32   ar
    29    32    33   ar
    30    33    34   ar
    31    25    26    1
    32    26    27    1
    33     6     2   am
    34    27    22    1
    35    14     8   ar
    36    21    15   ar
    37    34    29   ar
    38     3     7    1
