@<TRIPOS>MOLECULE
*****
 34 36 0 0 0
SMALL
GASTEIGER

@<TRIPOS>ATOM
      1 C           8.1656   -8.1323   27.3591 C.ar    1  UNL1       -0.0024
      2 C           8.6005   -7.1443   28.4006 C.ar    1  UNL1       -0.0026
      3 C           8.7117   -5.6891   28.0540 C.ar    1  UNL1       -0.0001
      4 C           8.3879   -5.2219   26.6658 C.ar    1  UNL1        0.0045
      5 C           7.9529   -6.2100   25.6243 C.ar    1  UNL1        0.0534
      6 C           7.8418   -7.6651   25.9710 C.ar    1  UNL1        0.0019
      7 C           7.6292   -5.7428   24.2362 C.2     1  UNL1        0.2495
      8 O           7.9983   -6.5899   23.0546 O.2     1  UNL1       -0.2698
      9 N           6.9362   -4.4286   24.0297 N.am    1  UNL1       -0.2804
     10 H           6.6939   -3.8726   24.8052 H       1  UNL1        0.1552
     11 C           6.6124   -3.9614   22.6415 C.ar    1  UNL1        0.0505
     12 C           5.1857   -3.9098   22.1812 C.ar    1  UNL1        0.0144
     13 C           4.8620   -3.4426   20.7931 C.ar    1  UNL1       -0.0016
     14 C           5.9648   -3.0271   19.8652 C.ar    1  UNL1       -0.0061
     15 C           7.3916   -3.0788   20.3255 C.ar    1  UNL1       -0.0016
     16 C           7.7154   -3.5460   21.7136 C.ar    1  UNL1        0.0144
     17 C           5.6411   -2.5600   18.4771 C.3     1  UNL1        0.0992
     18 N           5.0177   -1.2122   18.2656 N.3     1  UNL1       -0.2665
     19 C           5.3779   -0.0693   19.1680 C.3     1  UNL1        0.0899
     20 C           4.0342   -1.0072   17.1518 C.3     1  UNL1        0.0899
     21 C           8.0545   -9.5875   27.7058 C.3     1  UNL1        0.1166
     22 C           6.6101  -11.7277   27.9939 C.2     1  UNL1        0.2461
     23 O           7.8360  -12.5038   28.3744 O.2     1  UNL1       -0.2701
     24 N           6.7193  -10.2696   27.6596 N.am    1  UNL1       -0.2969
     25 H           5.9147   -9.7602   27.4098 H       1  UNL1        0.1501
     26 C           2.6047  -13.7741   27.8554 C.ar    1  UNL1        0.1492
     27 C           3.5869  -13.9716   26.7390 C.ar    1  UNL1        0.0379
     28 C           4.9220  -13.2895   26.7852 C.ar    1  UNL1        0.0077
     29 C           5.2750  -12.4098   27.9477 C.ar    1  UNL1        0.0544
     30 C           4.2928  -12.2123   29.0641 C.ar    1  UNL1        0.0190
     31 C           2.9577  -12.8944   29.0179 C.ar    1  UNL1        0.0917
     32 CL          1.9755  -12.6968   30.1343 Cl      1  UNL1       -0.0791
     33 C           1.1399  -15.8819   28.2568 C.3     1  UNL1        0.2525
     34 O           1.2696  -14.4562   27.8092 O.3     1  UNL1       -0.4706
@<TRIPOS>BOND
     1    33    34    1
     2    34    26    1
     3    26    27   ar
     4    27    28   ar
     5    28    29   ar
     6    29    22    1
     7    22    23    2
     8    22    24   am
     9    24    21    1
    10    21     1    1
    11     1     2   ar
    12     2     3   ar
    13     3     4   ar
    14     4     5   ar
    15     5     7    1
    16     7     8    2
    17     7     9   am
    18     9    11    1
    19    11    12   ar
    20    12    13   ar
    21    13    14   ar
    22    14    17    1
    23    17    18    1
    24    18    19    1
    25    18    20    1
    26    14    15   ar
    27    15    16   ar
    28     5     6   ar
    29    29    30   ar
    30    30    31   ar
    31    31    32    1
    32    31    26   ar
    33     6     1   ar
    34    16    11   ar
    35    24    25    1
    36     9    10    1
@<TRIPOS>MOLECULE
*****
 34 36 0 0 0
SMALL
GASTEIGER

@<TRIPOS>ATOM
      1 C          -2.8325    4.0232   23.0330 C.ar    1  UNL1       -0.0024
      2 C          -3.8759    4.4147   22.0291 C.ar    1  UNL1       -0.0026
      3 C          -3.6674    4.1138   20.5744 C.ar    1  UNL1       -0.0001
      4 C          -2.4154    3.4214   20.1237 C.ar    1  UNL1        0.0045
      5 C          -1.3720    3.0298   21.1278 C.ar    1  UNL1        0.0534
      6 C          -1.5806    3.3307   22.5824 C.ar    1  UNL1        0.0019
      7 C          -0.1201    2.3373   20.6771 C.2     1  UNL1        0.2495
      8 O           1.1951    3.0568   20.7288 O.2     1  UNL1       -0.2698
      9 N          -0.1833    0.9253   20.1747 N.am    1  UNL1       -0.2804
     10 H          -1.0465    0.4531   20.1408 H       1  UNL1        0.1552
     11 C           1.0687    0.2329   19.7241 C.ar    1  UNL1        0.0505
     12 C           1.7397   -0.7633   20.6225 C.ar    1  UNL1        0.0144
     13 C           2.9916   -1.4558   20.1719 C.ar    1  UNL1       -0.0016
     14 C           3.5726   -1.1521   18.8227 C.ar    1  UNL1       -0.0061
     15 C           2.9016   -0.1558   17.9242 C.ar    1  UNL1       -0.0016
     16 C           1.6496    0.5366   18.3748 C.ar    1  UNL1        0.0144
     17 C           4.8245   -1.8445   18.3721 C.3     1  UNL1        0.0992
     18 N           5.2804   -3.0951   19.0637 N.3     1  UNL1       -0.2665
     19 C           4.6138   -4.4045   18.7621 C.3     1  UNL1        0.0899
     20 C           6.4029   -3.0361   20.0568 C.3     1  UNL1        0.0899
     21 C          -3.0411    4.3241   24.4877 C.3     1  UNL1        0.1166
     22 C          -1.2324    3.8825   26.2998 C.2     1  UNL1        0.2461
     23 O          -0.6272    5.2268   26.0232 O.2     1  UNL1       -0.2701
     24 N          -2.4393    3.4311   25.5320 N.am    1  UNL1       -0.2969
     25 H          -2.8366    2.5488   25.7135 H       1  UNL1        0.1501
     26 C           0.5728    1.2037   29.4328 C.ar    1  UNL1        0.1492
     27 C           1.1494    2.5668   29.1887 C.ar    1  UNL1        0.0379
     28 C           0.5476    3.4597   28.1444 C.ar    1  UNL1        0.0077
     29 C          -0.6307    2.9896   27.3441 C.ar    1  UNL1        0.0544
     30 C          -1.2073    1.6265   27.5881 C.ar    1  UNL1        0.0190
     31 C          -0.6055    0.7336   28.6325 C.ar    1  UNL1        0.0917
     32 CL         -1.1822   -0.6295   28.8765 Cl      1  UNL1       -0.0791
     33 C           2.3423   -0.5652   30.1324 C.3     1  UNL1        0.2525
     34 O           1.1745    0.3108   30.4771 O.3     1  UNL1       -0.4706
@<TRIPOS>BOND
     1    33    34    1
     2    34    26    1
     3    26    27   ar
     4    27    28   ar
     5    28    29   ar
     6    29    22    1
     7    22    23    2
     8    22    24   am
     9    24    21    1
    10    21     1    1
    11     1     2   ar
    12     2     3   ar
    13     3     4   ar
    14     4     5   ar
    15     5     7    1
    16     7     8    2
    17     7     9   am
    18     9    11    1
    19    11    12   ar
    20    12    13   ar
    21    13    14   ar
    22    14    17    1
    23    17    18    1
    24    18    19    1
    25    18    20    1
    26    14    15   ar
    27    15    16   ar
    28     5     6   ar
    29    29    30   ar
    30    30    31   ar
    31    31    32    1
    32    31    26   ar
    33     6     1   ar
    34    16    11   ar
    35    24    25    1
    36     9    10    1
@<TRIPOS>MOLECULE
*****
 34 36 0 0 0
SMALL
GASTEIGER

@<TRIPOS>ATOM
      1 C          -0.4823    1.5270   26.3905 C.ar    1  UNL1       -0.0024
      2 C          -1.4695    2.6471   26.2459 C.ar    1  UNL1       -0.0026
      3 C          -1.5678    3.3976   24.9509 C.ar    1  UNL1       -0.0001
      4 C          -0.6790    3.0281   23.8005 C.ar    1  UNL1        0.0045
      5 C           0.3082    1.9080   23.9451 C.ar    1  UNL1        0.0534
      6 C           0.4065    1.1575   25.2401 C.ar    1  UNL1        0.0019
      7 C           1.1970    1.5384   22.7947 C.2     1  UNL1        0.2495
      8 O           2.6261    1.9937   22.7747 O.2     1  UNL1       -0.2698
      9 N           0.6567    0.7136   21.6643 N.am    1  UNL1       -0.2804
     10 H          -0.2813    0.4147   21.6775 H       1  UNL1        0.1552
     11 C           1.5455    0.3440   20.5139 C.ar    1  UNL1        0.0505
     12 C           2.2475   -0.9815   20.5042 C.ar    1  UNL1        0.0144
     13 C           3.1363   -1.3511   19.3538 C.ar    1  UNL1       -0.0016
     14 C           3.3232   -0.3951   18.2131 C.ar    1  UNL1       -0.0061
     15 C           2.6212    0.9305   18.2228 C.ar    1  UNL1       -0.0016
     16 C           1.7324    1.3001   19.3732 C.ar    1  UNL1        0.0144
     17 C           4.2120   -0.7646   17.0627 C.3     1  UNL1        0.0992
     18 N           5.7028   -0.7148   17.2206 N.3     1  UNL1       -0.2665
     19 C           6.4672    0.4866   16.7490 C.3     1  UNL1        0.0899
     20 C           6.4292   -1.8663   17.8501 C.3     1  UNL1        0.0899
     21 C          -0.3839    0.7765   27.6856 C.3     1  UNL1        0.1166
     22 C           1.4147    0.3016   29.4992 C.2     1  UNL1        0.2461
     23 O           0.6118    1.0796   30.4991 O.2     1  UNL1       -0.2701
     24 N           0.9169    0.1500   28.0924 N.am    1  UNL1       -0.2969
     25 H           1.4439   -0.3606   27.4361 H       1  UNL1        0.1501
     26 C           5.3172   -1.5776   30.7197 C.ar    1  UNL1        0.1492
     27 C           5.0583   -1.2556   29.2777 C.ar    1  UNL1        0.0379
     28 C           3.7575   -0.6292   28.8709 C.ar    1  UNL1        0.0077
     29 C           2.7155   -0.3248   29.9060 C.ar    1  UNL1        0.0544
     30 C           2.9744   -0.6468   31.3480 C.ar    1  UNL1        0.0190
     31 C           4.2752   -1.2732   31.7548 C.ar    1  UNL1        0.0917
     32 CL          4.5339   -1.5952   33.1968 Cl      1  UNL1       -0.0791
     33 C           6.7029   -3.6867   31.3372 C.3     1  UNL1        0.2525
     34 O           6.6180   -2.2041   31.1265 O.3     1  UNL1       -0.4706
@<TRIPOS>BOND
     1    33    34    1
     2    34    26    1
     3    26    27   ar
     4    27    28   ar
     5    28    29   ar
     6    29    22    1
     7    22    23    2
     8    22    24   am
     9    24    21    1
    10    21     1    1
    11     1     2   ar
    12     2     3   ar
    13     3     4   ar
    14     4     5   ar
    15     5     7    1
    16     7     8    2
    17     7     9   am
    18     9    11    1
    19    11    12   ar
    20    12    13   ar
    21    13    14   ar
    22    14    17    1
    23    17    18    1
    24    18    19    1
    25    18    20    1
    26    14    15   ar
    27    15    16   ar
    28     5     6   ar
    29    29    30   ar
    30    30    31   ar
    31    31    32    1
    32    31    26   ar
    33     6     1   ar
    34    16    11   ar
    35    24    25    1
    36     9    10    1
@<TRIPOS>MOLECULE
*****
 34 36 0 0 0
SMALL
GASTEIGER

@<TRIPOS>ATOM
      1 C          -2.6769    3.5263   21.6714 C.ar    1  UNL1       -0.0024
      2 C          -4.0887    4.0031   21.5002 C.ar    1  UNL1       -0.0026
      3 C          -4.9497    4.2456   22.7044 C.ar    1  UNL1       -0.0001
      4 C          -4.3988    4.0112   24.0797 C.ar    1  UNL1        0.0045
      5 C          -2.9869    3.5343   24.2508 C.ar    1  UNL1        0.0534
      6 C          -2.1260    3.2919   23.0467 C.ar    1  UNL1        0.0019
      7 C          -2.4360    3.2999   25.6262 C.2     1  UNL1        0.2495
      8 O          -3.1872    3.7896   26.8285 O.2     1  UNL1       -0.2698
      9 N          -1.1337    2.5757   25.7991 N.am    1  UNL1       -0.2804
     10 H          -0.6407    2.2543   25.0099 H       1  UNL1        0.1552
     11 C          -0.5828    2.3413   27.1744 C.ar    1  UNL1        0.0505
     12 C          -1.0133    1.1381   27.9598 C.ar    1  UNL1        0.0144
     13 C          -0.4624    0.9037   29.3351 C.ar    1  UNL1       -0.0016
     14 C           0.5190    1.8725   29.9251 C.ar    1  UNL1       -0.0061
     15 C           0.9496    3.0759   29.1397 C.ar    1  UNL1       -0.0016
     16 C           0.3987    3.3102   27.7644 C.ar    1  UNL1        0.0144
     17 C           1.0699    1.6381   31.3004 C.3     1  UNL1        0.0992
     18 N           2.2193    0.6946   31.4972 N.3     1  UNL1       -0.2665
     19 C           3.0962    0.8229   32.7074 C.3     1  UNL1        0.0899
     20 C           2.4916   -0.3772   30.4839 C.3     1  UNL1        0.0899
     21 C          -1.8159    3.2838   20.4672 C.3     1  UNL1        0.1166
     22 C           0.1001    1.9743   19.2993 C.2     1  UNL1        0.2461
     23 O          -0.0194    2.8683   18.1008 O.2     1  UNL1       -0.2701
     24 N          -0.7982    2.1820   20.4824 N.am    1  UNL1       -0.2969
     25 H          -0.7197    1.5952   21.2691 H       1  UNL1        0.1501
     26 C           3.1533   -1.3311   19.3451 C.ar    1  UNL1        0.1492
     27 C           2.1811   -1.1924   20.4789 C.ar    1  UNL1        0.0379
     28 C           1.1634   -0.0905   20.4636 C.ar    1  UNL1        0.0077
     29 C           1.1178    0.8725   19.3145 C.ar    1  UNL1        0.0544
     30 C           2.0900    0.7337   18.1807 C.ar    1  UNL1        0.0190
     31 C           3.1077   -0.3681   18.1960 C.ar    1  UNL1        0.0917
     32 CL          4.0799   -0.5069   17.0621 Cl      1  UNL1       -0.0791
     33 C           3.7374   -3.8571   19.1765 C.3     1  UNL1        0.2525
     34 O           4.1710   -2.4329   19.3604 O.3     1  UNL1       -0.4706
@<TRIPOS>BOND
     1    33    34    1
     2    34    26    1
     3    26    27   ar
     4    27    28   ar
     5    28    29   ar
     6    29    22    1
     7    22    23    2
     8    22    24   am
     9    24    21    1
    10    21     1    1
    11     1     2   ar
    12     2     3   ar
    13     3     4   ar
    14     4     5   ar
    15     5     7    1
    16     7     8    2
    17     7     9   am
    18     9    11    1
    19    11    12   ar
    20    12    13   ar
    21    13    14   ar
    22    14    17    1
    23    17    18    1
    24    18    19    1
    25    18    20    1
    26    14    15   ar
    27    15    16   ar
    28     5     6   ar
    29    29    30   ar
    30    30    31   ar
    31    31    32    1
    32    31    26   ar
    33     6     1   ar
    34    16    11   ar
    35    24    25    1
    36     9    10    1
@<TRIPOS>MOLECULE
*****
 34 36 0 0 0
SMALL
GASTEIGER

@<TRIPOS>ATOM
      1 C           0.7344    2.2004   25.0613 C.ar    1  UNL1       -0.0024
      2 C          -0.6749    2.7132   25.0340 C.ar    1  UNL1       -0.0026
      3 C          -1.5401    2.5942   26.2537 C.ar    1  UNL1       -0.0001
      4 C          -0.9958    1.9625   27.5005 C.ar    1  UNL1        0.0045
      5 C           0.4136    1.4497   27.5278 C.ar    1  UNL1        0.0534
      6 C           1.2787    1.5686   26.3082 C.ar    1  UNL1        0.0019
      7 C           0.9578    0.8179   28.7746 C.2     1  UNL1        0.2495
      8 O           0.1872   -0.2699   29.4621 O.2     1  UNL1       -0.2698
      9 N           2.2728    1.2741   29.3341 N.am    1  UNL1       -0.2804
     10 H           2.7786    1.9882   28.8829 H       1  UNL1        0.1552
     11 C           2.8171    0.6424   30.5809 C.ar    1  UNL1        0.0505
     12 C           2.6706    1.3402   31.9006 C.ar    1  UNL1        0.0144
     13 C           3.2149    0.7084   33.1475 C.ar    1  UNL1       -0.0016
     14 C           3.9056   -0.6211   33.0747 C.ar    1  UNL1       -0.0061
     15 C           4.0520   -1.3189   31.7549 C.ar    1  UNL1       -0.0016
     16 C           3.5078   -0.6872   30.5080 C.ar    1  UNL1        0.0144
     17 C           4.4498   -1.2528   34.3215 C.3     1  UNL1        0.0992
     18 N           5.3815   -0.4810   35.2082 N.3     1  UNL1       -0.2665
     19 C           6.7578   -0.1303   34.7256 C.3     1  UNL1        0.0899
     20 C           4.9368   -0.0598   36.5774 C.3     1  UNL1        0.0899
     21 C           1.5996    2.3193   23.8417 C.3     1  UNL1        0.1166
     22 C           1.8980    0.3804   22.1383 C.2     1  UNL1        0.2461
     23 O           0.6570    0.8206   21.4199 O.2     1  UNL1       -0.2701
     24 N           2.3692    1.1297   23.3492 N.am    1  UNL1       -0.2969
     25 H           3.1837    0.8408   23.8208 H       1  UNL1        0.1501
     26 C           4.2070   -3.1884   20.6610 C.ar    1  UNL1        0.1492
     27 C           3.3352   -2.4156   19.7162 C.ar    1  UNL1        0.0379
     28 C           2.5656   -1.2260   20.2086 C.ar    1  UNL1        0.0077
     29 C           2.6676   -0.8092   21.6459 C.ar    1  UNL1        0.0544
     30 C           3.5394   -1.5820   22.5908 C.ar    1  UNL1        0.0190
     31 C           4.3091   -2.7716   22.0983 C.ar    1  UNL1        0.0917
     32 CL          5.1809   -3.5444   23.0433 Cl      1  UNL1       -0.0791
     33 C           4.6000   -5.0305   18.8716 C.3     1  UNL1        0.2525
     34 O           4.9767   -4.3780   20.1686 O.3     1  UNL1       -0.4706
@<TRIPOS>BOND
     1    33    34    1
     2    34    26    1
     3    26    27   ar
     4    27    28   ar
     5    28    29   ar
     6    29    22    1
     7    22    23    2
     8    22    24   am
     9    24    21    1
    10    21     1    1
    11     1     2   ar
    12     2     3   ar
    13     3     4   ar
    14     4     5   ar
    15     5     7    1
    16     7     8    2
    17     7     9   am
    18     9    11    1
    19    11    12   ar
    20    12    13   ar
    21    13    14   ar
    22    14    17    1
    23    17    18    1
    24    18    19    1
    25    18    20    1
    26    14    15   ar
    27    15    16   ar
    28     5     6   ar
    29    29    30   ar
    30    30    31   ar
    31    31    32    1
    32    31    26   ar
    33     6     1   ar
    34    16    11   ar
    35    24    25    1
    36     9    10    1
@<TRIPOS>MOLECULE
*****
 34 36 0 0 0
SMALL
GASTEIGER

@<TRIPOS>ATOM
      1 C           7.1944   -5.1682   26.6501 C.ar    1  UNL1       -0.0024
      2 C           7.7629   -6.4722   27.1257 C.ar    1  UNL1       -0.0026
      3 C           7.9025   -6.7381   28.5954 C.ar    1  UNL1       -0.0001
      4 C           7.4736   -5.6999   29.5894 C.ar    1  UNL1        0.0045
      5 C           6.9051   -4.3958   29.1138 C.ar    1  UNL1        0.0534
      6 C           6.7655   -4.1299   27.6442 C.ar    1  UNL1        0.0019
      7 C           6.4762   -3.3575   30.1078 C.2     1  UNL1        0.2495
      8 O           5.9844   -2.0224   29.6329 O.2     1  UNL1       -0.2698
      9 N           6.5390   -3.6545   31.5768 N.am    1  UNL1       -0.2804
     10 H           6.8617   -4.5308   31.8885 H       1  UNL1        0.1552
     11 C           6.1101   -2.6163   32.5709 C.ar    1  UNL1        0.0505
     12 C           4.7211   -2.6478   33.1363 C.ar    1  UNL1        0.0144
     13 C           4.2922   -1.6096   34.1303 C.ar    1  UNL1       -0.0016
     14 C           5.2523   -0.5398   34.5590 C.ar    1  UNL1       -0.0061
     15 C           6.6413   -0.5082   33.9936 C.ar    1  UNL1       -0.0016
     16 C           7.0702   -1.5465   32.9995 C.ar    1  UNL1        0.0144
     17 C           4.8234    0.4984   35.5530 C.3     1  UNL1        0.0992
     18 N           3.9291    1.6235   35.1238 N.3     1  UNL1       -0.2665
     19 C           2.9313    2.1973   36.0856 C.3     1  UNL1        0.0899
     20 C           4.0326    2.1748   33.7326 C.3     1  UNL1        0.0899
     21 C           7.0548   -4.9023   25.1804 C.3     1  UNL1        0.1166
     22 C           5.8245   -3.7269   23.2170 C.2     1  UNL1        0.2461
     23 O           6.6354   -4.5191   22.2348 O.2     1  UNL1       -0.2701
     24 N           6.0342   -3.9185   24.6899 N.am    1  UNL1       -0.2969
     25 H           5.5021   -3.3986   25.3346 H       1  UNL1        0.1501
     26 C           2.7628   -0.7756   21.7454 C.ar    1  UNL1        0.1492
     27 C           3.4438   -1.6959   20.7763 C.ar    1  UNL1        0.0379
     28 C           4.4644   -2.6797   21.2668 C.ar    1  UNL1        0.0077
     29 C           4.8039   -2.7432   22.7265 C.ar    1  UNL1        0.0544
     30 C           4.1229   -1.8228   23.6956 C.ar    1  UNL1        0.0190
     31 C           3.1024   -0.8391   23.2050 C.ar    1  UNL1        0.0917
     32 CL          2.4213    0.0813   24.1742 Cl      1  UNL1       -0.0791
     33 C           0.6152   -0.2540   20.3796 C.3     1  UNL1        0.2525
     34 O           1.7422    0.2081   21.2548 O.3     1  UNL1       -0.4706
@<TRIPOS>BOND
     1    33    34    1
     2    34    26    1
     3    26    27   ar
     4    27    28   ar
     5    28    29   ar
     6    29    22    1
     7    22    23    2
     8    22    24   am
     9    24    21    1
    10    21     1    1
    11     1     2   ar
    12     2     3   ar
    13     3     4   ar
    14     4     5   ar
    15     5     7    1
    16     7     8    2
    17     7     9   am
    18     9    11    1
    19    11    12   ar
    20    12    13   ar
    21    13    14   ar
    22    14    17    1
    23    17    18    1
    24    18    19    1
    25    18    20    1
    26    14    15   ar
    27    15    16   ar
    28     5     6   ar
    29    29    30   ar
    30    30    31   ar
    31    31    32    1
    32    31    26   ar
    33     6     1   ar
    34    16    11   ar
    35    24    25    1
    36     9    10    1
@<TRIPOS>MOLECULE
*****
 34 36 0 0 0
SMALL
GASTEIGER

@<TRIPOS>ATOM
      1 C           7.6986   -6.3436   27.6202 C.ar    1  UNL1       -0.0024
      2 C           8.3350   -7.5041   26.9144 C.ar    1  UNL1       -0.0026
      3 C           8.3806   -7.5369   25.4154 C.ar    1  UNL1       -0.0001
      4 C           7.7899   -6.4090   24.6223 C.ar    1  UNL1        0.0045
      5 C           7.1535   -5.2485   25.3282 C.ar    1  UNL1        0.0534
      6 C           7.1079   -5.2158   26.8271 C.ar    1  UNL1        0.0019
      7 C           6.5628   -4.1206   24.5351 C.2     1  UNL1        0.2495
      8 O           6.0881   -2.8808   25.2333 O.2     1  UNL1       -0.2698
      9 N           6.4468   -4.2326   23.0438 N.am    1  UNL1       -0.2804
     10 H           6.7583   -5.0463   22.5855 H       1  UNL1        0.1552
     11 C           5.8560   -3.1048   22.2507 C.ar    1  UNL1        0.0505
     12 C           4.3708   -3.0201   22.0588 C.ar    1  UNL1        0.0144
     13 C           3.7801   -1.8923   21.2657 C.ar    1  UNL1       -0.0016
     14 C           4.6746   -0.8491   20.6645 C.ar    1  UNL1       -0.0061
     15 C           6.1599   -0.9336   20.8564 C.ar    1  UNL1       -0.0016
     16 C           6.7506   -2.0615   21.6495 C.ar    1  UNL1        0.0144
     17 C           4.0838    0.2788   19.8714 C.3     1  UNL1        0.0992
     18 N           3.1930   -0.0136   18.7006 N.3     1  UNL1       -0.2665
     19 C           3.7547   -0.6766   17.4779 C.3     1  UNL1        0.0899
     20 C           1.7404    0.3569   18.7525 C.3     1  UNL1        0.0899
     21 C           7.6530   -6.3109   29.1192 C.3     1  UNL1        0.1166
     22 C           7.0782   -4.9591   31.2622 C.2     1  UNL1        0.2461
     23 O           6.7154   -6.2320   31.9678 O.2     1  UNL1       -0.2701
     24 N           7.5470   -4.9986   29.8379 N.am    1  UNL1       -0.2969
     25 H           7.7852   -4.1631   29.3747 H       1  UNL1        0.1501
     26 C           6.7602   -1.0220   33.4181 C.ar    1  UNL1        0.1492
     27 C           8.0870   -1.4846   32.8931 C.ar    1  UNL1        0.0379
     28 C           8.1930   -2.7970   32.1744 C.ar    1  UNL1        0.0077
     29 C           6.9722   -3.6467   31.9808 C.ar    1  UNL1        0.0544
     30 C           5.6454   -3.1841   32.5058 C.ar    1  UNL1        0.0190
     31 C           5.5394   -1.8718   33.2244 C.ar    1  UNL1        0.0917
     32 CL          4.2126   -1.4092   33.7494 Cl      1  UNL1       -0.0791
     33 C           7.7134    0.6955   35.1186 C.3     1  UNL1        0.2525
     34 O           6.6542    0.2904   34.1367 O.3     1  UNL1       -0.4706
@<TRIPOS>BOND
     1    33    34    1
     2    34    26    1
     3    26    27   ar
     4    27    28   ar
     5    28    29   ar
     6    29    22    1
     7    22    23    2
     8    22    24   am
     9    24    21    1
    10    21     1    1
    11     1     2   ar
    12     2     3   ar
    13     3     4   ar
    14     4     5   ar
    15     5     7    1
    16     7     8    2
    17     7     9   am
    18     9    11    1
    19    11    12   ar
    20    12    13   ar
    21    13    14   ar
    22    14    17    1
    23    17    18    1
    24    18    19    1
    25    18    20    1
    26    14    15   ar
    27    15    16   ar
    28     5     6   ar
    29    29    30   ar
    30    30    31   ar
    31    31    32    1
    32    31    26   ar
    33     6     1   ar
    34    16    11   ar
    35    24    25    1
    36     9    10    1
@<TRIPOS>MOLECULE
*****
 34 36 0 0 0
SMALL
GASTEIGER

@<TRIPOS>ATOM
      1 C           8.0441   -6.4894   28.0627 C.ar    1  UNL1       -0.0024
      2 C           8.5269   -7.8944   27.8555 C.ar    1  UNL1       -0.0026
      3 C           8.6015   -8.4653   26.4704 C.ar    1  UNL1       -0.0001
      4 C           8.1932   -7.6311   25.2924 C.ar    1  UNL1        0.0045
      5 C           7.7104   -6.2261   25.4996 C.ar    1  UNL1        0.0534
      6 C           7.6359   -5.6553   26.8847 C.ar    1  UNL1        0.0019
      7 C           7.3022   -5.3920   24.3217 C.2     1  UNL1        0.2495
      8 O           7.7255   -5.7893   22.9386 O.2     1  UNL1       -0.2698
      9 N           6.4706   -4.1605   24.5269 N.am    1  UNL1       -0.2804
     10 H           6.1927   -3.8998   25.4346 H       1  UNL1        0.1552
     11 C           6.0623   -3.3264   23.3489 C.ar    1  UNL1        0.0505
     12 C           7.0307   -2.3503   22.7494 C.ar    1  UNL1        0.0144
     13 C           6.6225   -1.5162   21.5715 C.ar    1  UNL1       -0.0016
     14 C           5.2458   -1.6581   20.9930 C.ar    1  UNL1       -0.0061
     15 C           4.2774   -2.6343   21.5925 C.ar    1  UNL1       -0.0016
     16 C           4.6856   -3.4684   22.7704 C.ar    1  UNL1        0.0144
     17 C           4.8376   -0.8240   19.8150 C.3     1  UNL1        0.0992
     18 N           4.7905   -1.4330   18.4451 N.3     1  UNL1       -0.2665
     19 C           3.9361   -0.8147   17.3784 C.3     1  UNL1        0.0899
     20 C           5.5977   -2.6603   18.1418 C.3     1  UNL1        0.0899
     21 C           7.9695   -5.9185   29.4478 C.3     1  UNL1        0.1166
     22 C           7.1954   -3.9055   30.8965 C.2     1  UNL1        0.2461
     23 O           8.4605   -3.9954   31.6973 O.2     1  UNL1       -0.2701
     24 N           6.9499   -4.8671   29.7718 N.am    1  UNL1       -0.2969
     25 H           6.1196   -4.8081   29.2462 H       1  UNL1        0.1501
     26 C           4.1366   -0.7513   31.8683 C.ar    1  UNL1        0.1492
     27 C           4.6694   -0.8743   30.4716 C.ar    1  UNL1        0.0379
     28 C           5.6890   -1.9257   30.1477 C.ar    1  UNL1        0.0077
     29 C           6.1758   -2.8541   31.2205 C.ar    1  UNL1        0.0544
     30 C           5.6430   -2.7312   32.6172 C.ar    1  UNL1        0.0190
     31 C           4.6234   -1.6798   32.9411 C.ar    1  UNL1        0.0917
     32 CL          4.0906   -1.5568   34.3380 Cl      1  UNL1       -0.0791
     33 C           2.2584    0.8728   31.1038 C.3     1  UNL1        0.2525
     34 O           3.1170    0.3001   32.1923 O.3     1  UNL1       -0.4706
@<TRIPOS>BOND
     1    33    34    1
     2    34    26    1
     3    26    27   ar
     4    27    28   ar
     5    28    29   ar
     6    29    22    1
     7    22    23    2
     8    22    24   am
     9    24    21    1
    10    21     1    1
    11     1     2   ar
    12     2     3   ar
    13     3     4   ar
    14     4     5   ar
    15     5     7    1
    16     7     8    2
    17     7     9   am
    18     9    11    1
    19    11    12   ar
    20    12    13   ar
    21    13    14   ar
    22    14    17    1
    23    17    18    1
    24    18    19    1
    25    18    20    1
    26    14    15   ar
    27    15    16   ar
    28     5     6   ar
    29    29    30   ar
    30    30    31   ar
    31    31    32    1
    32    31    26   ar
    33     6     1   ar
    34    16    11   ar
    35    24    25    1
    36     9    10    1
@<TRIPOS>MOLECULE
*****
 34 36 0 0 0
SMALL
GASTEIGER

@<TRIPOS>ATOM
      1 C           6.1136   -3.5228   20.4597 C.ar    1  UNL1       -0.0024
      2 C           5.5810   -4.7223   19.7335 C.ar    1  UNL1       -0.0026
      3 C           4.2709   -4.6391   19.0076 C.ar    1  UNL1       -0.0001
      4 C           3.4935   -3.3563   19.0079 C.ar    1  UNL1        0.0045
      5 C           4.0261   -2.1567   19.7341 C.ar    1  UNL1        0.0534
      6 C           5.3361   -2.2399   20.4600 C.ar    1  UNL1        0.0019
      7 C           3.2487   -0.8739   19.7344 C.2     1  UNL1        0.2495
      8 O           3.9666    0.4381   19.8496 O.2     1  UNL1       -0.2698
      9 N           1.7534   -0.9031   19.6195 N.am    1  UNL1       -0.2804
     10 H           1.2822   -1.7642   19.5440 H       1  UNL1        0.1552
     11 C           0.9760    0.3797   19.6198 C.ar    1  UNL1        0.0505
     12 C           0.2364    0.8082   20.8525 C.ar    1  UNL1        0.0144
     13 C          -0.5410    2.0911   20.8528 C.ar    1  UNL1       -0.0016
     14 C          -0.5789    2.9454   19.6204 C.ar    1  UNL1       -0.0061
     15 C           0.1607    2.5169   18.3877 C.ar    1  UNL1       -0.0016
     16 C           0.9381    1.2341   18.3874 C.ar    1  UNL1        0.0144
     17 C          -1.3563    4.2282   19.6207 C.3     1  UNL1        0.0992
     18 N          -2.8353    4.2089   19.3716 N.3     1  UNL1       -0.2665
     19 C          -3.3603    4.2675   17.9677 C.3     1  UNL1        0.0899
     20 C          -3.7894    4.1311   20.5265 C.3     1  UNL1        0.0899
     21 C           7.4236   -3.6060   21.1856 C.3     1  UNL1        0.1166
     22 C           7.9771   -5.5693   22.7947 C.2     1  UNL1        0.2461
     23 O           8.4231   -6.3997   21.6279 O.2     1  UNL1       -0.2701
     24 N           7.4773   -4.1724   22.5735 N.am    1  UNL1       -0.2969
     25 H           7.1846   -3.6273   23.3393 H       1  UNL1        0.1501
     26 C           8.1382   -7.2685   26.9584 C.ar    1  UNL1        0.1492
     27 C           8.8802   -7.9440   25.8434 C.ar    1  UNL1        0.0379
     28 C           8.8265   -7.3776   24.4555 C.ar    1  UNL1        0.0077
     29 C           8.0308   -6.1357   24.1826 C.ar    1  UNL1        0.0544
     30 C           7.2889   -5.4602   25.2975 C.ar    1  UNL1        0.0190
     31 C           7.3426   -6.0266   26.6854 C.ar    1  UNL1        0.0917
     32 CL          6.6006   -5.3510   27.8004 Cl      1  UNL1       -0.0791
     33 C           9.1683   -7.2851   29.3435 C.3     1  UNL1        0.2525
     34 O           8.1919   -7.8349   28.3463 O.3     1  UNL1       -0.4706
@<TRIPOS>BOND
     1    33    34    1
     2    34    26    1
     3    26    27   ar
     4    27    28   ar
     5    28    29   ar
     6    29    22    1
     7    22    23    2
     8    22    24   am
     9    24    21    1
    10    21     1    1
    11     1     2   ar
    12     2     3   ar
    13     3     4   ar
    14     4     5   ar
    15     5     7    1
    16     7     8    2
    17     7     9   am
    18     9    11    1
    19    11    12   ar
    20    12    13   ar
    21    13    14   ar
    22    14    17    1
    23    17    18    1
    24    18    19    1
    25    18    20    1
    26    14    15   ar
    27    15    16   ar
    28     5     6   ar
    29    29    30   ar
    30    30    31   ar
    31    31    32    1
    32    31    26   ar
    33     6     1   ar
    34    16    11   ar
    35    24    25    1
    36     9    10    1
