@<TRIPOS>MOLECULE
*****
 34 37 0 0 0
SMALL
GASTEIGER

@<TRIPOS>ATOM
      1 C           7.9002   -8.2172   26.8996 C.ar    1  UNL1        0.0908
      2 C           8.7578   -7.4083   27.8272 C.ar    1  UNL1        0.1363
      3 N           9.4735   -6.3726   27.0118 N.ar    1  UNL1       -0.1660
      4 N           9.0583   -6.5413   25.5803 N.ar    1  UNL1       -0.2436
      5 C           8.0859   -7.6813   25.5110 C.ar    1  UNL1        0.1117
      6 O           9.1003  -10.7414   27.9900 O.2     1  UNL1       -0.2680
      7 C           7.6127  -10.6232   27.8370 C.2     1  UNL1        0.2706
      8 N           7.0127   -9.3611   27.2918 N.am    1  UNL1       -0.2766
      9 H           6.0364   -9.2836   27.1915 H       1  UNL1        0.1553
     10 C           6.7253  -11.7671   28.2293 C.ar    1  UNL1        0.1765
     11 C           5.2414  -11.8428   28.0230 C.ar    1  UNL1        0.0704
     12 C           4.7649  -13.1586   28.5629 C.ar    1  UNL1        0.2113
     13 O           5.9542  -13.8962   29.1029 O.2     1  UNL1       -0.3501
     14 N           7.1658  -13.0362   28.8967 N.ar    1  UNL1       -0.0722
     15 C           3.3479  -13.6505   28.5628 C.ar    1  UNL1        0.1824
     16 C           2.1212  -12.8056   28.7404 C.ar    1  UNL1        0.0440
     17 C           0.9240  -13.7066   28.6725 C.ar    1  UNL1        0.0439
     18 C           1.4106  -15.1084   28.4529 C.ar    1  UNL1        0.1798
     19 O           2.9087  -15.0738   28.3852 O.2     1  UNL1       -0.4472
     20 C           9.5322   -5.7151   24.4215 C.3     1  UNL1        0.1538
     21 C           8.5371   -5.0933   23.4870 C.ar    1  UNL1        0.0060
     22 C           8.5957   -5.3965   22.0191 C.ar    1  UNL1       -0.0024
     23 C           7.6007   -4.7749   21.0845 C.ar    1  UNL1        0.0036
     24 C           6.5471   -3.8500   21.6179 C.ar    1  UNL1        0.0714
     25 C           6.4885   -3.5467   23.0857 C.ar    1  UNL1        0.0074
     26 C           7.4835   -4.1684   24.0203 C.ar    1  UNL1        0.0693
     27 C           5.5520   -3.2282   20.6833 C.3     1  UNL1        0.4186
     28 F           4.5570   -2.6065   19.7488 F       1  UNL1       -0.1659
     29 F           4.4310   -3.8410   21.4693 F       1  UNL1       -0.1659
     30 F           6.6730   -2.6155   19.8973 F       1  UNL1       -0.1659
     31 C           7.4249   -3.8652   25.4881 C.3     1  UNL1        0.4183
     32 F           7.3664   -3.5620   26.9560 F       1  UNL1       -0.1659
     33 F           8.4643   -2.7986   25.3093 F       1  UNL1       -0.1659
     34 F           6.3856   -4.9318   25.6670 F       1  UNL1       -0.1659
@<TRIPOS>BOND
     1     6     7    2
     2     7     8   am
     3     8     1    1
     4     1     2   ar
     5     2     3   ar
     6     3     4   ar
     7     4    20    1
     8    20    21    1
     9    21    22   ar
    10    22    23   ar
    11    23    24   ar
    12    24    27    1
    13    27    28    1
    14    27    29    1
    15    27    30    1
    16    24    25   ar
    17    25    26   ar
    18    26    31    1
    19    31    32    1
    20    31    33    1
    21    31    34    1
    22     4     5   ar
    23     7    10    1
    24    10    11   ar
    25    11    12   ar
    26    12    15    1
    27    15    16   ar
    28    16    17   ar
    29    17    18   ar
    30    18    19   ar
    31    12    13   ar
    32    13    14   ar
    33     5     1   ar
    34    14    10   ar
    35    26    21   ar
    36    19    15   ar
    37     8     9    1
@<TRIPOS>MOLECULE
*****
 34 37 0 0 0
SMALL
GASTEIGER

@<TRIPOS>ATOM
      1 C           6.9466   -3.1378   25.3407 C.ar    1  UNL1        0.0908
      2 C           8.1667   -2.7979   24.5369 C.ar    1  UNL1        0.1363
      3 N           7.8507   -3.0390   23.0905 N.ar    1  UNL1       -0.1660
      4 N           6.4355   -3.5278   23.0004 N.ar    1  UNL1       -0.2436
      5 C           5.8767   -3.5889   24.3911 C.ar    1  UNL1        0.1117
      6 O           7.0478   -5.6247   27.0156 O.2     1  UNL1       -0.2680
      7 C           6.8696   -4.2866   27.6697 C.2     1  UNL1        0.2706
      8 N           6.8190   -3.0432   26.8323 N.am    1  UNL1       -0.2766
      9 H           6.7020   -2.1649   27.2616 H       1  UNL1        0.1553
     10 C           6.7419   -4.1920   29.1613 C.ar    1  UNL1        0.1765
     11 C           6.2802   -2.9910   29.9323 C.ar    1  UNL1        0.0704
     12 C           6.3065   -3.3385   31.3912 C.ar    1  UNL1        0.2113
     13 O           6.7845   -4.7543   31.5219 O.2     1  UNL1       -0.3501
     14 N           7.0536   -5.2818   30.1438 N.ar    1  UNL1       -0.0722
     15 C           5.9222   -2.4298   32.5211 C.ar    1  UNL1        0.1824
     16 C           4.6018   -2.4175   33.2327 C.ar    1  UNL1        0.0440
     17 C           4.6545   -1.3539   34.2891 C.ar    1  UNL1        0.0439
     18 C           6.0074   -0.7089   34.2304 C.ar    1  UNL1        0.1798
     19 O           6.7910   -1.3738   33.1376 O.2     1  UNL1       -0.4472
     20 C           5.7069   -3.8917   21.7408 C.3     1  UNL1        0.1538
     21 C           4.6562   -2.9736   21.1901 C.ar    1  UNL1        0.0060
     22 C           4.2375   -1.7611   21.9676 C.ar    1  UNL1       -0.0024
     23 C           3.1869   -0.8430   21.4170 C.ar    1  UNL1        0.0036
     24 C           2.5550   -1.1373   20.0888 C.ar    1  UNL1        0.0714
     25 C           2.9738   -2.3498   19.3113 C.ar    1  UNL1        0.0074
     26 C           4.0244   -3.2679   19.8619 C.ar    1  UNL1        0.0693
     27 C           1.5044   -0.2191   19.5381 C.3     1  UNL1        0.4186
     28 F           0.4538    0.6990   18.9875 F       1  UNL1       -0.1659
     29 F           0.5176   -0.7505   20.5350 F       1  UNL1       -0.1659
     30 F           2.4912    0.3122   18.5412 F       1  UNL1       -0.1659
     31 C           4.4431   -4.4804   19.0843 C.3     1  UNL1        0.4183
     32 F           4.8619   -5.6928   18.3068 F       1  UNL1       -0.1659
     33 F           5.4764   -3.6634   18.3669 F       1  UNL1       -0.1659
     34 F           3.4098   -5.2974   19.8018 F       1  UNL1       -0.1659
@<TRIPOS>BOND
     1     6     7    2
     2     7     8   am
     3     8     1    1
     4     1     2   ar
     5     2     3   ar
     6     3     4   ar
     7     4    20    1
     8    20    21    1
     9    21    22   ar
    10    22    23   ar
    11    23    24   ar
    12    24    27    1
    13    27    28    1
    14    27    29    1
    15    27    30    1
    16    24    25   ar
    17    25    26   ar
    18    26    31    1
    19    31    32    1
    20    31    33    1
    21    31    34    1
    22     4     5   ar
    23     7    10    1
    24    10    11   ar
    25    11    12   ar
    26    12    15    1
    27    15    16   ar
    28    16    17   ar
    29    17    18   ar
    30    18    19   ar
    31    12    13   ar
    32    13    14   ar
    33     5     1   ar
    34    14    10   ar
    35    26    21   ar
    36    19    15   ar
    37     8     9    1
@<TRIPOS>MOLECULE
*****
 34 37 0 0 0
SMALL
GASTEIGER

@<TRIPOS>ATOM
      1 C           1.5234    0.7319   25.3759 C.ar    1  UNL1        0.0908
      2 C           0.3358    1.2925   24.6511 C.ar    1  UNL1        0.1363
      3 N           0.6884    1.3994   23.1970 N.ar    1  UNL1       -0.1660
      4 N           2.0938    0.9049   23.0232 N.ar    1  UNL1       -0.2436
      5 C           2.6099    0.4924   24.3699 C.ar    1  UNL1        0.1117
      6 O           1.8546    3.0044   27.3063 O.2     1  UNL1       -0.2680
      7 C           1.7750    1.5950   27.8135 C.2     1  UNL1        0.2706
      8 N           1.6094    0.4587   26.8484 N.am    1  UNL1       -0.2766
      9 H           1.5571   -0.4663   27.1813 H       1  UNL1        0.1553
     10 C           1.8610    1.3219   29.2860 C.ar    1  UNL1        0.1765
     11 C           2.8949    0.4746   29.9666 C.ar    1  UNL1        0.0704
     12 C           2.6011    0.4772   31.4375 C.ar    1  UNL1        0.2113
     13 O           1.3857    1.3261   31.6660 O.2     1  UNL1       -0.3501
     14 N           0.9283    1.8482   30.3363 N.ar    1  UNL1       -0.0722
     15 C           3.3851   -0.2427   32.4944 C.ar    1  UNL1        0.1824
     16 C           3.9739    0.3736   33.7288 C.ar    1  UNL1        0.0440
     17 C           4.6707   -0.7081   34.4998 C.ar    1  UNL1        0.0439
     18 C           4.5125   -1.9929   33.7420 C.ar    1  UNL1        0.1798
     19 O           3.7179   -1.7053   32.5026 O.2     1  UNL1       -0.4472
     20 C           2.8504    0.8352   21.7299 C.3     1  UNL1        0.1538
     21 C           3.2083   -0.4973   21.1412 C.ar    1  UNL1        0.0060
     22 C           4.1255   -1.4233   21.8838 C.ar    1  UNL1       -0.0024
     23 C           4.4834   -2.7557   21.2952 C.ar    1  UNL1        0.0036
     24 C           3.9242   -3.1621   19.9640 C.ar    1  UNL1        0.0714
     25 C           3.0070   -2.2361   19.2214 C.ar    1  UNL1        0.0074
     26 C           2.6491   -0.9037   19.8101 C.ar    1  UNL1        0.0693
     27 C           4.2821   -4.4945   19.3753 C.3     1  UNL1        0.4186
     28 F           4.6400   -5.8269   18.7866 F       1  UNL1       -0.1659
     29 F           5.7183   -4.2729   19.7468 F       1  UNL1       -0.1659
     30 F           2.8459   -4.7162   19.0037 F       1  UNL1       -0.1659
     31 C           1.7320    0.0223   19.0675 C.3     1  UNL1        0.4183
     32 F           0.8148    0.9483   18.3250 F       1  UNL1       -0.1659
     33 F           2.8863    0.4997   18.2370 F       1  UNL1       -0.1659
     34 F           0.5776   -0.4550   19.8980 F       1  UNL1       -0.1659
@<TRIPOS>BOND
     1     6     7    2
     2     7     8   am
     3     8     1    1
     4     1     2   ar
     5     2     3   ar
     6     3     4   ar
     7     4    20    1
     8    20    21    1
     9    21    22   ar
    10    22    23   ar
    11    23    24   ar
    12    24    27    1
    13    27    28    1
    14    27    29    1
    15    27    30    1
    16    24    25   ar
    17    25    26   ar
    18    26    31    1
    19    31    32    1
    20    31    33    1
    21    31    34    1
    22     4     5   ar
    23     7    10    1
    24    10    11   ar
    25    11    12   ar
    26    12    15    1
    27    15    16   ar
    28    16    17   ar
    29    17    18   ar
    30    18    19   ar
    31    12    13   ar
    32    13    14   ar
    33     5     1   ar
    34    14    10   ar
    35    26    21   ar
    36    19    15   ar
    37     8     9    1
@<TRIPOS>MOLECULE
*****
 34 37 0 0 0
SMALL
GASTEIGER

@<TRIPOS>ATOM
      1 C           6.1571   -3.2635   22.4251 C.ar    1  UNL1        0.0908
      2 C           7.0688   -2.2425   21.8114 C.ar    1  UNL1        0.1363
      3 N           6.4458   -1.7759   20.5292 N.ar    1  UNL1       -0.1660
      4 N           5.1492   -2.5086   20.3503 N.ar    1  UNL1       -0.2436
      5 C           4.9708   -3.4279   21.5220 C.ar    1  UNL1        0.1117
      6 O           8.0491   -5.5901   22.5124 O.2     1  UNL1       -0.2680
      7 C           7.3368   -5.1554   23.7589 C.2     1  UNL1        0.2706
      8 N           6.3908   -3.9921   23.7152 N.am    1  UNL1       -0.2766
      9 H           5.9233   -3.7068   24.5333 H       1  UNL1        0.1553
     10 C           7.5705   -5.8841   25.0490 C.ar    1  UNL1        0.1765
     11 C           7.4599   -5.2978   26.4253 C.ar    1  UNL1        0.0704
     12 C           7.7769   -6.3783   27.4162 C.ar    1  UNL1        0.2113
     13 O           8.0835   -7.6324   26.6525 O.2     1  UNL1       -0.3501
     14 N           7.9559   -7.3269   25.1895 N.ar    1  UNL1       -0.0722
     15 C           7.7858   -6.2306   28.9089 C.ar    1  UNL1        0.1824
     16 C           8.9156   -6.5983   29.8246 C.ar    1  UNL1        0.0440
     17 C           8.4946   -6.2842   31.2296 C.ar    1  UNL1        0.0439
     18 C           7.1045   -5.7225   31.1823 C.ar    1  UNL1        0.1798
     19 O           6.6665   -5.6893   29.7480 O.2     1  UNL1       -0.4472
     20 C           4.1980   -2.3498   19.2014 C.3     1  UNL1        0.1538
     21 C           3.1756   -1.2522   19.2203 C.ar    1  UNL1        0.0060
     22 C           2.0148   -1.3248   20.1675 C.ar    1  UNL1       -0.0024
     23 C           0.9925   -0.2273   20.1865 C.ar    1  UNL1        0.0036
     24 C           1.1311    0.9428   19.2582 C.ar    1  UNL1        0.0714
     25 C           2.2919    1.0153   18.3110 C.ar    1  UNL1        0.0074
     26 C           3.3142   -0.0821   18.2920 C.ar    1  UNL1        0.0693
     27 C           0.1087    2.0403   19.2771 C.3     1  UNL1        0.4186
     28 F          -0.9135    3.1379   19.2960 F       1  UNL1       -0.1659
     29 F           0.5181    2.4454   17.8921 F       1  UNL1       -0.1659
     30 F          -0.3006    1.6353   20.6621 F       1  UNL1       -0.1659
     31 C           4.4750   -0.0096   17.3448 C.3     1  UNL1        0.4183
     32 F           5.6358    0.0630   16.3976 F       1  UNL1       -0.1659
     33 F           3.6801   -0.7544   16.3136 F       1  UNL1       -0.1659
     34 F           5.2699    0.7352   18.3760 F       1  UNL1       -0.1659
@<TRIPOS>BOND
     1     6     7    2
     2     7     8   am
     3     8     1    1
     4     1     2   ar
     5     2     3   ar
     6     3     4   ar
     7     4    20    1
     8    20    21    1
     9    21    22   ar
    10    22    23   ar
    11    23    24   ar
    12    24    27    1
    13    27    28    1
    14    27    29    1
    15    27    30    1
    16    24    25   ar
    17    25    26   ar
    18    26    31    1
    19    31    32    1
    20    31    33    1
    21    31    34    1
    22     4     5   ar
    23     7    10    1
    24    10    11   ar
    25    11    12   ar
    26    12    15    1
    27    15    16   ar
    28    16    17   ar
    29    17    18   ar
    30    18    19   ar
    31    12    13   ar
    32    13    14   ar
    33     5     1   ar
    34    14    10   ar
    35    26    21   ar
    36    19    15   ar
    37     8     9    1
@<TRIPOS>MOLECULE
*****
 34 37 0 0 0
SMALL
GASTEIGER

@<TRIPOS>ATOM
      1 C           3.6495    0.9696   26.1518 C.ar    1  UNL1        0.0908
      2 C           4.9774    1.0005   25.4549 C.ar    1  UNL1        0.1363
      3 N           4.7474    0.6913   24.0053 N.ar    1  UNL1       -0.1660
      4 N           3.2773    0.4693   23.8062 N.ar    1  UNL1       -0.2436
      5 C           2.5988    0.6413   25.1329 C.ar    1  UNL1        0.1117
      6 O           2.9603   -1.3095   27.9770 O.2     1  UNL1       -0.2680
      7 C           3.0690    0.0830   28.5240 C.2     1  UNL1        0.2706
      8 N           3.4136    1.2225   27.6114 N.am    1  UNL1       -0.2766
      9 H           3.4850    2.1364   27.9704 H       1  UNL1        0.1553
     10 C           2.8332    0.3359   29.9836 C.ar    1  UNL1        0.1765
     11 C           3.8091    0.0750   31.0925 C.ar    1  UNL1        0.0704
     12 C           3.1591    0.4718   32.3848 C.ar    1  UNL1        0.2113
     13 O           1.7816    0.9780   32.0746 O.2     1  UNL1       -0.3501
     14 N           1.5802    0.8940   30.5906 N.ar    1  UNL1       -0.0722
     15 C           3.7781    0.3789   33.7480 C.ar    1  UNL1        0.1824
     16 C           4.5741   -0.7768   34.2779 C.ar    1  UNL1        0.0440
     17 C           4.9977   -0.4447   35.6780 C.ar    1  UNL1        0.0439
     18 C           4.4635    0.9162   36.0134 C.ar    1  UNL1        0.1798
     19 O           3.7097    1.4253   34.8205 O.2     1  UNL1       -0.4472
     20 C           2.6040    0.1342   22.5084 C.3     1  UNL1        0.1538
     21 C           3.0615   -1.0505   21.7102 C.ar    1  UNL1        0.0060
     22 C           3.9772   -2.0641   22.3299 C.ar    1  UNL1       -0.0024
     23 C           4.4346   -3.2489   21.5318 C.ar    1  UNL1        0.0036
     24 C           3.9763   -3.4200   20.1138 C.ar    1  UNL1        0.0714
     25 C           3.0606   -2.4064   19.4940 C.ar    1  UNL1        0.0074
     26 C           2.6032   -1.2217   20.2922 C.ar    1  UNL1        0.0693
     27 C           4.4337   -4.6048   19.3156 C.3     1  UNL1        0.4186
     28 F           4.8912   -5.7895   18.5174 F       1  UNL1       -0.1659
     29 F           5.8152   -4.4513   19.8795 F       1  UNL1       -0.1659
     30 F           3.0523   -4.7583   18.7517 F       1  UNL1       -0.1659
     31 C           1.6875   -0.2081   19.6724 C.3     1  UNL1        0.4183
     32 F           0.7718    0.8055   19.0527 F       1  UNL1       -0.1659
     33 F           2.8659    0.4676   19.0364 F       1  UNL1       -0.1659
     34 F           0.5090   -0.8838   20.3085 F       1  UNL1       -0.1659
@<TRIPOS>BOND
     1     6     7    2
     2     7     8   am
     3     8     1    1
     4     1     2   ar
     5     2     3   ar
     6     3     4   ar
     7     4    20    1
     8    20    21    1
     9    21    22   ar
    10    22    23   ar
    11    23    24   ar
    12    24    27    1
    13    27    28    1
    14    27    29    1
    15    27    30    1
    16    24    25   ar
    17    25    26   ar
    18    26    31    1
    19    31    32    1
    20    31    33    1
    21    31    34    1
    22     4     5   ar
    23     7    10    1
    24    10    11   ar
    25    11    12   ar
    26    12    15    1
    27    15    16   ar
    28    16    17   ar
    29    17    18   ar
    30    18    19   ar
    31    12    13   ar
    32    13    14   ar
    33     5     1   ar
    34    14    10   ar
    35    26    21   ar
    36    19    15   ar
    37     8     9    1
@<TRIPOS>MOLECULE
*****
 34 37 0 0 0
SMALL
GASTEIGER

@<TRIPOS>ATOM
      1 C           0.8059    1.3451   24.3682 C.ar    1  UNL1        0.0908
      2 C           1.9679    0.8844   25.1976 C.ar    1  UNL1        0.1363
      3 N           3.1206    0.6212   24.2746 N.ar    1  UNL1       -0.1660
      4 N           2.6711    0.9192   22.8748 N.ar    1  UNL1       -0.2436
      5 C           1.2406    1.3665   22.9328 C.ar    1  UNL1        0.1117
      6 O          -0.0488    4.2207   24.3972 O.2     1  UNL1       -0.2680
      7 C          -0.9796    3.1564   24.8984 C.2     1  UNL1        0.2706
      8 N          -0.5522    1.7187   24.8839 N.am    1  UNL1       -0.2766
      9 H          -1.1631    1.0202   25.2129 H       1  UNL1        0.1553
     10 C          -2.3377    3.5301   25.4141 C.ar    1  UNL1        0.1765
     11 C          -3.4883    4.0257   24.5891 C.ar    1  UNL1        0.0704
     12 C          -4.6453    4.2758   25.5103 C.ar    1  UNL1        0.2113
     13 O          -4.2099    3.9347   26.9046 O.2     1  UNL1       -0.3501
     14 N          -2.7837    3.4739   26.8451 N.ar    1  UNL1       -0.0722
     15 C          -6.0000    4.7786   25.1078 C.ar    1  UNL1        0.1824
     16 C          -6.7286    4.4335   23.8429 C.ar    1  UNL1        0.0440
     17 C          -8.0428    5.1564   23.8529 C.ar    1  UNL1        0.0439
     18 C          -8.1265    5.9483   25.1241 C.ar    1  UNL1        0.1798
     19 O          -6.8640    5.7148   25.8997 O.2     1  UNL1       -0.4472
     20 C           3.5056    0.7921   21.6349 C.3     1  UNL1        0.1538
     21 C           3.7646   -0.5606   21.0405 C.ar    1  UNL1        0.0060
     22 C           4.9310   -1.3767   21.5133 C.ar    1  UNL1       -0.0024
     23 C           5.1900   -2.7293   20.9190 C.ar    1  UNL1        0.0036
     24 C           4.2826   -3.2659   19.8519 C.ar    1  UNL1        0.0714
     25 C           3.1162   -2.4498   19.3792 C.ar    1  UNL1        0.0074
     26 C           2.8572   -1.0972   19.9735 C.ar    1  UNL1        0.0693
     27 C           4.5416   -4.6186   19.2575 C.3     1  UNL1        0.4186
     28 F           4.8006   -5.9712   18.6632 F       1  UNL1       -0.1659
     29 F           5.9517   -4.5723   19.7667 F       1  UNL1       -0.1659
     30 F           3.1315   -4.6649   18.7483 F       1  UNL1       -0.1659
     31 C           1.6908   -0.2811   19.5007 C.3     1  UNL1        0.4183
     32 F           0.5244    0.5350   19.0280 F       1  UNL1       -0.1659
     33 F           2.5654    0.3735   18.4728 F       1  UNL1       -0.1659
     34 F           0.8162   -0.9357   20.5287 F       1  UNL1       -0.1659
@<TRIPOS>BOND
     1     6     7    2
     2     7     8   am
     3     8     1    1
     4     1     2   ar
     5     2     3   ar
     6     3     4   ar
     7     4    20    1
     8    20    21    1
     9    21    22   ar
    10    22    23   ar
    11    23    24   ar
    12    24    27    1
    13    27    28    1
    14    27    29    1
    15    27    30    1
    16    24    25   ar
    17    25    26   ar
    18    26    31    1
    19    31    32    1
    20    31    33    1
    21    31    34    1
    22     4     5   ar
    23     7    10    1
    24    10    11   ar
    25    11    12   ar
    26    12    15    1
    27    15    16   ar
    28    16    17   ar
    29    17    18   ar
    30    18    19   ar
    31    12    13   ar
    32    13    14   ar
    33     5     1   ar
    34    14    10   ar
    35    26    21   ar
    36    19    15   ar
    37     8     9    1
@<TRIPOS>MOLECULE
*****
 34 37 0 0 0
SMALL
GASTEIGER

@<TRIPOS>ATOM
      1 C           2.9524    0.8725   26.1070 C.ar    1  UNL1        0.0908
      2 C           4.3697    1.0135   25.6363 C.ar    1  UNL1        0.1363
      3 N           4.3875    0.8069   24.1508 N.ar    1  UNL1       -0.1660
      4 N           2.9813    0.5381   23.7032 N.ar    1  UNL1       -0.2436
      5 C           2.0943    0.5787   24.9122 C.ar    1  UNL1        0.1117
      6 O           0.9861    3.0171   26.8382 O.2     1  UNL1       -0.2680
      7 C           1.4936    2.0747   27.8893 C.2     1  UNL1        0.2706
      8 N           2.4767    1.0025   27.5236 N.am    1  UNL1       -0.2766
      9 H           2.8098    0.3840   28.2134 H       1  UNL1        0.1553
     10 C           1.0178    2.2048   29.3059 C.ar    1  UNL1        0.1765
     11 C           1.2537    3.3776   30.2109 C.ar    1  UNL1        0.0704
     12 C           0.6044    3.0826   31.5305 C.ar    1  UNL1        0.2113
     13 O          -0.0327    1.7275   31.4411 O.2     1  UNL1       -0.3501
     14 N           0.2228    1.1850   30.0662 N.ar    1  UNL1       -0.0722
     15 C           0.5940    3.9843   32.7291 C.ar    1  UNL1        0.1824
     16 C          -0.3642    5.1117   32.9761 C.ar    1  UNL1        0.0440
     17 C          -0.0103    5.7411   34.2909 C.ar    1  UNL1        0.0439
     18 C           1.1665    5.0028   34.8565 C.ar    1  UNL1        0.1798
     19 O           1.5400    3.9170   33.8912 O.2     1  UNL1       -0.4472
     20 C           2.5395    0.2750   22.2941 C.3     1  UNL1        0.1538
     21 C           3.0110   -0.9557   21.5777 C.ar    1  UNL1        0.0060
     22 C           3.9196   -1.9262   22.2725 C.ar    1  UNL1       -0.0024
     23 C           4.3910   -3.1568   21.5562 C.ar    1  UNL1        0.0036
     24 C           3.9540   -3.4170   20.1451 C.ar    1  UNL1        0.0714
     25 C           3.0455   -2.4465   19.4503 C.ar    1  UNL1        0.0074
     26 C           2.5740   -1.2158   20.1666 C.ar    1  UNL1        0.0693
     27 C           4.4255   -4.6477   19.4287 C.3     1  UNL1        0.4186
     28 F           4.8969   -5.8783   18.7123 F       1  UNL1       -0.1659
     29 F           3.0062   -5.1149   19.2973 F       1  UNL1       -0.1659
     30 F           5.8448   -4.1805   19.5600 F       1  UNL1       -0.1659
     31 C           1.6655   -0.2453   19.4718 C.3     1  UNL1        0.4183
     32 F           0.7569    0.7252   18.7771 F       1  UNL1       -0.1659
     33 F           0.4858   -0.8425   20.1802 F       1  UNL1       -0.1659
     34 F           2.8451    0.3519   18.7635 F       1  UNL1       -0.1659
@<TRIPOS>BOND
     1     6     7    2
     2     7     8   am
     3     8     1    1
     4     1     2   ar
     5     2     3   ar
     6     3     4   ar
     7     4    20    1
     8    20    21    1
     9    21    22   ar
    10    22    23   ar
    11    23    24   ar
    12    24    27    1
    13    27    28    1
    14    27    29    1
    15    27    30    1
    16    24    25   ar
    17    25    26   ar
    18    26    31    1
    19    31    32    1
    20    31    33    1
    21    31    34    1
    22     4     5   ar
    23     7    10    1
    24    10    11   ar
    25    11    12   ar
    26    12    15    1
    27    15    16   ar
    28    16    17   ar
    29    17    18   ar
    30    18    19   ar
    31    12    13   ar
    32    13    14   ar
    33     5     1   ar
    34    14    10   ar
    35    26    21   ar
    36    19    15   ar
    37     8     9    1
@<TRIPOS>MOLECULE
*****
 34 37 0 0 0
SMALL
GASTEIGER

@<TRIPOS>ATOM
      1 C           3.7762    0.9086   26.3213 C.ar    1  UNL1        0.0908
      2 C           5.0313    1.1070   25.5242 C.ar    1  UNL1        0.1363
      3 N           4.7109    0.8451   24.0824 N.ar    1  UNL1       -0.1660
      4 N           3.2579    0.4848   23.9885 N.ar    1  UNL1       -0.2436
      5 C           2.6802    0.5240   25.3722 C.ar    1  UNL1        0.1117
      6 O           3.1141   -1.4676   28.0290 O.2     1  UNL1       -0.2680
      7 C           3.3099   -0.1211   28.6607 C.2     1  UNL1        0.2706
      8 N           3.6409    1.0669   27.8068 N.am    1  UNL1       -0.2766
      9 H           3.7694    1.9505   28.2214 H       1  UNL1        0.1553
     10 C           3.1746    0.0371   30.1461 C.ar    1  UNL1        0.1765
     11 C           2.8509    1.3096   30.8714 C.ar    1  UNL1        0.0704
     12 C           2.8155    1.0096   32.3406 C.ar    1  UNL1        0.2113
     13 O           3.1173   -0.4483   32.5235 O.2     1  UNL1       -0.3501
     14 N           3.3393   -1.0493   31.1672 N.ar    1  UNL1       -0.0722
     15 C           2.5286    1.9946   33.4349 C.ar    1  UNL1        0.1824
     16 C           1.7552    3.2718   33.2911 C.ar    1  UNL1        0.0440
     17 C           1.7134    3.9419   34.6324 C.ar    1  UNL1        0.0439
     18 C           2.4610    3.0789   35.6052 C.ar    1  UNL1        0.1798
     19 O           2.9648    1.8754   34.8651 O.2     1  UNL1       -0.4472
     20 C           2.5132    0.1450   22.7315 C.3     1  UNL1        0.1538
     21 C           2.9760   -0.9923   21.8698 C.ar    1  UNL1        0.0060
     22 C           3.8916   -2.0373   22.4352 C.ar    1  UNL1       -0.0024
     23 C           4.3544   -3.1745   21.5735 C.ar    1  UNL1        0.0036
     24 C           3.9017   -3.2667   20.1464 C.ar    1  UNL1        0.0714
     25 C           2.9862   -2.2216   19.5811 C.ar    1  UNL1        0.0074
     26 C           2.5233   -1.0844   20.4427 C.ar    1  UNL1        0.0693
     27 C           4.3645   -4.4039   19.2847 C.3     1  UNL1        0.4186
     28 F           4.8274   -5.5411   18.4230 F       1  UNL1       -0.1659
     29 F           5.7781   -4.1612   19.7237 F       1  UNL1       -0.1659
     30 F           2.9509   -4.6465   18.8456 F       1  UNL1       -0.1659
     31 C           1.6078   -0.0393   19.8774 C.3     1  UNL1        0.4183
     32 F           0.6923    1.0057   19.3120 F       1  UNL1       -0.1659
     33 F           0.4197   -0.8361   20.3285 F       1  UNL1       -0.1659
     34 F           2.7959    0.7574   19.4262 F       1  UNL1       -0.1659
@<TRIPOS>BOND
     1     6     7    2
     2     7     8   am
     3     8     1    1
     4     1     2   ar
     5     2     3   ar
     6     3     4   ar
     7     4    20    1
     8    20    21    1
     9    21    22   ar
    10    22    23   ar
    11    23    24   ar
    12    24    27    1
    13    27    28    1
    14    27    29    1
    15    27    30    1
    16    24    25   ar
    17    25    26   ar
    18    26    31    1
    19    31    32    1
    20    31    33    1
    21    31    34    1
    22     4     5   ar
    23     7    10    1
    24    10    11   ar
    25    11    12   ar
    26    12    15    1
    27    15    16   ar
    28    16    17   ar
    29    17    18   ar
    30    18    19   ar
    31    12    13   ar
    32    13    14   ar
    33     5     1   ar
    34    14    10   ar
    35    26    21   ar
    36    19    15   ar
    37     8     9    1
@<TRIPOS>MOLECULE
*****
 34 37 0 0 0
SMALL
GASTEIGER

@<TRIPOS>ATOM
      1 C         -16.2539   -1.0376   19.6802 C.ar    1  UNL1        0.0908
      2 C         -17.1176   -1.8663   18.7760 C.ar    1  UNL1        0.1363
      3 N         -16.2431   -2.4482   17.7051 N.ar    1  UNL1       -0.1660
      4 N         -14.8391   -1.9792   17.9475 N.ar    1  UNL1       -0.2436
      5 C         -14.8458   -1.1074   19.1682 C.ar    1  UNL1        0.1117
      6 O         -16.9468    1.8711   19.4362 O.2     1  UNL1       -0.2680
      7 C         -17.0636    1.1810   20.7629 C.2     1  UNL1        0.2706
      8 N         -16.7172   -0.2734   20.8849 N.am    1  UNL1       -0.2766
      9 H         -16.7938   -0.7263   21.7557 H       1  UNL1        0.1553
     10 C         -17.5269    1.9453   21.9676 C.ar    1  UNL1        0.1765
     11 C         -16.8735    3.1678   22.5409 C.ar    1  UNL1        0.0704
     12 C         -17.6676    3.5994   23.7381 C.ar    1  UNL1        0.2113
     13 O         -18.8117    2.6437   23.9046 O.2     1  UNL1       -0.3501
     14 N         -18.7247    1.6214   22.8104 N.ar    1  UNL1       -0.0722
     15 C         -17.3698    4.7796   24.6147 C.ar    1  UNL1        0.1824
     16 C         -18.3005    5.3863   25.6227 C.ar    1  UNL1        0.0440
     17 C         -17.5950    6.5419   26.2683 C.ar    1  UNL1        0.0439
     18 C         -16.2284    6.6494   25.6594 C.ar    1  UNL1        0.1798
     19 O         -16.0892    5.5602   24.6374 O.2     1  UNL1       -0.4472
     20 C         -13.6390   -2.3218   17.1154 C.3     1  UNL1        0.1538
     21 C         -12.6908   -3.3910   17.5711 C.ar    1  UNL1        0.0060
     22 C         -13.1830   -4.7934   17.7737 C.ar    1  UNL1       -0.0024
     23 C         -12.2349   -5.8626   18.2294 C.ar    1  UNL1        0.0036
     24 C         -10.7944   -5.5294   18.4826 C.ar    1  UNL1        0.0714
     25 C         -10.3022   -4.1271   18.2800 C.ar    1  UNL1        0.0074
     26 C         -11.2503   -3.0579   17.8243 C.ar    1  UNL1        0.0693
     27 C          -9.8462   -6.5987   18.9383 C.3     1  UNL1        0.4186
     28 F          -8.8980   -7.6679   19.3940 F       1  UNL1       -0.1659
     29 F         -10.6146   -7.6166   18.1489 F       1  UNL1       -0.1659
     30 F          -9.0777   -5.5808   19.7278 F       1  UNL1       -0.1659
     31 C         -10.7581   -1.6555   17.6217 C.3     1  UNL1        0.4183
     32 F         -10.2658   -0.2531   17.4191 F       1  UNL1       -0.1659
     33 F         -11.1919   -1.3022   19.0135 F       1  UNL1       -0.1659
     34 F         -10.3243   -2.0088   16.2300 F       1  UNL1       -0.1659
@<TRIPOS>BOND
     1     6     7    2
     2     7     8   am
     3     8     1    1
     4     1     2   ar
     5     2     3   ar
     6     3     4   ar
     7     4    20    1
     8    20    21    1
     9    21    22   ar
    10    22    23   ar
    11    23    24   ar
    12    24    27    1
    13    27    28    1
    14    27    29    1
    15    27    30    1
    16    24    25   ar
    17    25    26   ar
    18    26    31    1
    19    31    32    1
    20    31    33    1
    21    31    34    1
    22     4     5   ar
    23     7    10    1
    24    10    11   ar
    25    11    12   ar
    26    12    15    1
    27    15    16   ar
    28    16    17   ar
    29    17    18   ar
    30    18    19   ar
    31    12    13   ar
    32    13    14   ar
    33     5     1   ar
    34    14    10   ar
    35    26    21   ar
    36    19    15   ar
    37     8     9    1
