@<TRIPOS>MOLECULE
*****
 28 30 0 0 0
SMALL
GASTEIGER

@<TRIPOS>ATOM
      1 N          -6.6005  -17.6045   22.6080 N.pl3   1  UNL1       -0.3200
      2 H          -5.7048  -17.7791   22.9774 H       1  UNL1        0.1476
      3 C          -7.1360  -18.4640   21.5013 C.2     1  UNL1        0.1048
      4 C          -6.6534  -18.8595   20.1373 C.2     1  UNL1        0.1077
      5 C          -7.8933  -19.6795   19.9363 C.2     1  UNL1        0.2500
      6 O          -8.4287  -20.5389   18.8297 O.2     1  UNL1       -0.2817
      7 C          -8.3759  -19.2840   21.3004 C.2     1  UNL1        0.2498
      8 O          -9.5939  -19.5841   22.1229 O.2     1  UNL1       -0.2817
      9 N          -5.4354  -18.5593   19.3148 N.pl3   1  UNL1       -0.3088
     10 H          -5.5334  -18.2198   18.3959 H       1  UNL1        0.1523
     11 C          -4.0682  -18.7766   19.8924 C.ar    1  UNL1        0.0515
     12 C          -2.8708  -18.1505   19.2411 C.ar    1  UNL1        0.0353
     13 C          -1.5036  -18.3678   19.8187 C.ar    1  UNL1        0.1002
     14 N          -1.3339  -19.2111   21.0475 N.ar    1  UNL1       -0.2422
     15 C          -2.5313  -19.8372   21.6988 C.ar    1  UNL1        0.1002
     16 C          -3.8985  -19.6199   21.1212 C.ar    1  UNL1        0.0353
     17 C          -7.4298  -16.4790   23.1517 C.3     1  UNL1        0.1694
     18 C          -7.2531  -16.0364   24.5739 C.ar    1  UNL1        0.0042
     19 C          -8.4190  -16.0606   25.5173 C.ar    1  UNL1       -0.0022
     20 C          -8.2424  -15.6179   26.9395 C.ar    1  UNL1       -0.0003
     21 C          -6.8997  -15.1510   27.4184 C.ar    1  UNL1       -0.0000
     22 C          -5.7337  -15.1268   26.4751 C.ar    1  UNL1       -0.0003
     23 C          -5.9105  -15.5695   25.0528 C.ar    1  UNL1       -0.0022
     24 N          -8.0081  -14.6721   21.3767 N.am    1  UNL1       -0.3272
     25 C          -8.4357  -15.7962   22.2731 C.2     1  UNL1        0.2415
     26 O          -9.8692  -16.2374   22.2909 O.2     1  UNL1       -0.2732
     27 H          -8.6683  -14.2239   20.8000 H       1  UNL1        0.1450
     28 H          -7.0673  -14.3825   21.3649 H       1  UNL1        0.1450
@<TRIPOS>BOND
     1    24    25   am
     2    25    26    2
     3    25    17    1
     4    17     1    1
     5     1     3    1
     6     3     4    2
     7     4     9    1
     8     9    11    1
     9    11    12   ar
    10    12    13   ar
    11    13    14   ar
    12    14    15   ar
    13    15    16   ar
    14     4     5    1
    15     5     6    2
    16     5     7    1
    17     7     8    2
    18    17    18    1
    19    18    19   ar
    20    19    20   ar
    21    20    21   ar
    22    21    22   ar
    23    22    23   ar
    24     7     3    1
    25    23    18   ar
    26    16    11   ar
    27    24    27    1
    28    24    28    1
    29     1     2    1
    30     9    10    1
@<TRIPOS>MOLECULE
*****
 28 30 0 0 0
SMALL
GASTEIGER

@<TRIPOS>ATOM
      1 N          -7.1642  -16.9088   22.1890 N.pl3   1  UNL1       -0.3200
      2 H          -6.9935  -16.2523   21.4755 H       1  UNL1        0.1476
      3 C          -7.5602  -16.4423   23.5586 C.2     1  UNL1        0.1048
      4 C          -8.7511  -16.6500   24.4466 C.2     1  UNL1        0.1077
      5 C          -8.1202  -15.7827   25.4954 C.2     1  UNL1        0.2500
      6 O          -8.5162  -15.3162   26.8649 O.2     1  UNL1       -0.2817
      7 C          -6.9293  -15.5751   24.6073 C.2     1  UNL1        0.2498
      8 O          -5.6411  -14.8150   24.7209 O.2     1  UNL1       -0.2817
      9 N         -10.0392  -17.4100   24.3330 N.pl3   1  UNL1       -0.3088
     10 H         -10.3153  -18.0213   25.0537 H       1  UNL1        0.1523
     11 C         -10.9068  -17.2387   23.1213 C.ar    1  UNL1        0.0515
     12 C         -10.5353  -16.2371   22.0684 C.ar    1  UNL1        0.0353
     13 C         -11.4028  -16.0659   20.8568 C.ar    1  UNL1        0.1002
     14 N         -12.6419  -16.8963   20.6981 N.ar    1  UNL1       -0.2422
     15 C         -13.0134  -17.8979   21.7511 C.ar    1  UNL1        0.1002
     16 C         -12.1458  -18.0691   22.9626 C.ar    1  UNL1        0.0353
     17 C          -7.0282  -18.3757   21.9065 C.3     1  UNL1        0.1694
     18 C          -5.6831  -18.9558   21.5839 C.ar    1  UNL1        0.0042
     19 C          -4.5034  -18.6452   22.4567 C.ar    1  UNL1       -0.0022
     20 C          -3.1583  -19.2253   22.1341 C.ar    1  UNL1       -0.0003
     21 C          -2.9929  -20.1161   20.9386 C.ar    1  UNL1       -0.0000
     22 C          -4.1726  -20.4268   20.0658 C.ar    1  UNL1       -0.0003
     23 C          -5.5177  -19.8466   20.3884 C.ar    1  UNL1       -0.0022
     24 N          -9.1357  -19.3605   20.7494 N.am    1  UNL1       -0.3272
     25 C          -8.2374  -19.2625   21.9467 C.2     1  UNL1        0.2415
     26 O          -8.5483  -20.0511   23.1841 O.2     1  UNL1       -0.2732
     27 H          -9.9293  -19.9425   20.7757 H       1  UNL1        0.1450
     28 H          -8.9316  -18.8429   19.9372 H       1  UNL1        0.1450
@<TRIPOS>BOND
     1    24    25   am
     2    25    26    2
     3    25    17    1
     4    17     1    1
     5     1     3    1
     6     3     4    2
     7     4     9    1
     8     9    11    1
     9    11    12   ar
    10    12    13   ar
    11    13    14   ar
    12    14    15   ar
    13    15    16   ar
    14     4     5    1
    15     5     6    2
    16     5     7    1
    17     7     8    2
    18    17    18    1
    19    18    19   ar
    20    19    20   ar
    21    20    21   ar
    22    21    22   ar
    23    22    23   ar
    24     7     3    1
    25    23    18   ar
    26    16    11   ar
    27    24    27    1
    28    24    28    1
    29     1     2    1
    30     9    10    1
@<TRIPOS>MOLECULE
*****
 28 30 0 0 0
SMALL
GASTEIGER

@<TRIPOS>ATOM
      1 N          -7.7671  -16.0789   22.0202 N.pl3   1  UNL1       -0.3200
      2 H          -7.7254  -15.4249   21.2855 H       1  UNL1        0.1476
      3 C          -7.1440  -15.7577   23.3465 C.2     1  UNL1        0.1048
      4 C          -5.7413  -15.5577   23.8387 C.2     1  UNL1        0.1077
      5 C          -6.2629  -15.3034   25.2219 C.2     1  UNL1        0.2500
      6 O          -5.6399  -14.9822   26.5480 O.2     1  UNL1       -0.2817
      7 C          -7.6657  -15.5034   24.7297 C.2     1  UNL1        0.2498
      8 O          -9.0265  -15.4649   25.3596 O.2     1  UNL1       -0.2817
      9 N          -4.3806  -15.5962   23.2088 N.pl3   1  UNL1       -0.3088
     10 H          -3.8691  -14.7633   23.0908 H       1  UNL1        0.1523
     11 C          -3.7991  -16.9036   22.7586 C.ar    1  UNL1        0.0515
     12 C          -4.5780  -18.1727   22.9393 C.ar    1  UNL1        0.0353
     13 C          -3.9966  -19.4800   22.4891 C.ar    1  UNL1        0.1002
     14 N          -2.6363  -19.5183   21.8582 N.ar    1  UNL1       -0.2422
     15 C          -1.8574  -18.2492   21.6774 C.ar    1  UNL1        0.1002
     16 C          -2.4388  -16.9419   22.1276 C.ar    1  UNL1        0.0353
     17 C          -8.4535  -17.3965   21.8136 C.3     1  UNL1        0.1694
     18 C          -9.9269  -17.5221   22.0650 C.ar    1  UNL1        0.0042
     19 C         -10.9045  -17.1906   20.9767 C.ar    1  UNL1       -0.0022
     20 C         -12.3779  -17.3163   21.2281 C.ar    1  UNL1       -0.0003
     21 C         -12.8738  -17.7734   22.5680 C.ar    1  UNL1       -0.0000
     22 C         -11.8962  -18.1048   23.6564 C.ar    1  UNL1       -0.0003
     23 C         -10.4228  -17.9792   23.4048 C.ar    1  UNL1       -0.0022
     24 N          -6.8583  -18.5138   20.0940 N.am    1  UNL1       -0.3272
     25 C          -7.6665  -18.5885   21.3554 C.2     1  UNL1        0.2415
     26 O          -7.6877  -19.8550   22.1587 O.2     1  UNL1       -0.2732
     27 H          -6.3418  -19.2962   19.7933 H       1  UNL1        0.1450
     28 H          -6.8444  -17.6825   19.5667 H       1  UNL1        0.1450
@<TRIPOS>BOND
     1    24    25   am
     2    25    26    2
     3    25    17    1
     4    17     1    1
     5     1     3    1
     6     3     4    2
     7     4     9    1
     8     9    11    1
     9    11    12   ar
    10    12    13   ar
    11    13    14   ar
    12    14    15   ar
    13    15    16   ar
    14     4     5    1
    15     5     6    2
    16     5     7    1
    17     7     8    2
    18    17    18    1
    19    18    19   ar
    20    19    20   ar
    21    20    21   ar
    22    21    22   ar
    23    22    23   ar
    24     7     3    1
    25    23    18   ar
    26    16    11   ar
    27    24    27    1
    28    24    28    1
    29     1     2    1
    30     9    10    1
@<TRIPOS>MOLECULE
*****
 28 30 0 0 0
SMALL
GASTEIGER

@<TRIPOS>ATOM
      1 N          -7.6118  -17.6621   23.3255 N.pl3   1  UNL1       -0.3200
      2 H          -7.3263  -17.6916   24.2672 H       1  UNL1        0.1476
      3 C          -7.0921  -18.6780   22.3518 C.2     1  UNL1        0.1048
      4 C          -5.7626  -19.3270   22.1047 C.2     1  UNL1        0.1077
      5 C          -6.3571  -20.1146   20.9750 C.2     1  UNL1        0.2500
      6 O          -5.8373  -21.1305   20.0014 O.2     1  UNL1       -0.2817
      7 C          -7.6866  -19.4656   21.2221 C.2     1  UNL1        0.2498
      8 O          -9.0472  -19.5636   20.5981 O.2     1  UNL1       -0.2817
      9 N          -4.4021  -19.2290   22.7287 N.pl3   1  UNL1       -0.3088
     10 H          -4.2341  -19.6354   23.6095 H       1  UNL1        0.1523
     11 C          -3.2975  -18.5117   22.0107 C.ar    1  UNL1        0.0515
     12 C          -2.5289  -19.2102   20.9285 C.ar    1  UNL1        0.0353
     13 C          -1.4243  -18.4930   20.2105 C.ar    1  UNL1        0.1002
     14 N          -1.0884  -17.0772   20.5748 N.ar    1  UNL1       -0.2422
     15 C          -1.8570  -16.3787   21.6570 C.ar    1  UNL1        0.1002
     16 C          -2.9616  -17.0959   22.3750 C.ar    1  UNL1        0.0353
     17 C          -8.5667  -16.6012   22.8643 C.3     1  UNL1        0.1694
     18 C         -10.0148  -16.9336   22.6583 C.ar    1  UNL1        0.0042
     19 C         -10.7127  -16.5000   21.4033 C.ar    1  UNL1       -0.0022
     20 C         -12.1608  -16.8324   21.1973 C.ar    1  UNL1       -0.0003
     21 C         -12.9110  -17.5986   22.2463 C.ar    1  UNL1       -0.0000
     22 C         -12.2131  -18.0322   23.5012 C.ar    1  UNL1       -0.0003
     23 C         -10.7649  -17.6997   23.7072 C.ar    1  UNL1       -0.0022
     24 N          -7.8159  -14.2807   23.7599 N.am    1  UNL1       -0.3272
     25 C          -8.0734  -15.2077   22.6090 C.2     1  UNL1        0.2415
     26 O          -7.8376  -14.7413   21.2031 O.2     1  UNL1       -0.2732
     27 H          -7.4921  -13.3662   23.5924 H       1  UNL1        0.1450
     28 H          -7.9707  -14.5869   24.6827 H       1  UNL1        0.1450
@<TRIPOS>BOND
     1    24    25   am
     2    25    26    2
     3    25    17    1
     4    17     1    1
     5     1     3    1
     6     3     4    2
     7     4     9    1
     8     9    11    1
     9    11    12   ar
    10    12    13   ar
    11    13    14   ar
    12    14    15   ar
    13    15    16   ar
    14     4     5    1
    15     5     6    2
    16     5     7    1
    17     7     8    2
    18    17    18    1
    19    18    19   ar
    20    19    20   ar
    21    20    21   ar
    22    21    22   ar
    23    22    23   ar
    24     7     3    1
    25    23    18   ar
    26    16    11   ar
    27    24    27    1
    28    24    28    1
    29     1     2    1
    30     9    10    1
@<TRIPOS>MOLECULE
*****
 28 30 0 0 0
SMALL
GASTEIGER

@<TRIPOS>ATOM
      1 N          -7.4117  -16.7812   22.1509 N.pl3   1  UNL1       -0.3200
      2 H          -7.0803  -15.9812   21.6826 H       1  UNL1        0.1476
      3 C          -7.0247  -18.1475   21.6673 C.2     1  UNL1        0.1048
      4 C          -5.8203  -19.0272   21.8266 C.2     1  UNL1        0.1077
      5 C          -6.4774  -20.0795   20.9836 C.2     1  UNL1        0.2500
      6 O          -6.0904  -21.4457   20.5001 O.2     1  UNL1       -0.2817
      7 C          -7.6819  -19.1998   20.8243 C.2     1  UNL1        0.2498
      8 O          -8.9983  -19.3219   20.1156 O.2     1  UNL1       -0.2817
      9 N          -4.5039  -18.9051   22.5353 N.pl3   1  UNL1       -0.3088
     10 H          -4.4053  -19.2475   23.4530 H       1  UNL1        0.1523
     11 C          -3.3377  -18.2613   21.8457 C.ar    1  UNL1        0.0515
     12 C          -2.6339  -18.9803   20.7332 C.ar    1  UNL1        0.0353
     13 C          -1.4678  -18.3365   20.0436 C.ar    1  UNL1        0.1002
     14 N          -1.0054  -16.9736   20.4666 N.ar    1  UNL1       -0.2422
     15 C          -1.7091  -16.2546   21.5791 C.ar    1  UNL1        0.1002
     16 C          -2.8753  -16.8985   22.2686 C.ar    1  UNL1        0.0353
     17 C          -8.3036  -16.6341   23.3479 C.3     1  UNL1        0.1694
     18 C          -7.7360  -16.1581   24.6522 C.ar    1  UNL1        0.0042
     19 C          -6.3088  -15.7026   24.7274 C.ar    1  UNL1       -0.0022
     20 C          -5.7411  -15.2266   26.0317 C.ar    1  UNL1       -0.0003
     21 C          -6.6007  -15.2063   27.2609 C.ar    1  UNL1       -0.0000
     22 C          -8.0278  -15.6619   27.1857 C.ar    1  UNL1       -0.0003
     23 C          -8.5955  -16.1378   25.8813 C.ar    1  UNL1       -0.0022
     24 N         -10.7328  -15.9236   22.7612 N.am    1  UNL1       -0.3272
     25 C          -9.7632  -16.9629   23.2406 C.2     1  UNL1        0.2415
     26 O         -10.2532  -18.3309   23.6126 O.2     1  UNL1       -0.2732
     27 H         -11.6908  -16.1394   22.6908 H       1  UNL1        0.1450
     28 H         -10.4112  -15.0257   22.5171 H       1  UNL1        0.1450
@<TRIPOS>BOND
     1    24    25   am
     2    25    26    2
     3    25    17    1
     4    17     1    1
     5     1     3    1
     6     3     4    2
     7     4     9    1
     8     9    11    1
     9    11    12   ar
    10    12    13   ar
    11    13    14   ar
    12    14    15   ar
    13    15    16   ar
    14     4     5    1
    15     5     6    2
    16     5     7    1
    17     7     8    2
    18    17    18    1
    19    18    19   ar
    20    19    20   ar
    21    20    21   ar
    22    21    22   ar
    23    22    23   ar
    24     7     3    1
    25    23    18   ar
    26    16    11   ar
    27    24    27    1
    28    24    28    1
    29     1     2    1
    30     9    10    1
@<TRIPOS>MOLECULE
*****
 28 30 0 0 0
SMALL
GASTEIGER

@<TRIPOS>ATOM
      1 N          -7.9154  -16.5593   22.0963 N.pl3   1  UNL1       -0.3200
      2 H          -7.8208  -15.7715   21.5136 H       1  UNL1        0.1476
      3 C          -7.4110  -17.8958   21.6384 C.2     1  UNL1        0.1048
      4 C          -7.9232  -18.9645   20.7189 C.2     1  UNL1        0.1077
      5 C          -6.6978  -19.7858   20.9909 C.2     1  UNL1        0.2500
      6 O          -6.1934  -21.1221   20.5330 O.2     1  UNL1       -0.2817
      7 C          -6.1856  -18.7170   21.9104 C.2     1  UNL1        0.2498
      8 O          -4.9569  -18.5420   22.7529 O.2     1  UNL1       -0.2817
      9 N          -9.1518  -19.1395   19.8765 N.pl3   1  UNL1       -0.3088
     10 H          -9.1408  -19.7612   19.1131 H       1  UNL1        0.1523
     11 C         -10.3973  -18.3674   20.1970 C.ar    1  UNL1        0.0515
     12 C         -10.6057  -17.0029   19.6100 C.ar    1  UNL1        0.0353
     13 C         -11.8512  -16.2309   19.9306 C.ar    1  UNL1        0.1002
     14 N         -12.8881  -16.8233   20.8382 N.ar    1  UNL1       -0.2422
     15 C         -12.6797  -18.1879   21.4252 C.ar    1  UNL1        0.1002
     16 C         -11.4342  -18.9599   21.1046 C.ar    1  UNL1        0.0353
     17 C          -8.5639  -16.4234   23.4420 C.3     1  UNL1        0.1694
     18 C          -7.7463  -16.0124   24.6305 C.ar    1  UNL1        0.0042
     19 C          -8.3813  -15.9354   25.9873 C.ar    1  UNL1       -0.0022
     20 C          -7.5637  -15.5244   27.1758 C.ar    1  UNL1       -0.0003
     21 C          -6.1110  -15.1904   27.0075 C.ar    1  UNL1       -0.0000
     22 C          -5.4760  -15.2674   25.6507 C.ar    1  UNL1       -0.0003
     23 C          -6.2937  -15.6784   24.4622 C.ar    1  UNL1       -0.0022
     24 N         -11.0366  -15.6843   23.1425 N.am    1  UNL1       -0.3272
     25 C         -10.0301  -16.6984   23.5992 C.2     1  UNL1        0.2415
     26 O         -10.4898  -17.9875   24.2130 O.2     1  UNL1       -0.2732
     27 H         -11.9989  -15.8648   23.2456 H       1  UNL1        0.1450
     28 H         -10.7349  -14.8382   22.7396 H       1  UNL1        0.1450
@<TRIPOS>BOND
     1    24    25   am
     2    25    26    2
     3    25    17    1
     4    17     1    1
     5     1     3    1
     6     3     4    2
     7     4     9    1
     8     9    11    1
     9    11    12   ar
    10    12    13   ar
    11    13    14   ar
    12    14    15   ar
    13    15    16   ar
    14     4     5    1
    15     5     6    2
    16     5     7    1
    17     7     8    2
    18    17    18    1
    19    18    19   ar
    20    19    20   ar
    21    20    21   ar
    22    21    22   ar
    23    22    23   ar
    24     7     3    1
    25    23    18   ar
    26    16    11   ar
    27    24    27    1
    28    24    28    1
    29     1     2    1
    30     9    10    1
@<TRIPOS>MOLECULE
*****
 28 30 0 0 0
SMALL
GASTEIGER

@<TRIPOS>ATOM
      1 N          -9.0173  -19.6876   22.0615 N.pl3   1  UNL1       -0.3200
      2 H          -9.3752  -20.2563   21.3420 H       1  UNL1        0.1476
      3 C          -7.5842  -19.2459   22.0256 C.2     1  UNL1        0.1048
      4 C          -6.8637  -17.9592   22.3002 C.2     1  UNL1        0.1077
      5 C          -5.5576  -18.6211   21.9749 C.2     1  UNL1        0.2500
      6 O          -4.1246  -18.1793   21.9390 O.2     1  UNL1       -0.2817
      7 C          -6.2780  -19.9078   21.7002 C.2     1  UNL1        0.2498
      8 O          -5.8639  -21.2857   21.2760 O.2     1  UNL1       -0.2817
      9 N          -7.2779  -16.5814   22.7245 N.pl3   1  UNL1       -0.3088
     10 H          -7.6963  -15.9713   22.0750 H       1  UNL1        0.1523
     11 C          -7.0545  -16.1331   24.1385 C.ar    1  UNL1        0.0515
     12 C          -5.6664  -15.8278   24.6180 C.ar    1  UNL1        0.0353
     13 C          -5.4431  -15.3795   26.0319 C.ar    1  UNL1        0.1002
     14 N          -6.6078  -15.2365   26.9662 N.ar    1  UNL1       -0.2422
     15 C          -7.9959  -15.5418   26.4867 C.ar    1  UNL1        0.1002
     16 C          -8.2192  -15.9901   25.0728 C.ar    1  UNL1        0.0353
     17 C          -9.9049  -19.2628   23.1936 C.3     1  UNL1        0.1694
     18 C         -10.9666  -18.2278   22.9665 C.ar    1  UNL1        0.0042
     19 C         -10.6755  -17.0297   22.1122 C.ar    1  UNL1       -0.0022
     20 C         -11.7372  -15.9947   21.8852 C.ar    1  UNL1       -0.0003
     21 C         -13.0900  -16.1578   22.5125 C.ar    1  UNL1       -0.0000
     22 C         -13.3810  -17.3559   23.3668 C.ar    1  UNL1       -0.0003
     23 C         -12.3193  -18.3909   23.5938 C.ar    1  UNL1       -0.0022
     24 N          -9.6683  -21.3642   24.7029 N.am    1  UNL1       -0.3272
     25 C          -9.7308  -19.8731   24.5528 C.2     1  UNL1        0.2415
     26 O          -9.6192  -18.9922   25.7617 O.2     1  UNL1       -0.2732
     27 H          -9.5541  -21.7648   25.5950 H       1  UNL1        0.1450
     28 H          -9.7416  -21.9424   23.9095 H       1  UNL1        0.1450
@<TRIPOS>BOND
     1    24    25   am
     2    25    26    2
     3    25    17    1
     4    17     1    1
     5     1     3    1
     6     3     4    2
     7     4     9    1
     8     9    11    1
     9    11    12   ar
    10    12    13   ar
    11    13    14   ar
    12    14    15   ar
    13    15    16   ar
    14     4     5    1
    15     5     6    2
    16     5     7    1
    17     7     8    2
    18    17    18    1
    19    18    19   ar
    20    19    20   ar
    21    20    21   ar
    22    21    22   ar
    23    22    23   ar
    24     7     3    1
    25    23    18   ar
    26    16    11   ar
    27    24    27    1
    28    24    28    1
    29     1     2    1
    30     9    10    1
@<TRIPOS>MOLECULE
*****
 28 30 0 0 0
SMALL
GASTEIGER

@<TRIPOS>ATOM
      1 N          -8.7326  -17.3986   22.0273 N.pl3   1  UNL1       -0.3200
      2 H          -8.2734  -16.7529   22.6117 H       1  UNL1        0.1476
      3 C          -7.9634  -18.5264   21.4054 C.2     1  UNL1        0.1048
      4 C          -6.6204  -19.1513   21.6414 C.2     1  UNL1        0.1077
      5 C          -6.8757  -20.1212   20.5260 C.2     1  UNL1        0.2500
      6 O          -6.1065  -21.2489   19.9042 O.2     1  UNL1       -0.2817
      7 C          -8.2187  -19.4963   20.2900 C.2     1  UNL1        0.2498
      8 O          -9.3490  -19.7402   19.3345 O.2     1  UNL1       -0.2817
      9 N          -5.4902  -18.9073   22.5970 N.pl3   1  UNL1       -0.3088
     10 H          -5.6202  -19.0559   23.5615 H       1  UNL1        0.1523
     11 C          -4.1617  -18.4370   22.0830 C.ar    1  UNL1        0.0515
     12 C          -3.5546  -17.1744   22.6188 C.ar    1  UNL1        0.0353
     13 C          -2.2262  -16.7041   22.1048 C.ar    1  UNL1        0.1002
     14 N          -1.5050  -17.4965   21.0551 N.ar    1  UNL1       -0.2422
     15 C          -2.1121  -18.7591   20.5193 C.ar    1  UNL1        0.1002
     16 C          -3.4404  -19.2294   21.0333 C.ar    1  UNL1        0.0353
     17 C         -10.2013  -17.2547   21.7588 C.3     1  UNL1        0.1694
     18 C         -11.1988  -17.6993   22.7870 C.ar    1  UNL1        0.0042
     19 C         -12.6116  -17.1988   22.7270 C.ar    1  UNL1       -0.0022
     20 C         -13.6091  -17.6434   23.7552 C.ar    1  UNL1       -0.0003
     21 C         -13.1939  -18.5886   24.8435 C.ar    1  UNL1       -0.0000
     22 C         -11.7811  -19.0890   24.9035 C.ar    1  UNL1       -0.0003
     23 C         -10.7835  -18.6444   23.8753 C.ar    1  UNL1       -0.0022
     24 N         -11.5181  -17.4833   19.5308 N.am    1  UNL1       -0.3272
     25 C         -10.6725  -16.6661   20.4620 C.2     1  UNL1        0.2415
     26 O         -10.2981  -15.2603   20.0965 O.2     1  UNL1       -0.2732
     27 H         -11.8273  -17.0971   18.6797 H       1  UNL1        0.1450
     28 H         -11.7638  -18.4060   19.7707 H       1  UNL1        0.1450
@<TRIPOS>BOND
     1    24    25   am
     2    25    26    2
     3    25    17    1
     4    17     1    1
     5     1     3    1
     6     3     4    2
     7     4     9    1
     8     9    11    1
     9    11    12   ar
    10    12    13   ar
    11    13    14   ar
    12    14    15   ar
    13    15    16   ar
    14     4     5    1
    15     5     6    2
    16     5     7    1
    17     7     8    2
    18    17    18    1
    19    18    19   ar
    20    19    20   ar
    21    20    21   ar
    22    21    22   ar
    23    22    23   ar
    24     7     3    1
    25    23    18   ar
    26    16    11   ar
    27    24    27    1
    28    24    28    1
    29     1     2    1
    30     9    10    1
@<TRIPOS>MOLECULE
*****
 28 30 0 0 0
SMALL
GASTEIGER

@<TRIPOS>ATOM
      1 N          -7.8540  -18.6069   22.7371 N.pl3   1  UNL1       -0.3200
      2 H          -7.5214  -19.3446   22.1764 H       1  UNL1        0.1476
      3 C          -6.9280  -17.5003   23.1473 C.2     1  UNL1        0.1048
      4 C          -5.4421  -17.3621   23.2986 C.2     1  UNL1        0.1077
      5 C          -5.6184  -15.9355   23.7273 C.2     1  UNL1        0.2500
      6 O          -4.6925  -14.8290   24.1375 O.2     1  UNL1       -0.2817
      7 C          -7.1044  -16.0738   23.5760 C.2     1  UNL1        0.2498
      8 O          -8.2799  -15.1628   23.7721 O.2     1  UNL1       -0.2817
      9 N          -4.2666  -18.2730   23.1025 N.pl3   1  UNL1       -0.3088
     10 H          -4.0207  -18.9175   23.8050 H       1  UNL1        0.1523
     11 C          -3.4659  -18.2022   21.8360 C.ar    1  UNL1        0.0515
     12 C          -2.3482  -17.2099   21.7099 C.ar    1  UNL1        0.0353
     13 C          -1.5475  -17.1391   20.4435 C.ar    1  UNL1        0.1002
     14 N          -1.8646  -18.0606   19.3032 N.ar    1  UNL1       -0.2422
     15 C          -2.9823  -19.0529   19.4293 C.ar    1  UNL1        0.1002
     16 C          -3.7830  -19.1237   20.6957 C.ar    1  UNL1        0.0353
     17 C          -9.2866  -18.5894   23.1813 C.3     1  UNL1        0.1694
     18 C         -10.3228  -17.8993   22.3446 C.ar    1  UNL1        0.0042
     19 C         -11.3089  -16.9698   22.9879 C.ar    1  UNL1       -0.0022
     20 C         -12.3451  -16.2798   22.1512 C.ar    1  UNL1       -0.0003
     21 C         -12.3953  -16.5192   20.6713 C.ar    1  UNL1       -0.0000
     22 C         -11.4092  -17.4486   20.0280 C.ar    1  UNL1       -0.0003
     23 C         -10.3730  -18.1387   20.8648 C.ar    1  UNL1       -0.0022
     24 N         -10.2099  -20.6662   24.4401 N.am    1  UNL1       -0.3272
     25 C          -9.6830  -19.2619   24.4622 C.2     1  UNL1        0.2415
     26 O          -9.5524  -18.5303   25.7651 O.2     1  UNL1       -0.2732
     27 H         -10.4701  -21.1076   25.2807 H       1  UNL1        0.1450
     28 H         -10.2956  -21.1464   23.5849 H       1  UNL1        0.1450
@<TRIPOS>BOND
     1    24    25   am
     2    25    26    2
     3    25    17    1
     4    17     1    1
     5     1     3    1
     6     3     4    2
     7     4     9    1
     8     9    11    1
     9    11    12   ar
    10    12    13   ar
    11    13    14   ar
    12    14    15   ar
    13    15    16   ar
    14     4     5    1
    15     5     6    2
    16     5     7    1
    17     7     8    2
    18    17    18    1
    19    18    19   ar
    20    19    20   ar
    21    20    21   ar
    22    21    22   ar
    23    22    23   ar
    24     7     3    1
    25    23    18   ar
    26    16    11   ar
    27    24    27    1
    28    24    28    1
    29     1     2    1
    30     9    10    1
