@<TRIPOS>MOLECULE
*****
 39 43 0 0 0
SMALL
GASTEIGER

@<TRIPOS>ATOM
      1 C           7.9459   -4.2756   31.4357 C.3     1  UNL1        0.0972
      2 C           8.8643   -3.2128   31.9618 C.3     1  UNL1        0.0431
      3 C           8.0265   -2.1722   32.6439 C.3     1  UNL1        0.0968
      4 N           6.5903   -2.5920   32.5394 N.am    1  UNL1       -0.2623
      5 C           5.4109   -1.8432   33.0858 C.2     1  UNL1        0.3073
      6 O           4.0258   -2.3893   32.9033 O.2     1  UNL1       -0.2523
      7 N           5.6166   -0.5484   33.8145 N.am    1  UNL1       -0.2626
      8 C           6.9354    0.1179   34.0729 C.3     1  UNL1        0.0964
      9 C           6.6735    1.3856   34.8310 C.3     1  UNL1        0.0390
     10 C           5.1929    1.5026   35.0410 C.3     1  UNL1        0.0758
     11 C           4.5397    0.3073   34.4128 C.3     1  UNL1        0.1106
     12 C           6.5404   -3.8919   31.7927 C.3     1  UNL1        0.1147
     13 C           8.3770   -5.4990   29.1846 C.2     1  UNL1        0.2551
     14 O           8.7913   -6.7295   28.4334 O.2     1  UNL1       -0.2694
     15 N           8.3601   -5.5061   30.6845 N.am    1  UNL1       -0.2738
     16 C           8.7575   -6.7436   31.4331 C.3     1  UNL1        0.1152
     17 C           6.7219   -2.6834   27.0874 C.ar    1  UNL1        0.0296
     18 C           8.0142   -2.0308   27.4800 C.ar    1  UNL1        0.0071
     19 C           8.7915   -3.0061   28.3135 C.ar    1  UNL1        0.0115
     20 C           7.9796   -4.2615   28.4359 C.ar    1  UNL1        0.0830
     21 S           6.7006   -4.0620   27.6781 S.2     1  UNL1       -0.0824
     22 C           3.4786   -0.8305   24.5777 C.ar    1  UNL1        0.1387
     23 C           4.4848   -1.7463   23.9462 C.ar    1  UNL1        0.0369
     24 C           5.5659   -2.3639   24.7827 C.ar    1  UNL1        0.0036
     25 C           5.6408   -2.0658   26.2508 C.ar    1  UNL1        0.0062
     26 C           4.6347   -1.1499   26.8824 C.ar    1  UNL1        0.0036
     27 C           3.5536   -0.5323   26.0459 C.ar    1  UNL1        0.0369
     28 C           2.5382   -0.1668   22.2486 C.3     1  UNL1        0.2525
     29 O           2.3975   -0.2129   23.7412 O.3     1  UNL1       -0.4714
     30 N           4.4891    2.6189   35.7541 N.3     1  UNL1       -0.2982
     31 H           4.0103    3.1685   35.0406 H       1  UNL1        0.1232
     32 C           3.4752    2.3096   36.8153 C.3     1  UNL1        0.0540
     33 C           2.3629    3.2764   37.0945 C.3     1  UNL1        0.0157
     34 C           1.3489    2.9671   38.1557 C.3     1  UNL1        0.0014
     35 C           1.4472    1.6908   38.9377 C.3     1  UNL1        0.0001
     36 C           1.1197    0.6214   39.9372 C.3     1  UNL1        0.0000
     37 C           0.2212    2.2863   39.5640 C.3     1  UNL1        0.0000
     38 C           2.5595    0.7240   38.6585 C.3     1  UNL1        0.0014
     39 C           3.5735    1.0333   37.5973 C.3     1  UNL1        0.0157
@<TRIPOS>BOND
     1    28    29    1
     2    29    22    1
     3    22    23   ar
     4    23    24   ar
     5    24    25   ar
     6    25    17    1
     7    17    18   ar
     8    18    19   ar
     9    19    20   ar
    10    20    13    1
    11    13    14    2
    12    13    15   am
    13    15    16    1
    14     1    15    1
    15     1     2    1
    16     2     3    1
    17     3     4    1
    18     4     5   am
    19     5     6    2
    20     5     7   am
    21     7     8    1
    22     8     9    1
    23     9    10    1
    24    10    30    1
    25    30    32    1
    26    32    33    1
    27    33    34    1
    28    34    35    1
    29    35    36    1
    30    35    37    1
    31    35    38    1
    32    38    39    1
    33    10    11    1
    34     4    12    1
    35    20    21   ar
    36    25    26   ar
    37    26    27   ar
    38    27    22   ar
    39    21    17   ar
    40    12     1    1
    41    11     7    1
    42    39    32    1
    43    30    31    1
@<TRIPOS>MOLECULE
*****
 39 43 0 0 0
SMALL
GASTEIGER

@<TRIPOS>ATOM
      1 C           7.6744   -2.7400   21.0462 C.3     1  UNL1        0.0972
      2 C           7.4071   -1.6072   21.9924 C.3     1  UNL1        0.0431
      3 C           7.2491   -2.1809   23.3694 C.3     1  UNL1        0.0968
      4 N           7.4188   -3.6682   23.2742 N.am    1  UNL1       -0.2623
      5 C           7.3396   -4.6394   24.4145 C.2     1  UNL1        0.3073
      6 O           7.5315   -6.1061   24.1652 O.2     1  UNL1       -0.2523
      7 N           7.0685   -4.1440   25.8041 N.am    1  UNL1       -0.2626
      8 C           6.8565   -2.7141   26.2047 C.3     1  UNL1        0.0964
      9 C           6.6188   -2.6779   27.6853 C.3     1  UNL1        0.0390
     10 C           6.6838   -4.0854   28.1998 C.3     1  UNL1        0.0758
     11 C           6.9617   -4.9915   27.0372 C.3     1  UNL1        0.1106
     12 C           7.6816   -4.0138   21.8384 C.3     1  UNL1        0.1147
     13 C           6.7319   -2.3791   18.6521 C.2     1  UNL1        0.2551
     14 O           6.9532   -2.2592   17.1734 O.2     1  UNL1       -0.2694
     15 N           7.8956   -2.6201   19.5674 N.am    1  UNL1       -0.2738
     16 C           9.2804   -2.7413   19.0040 C.3     1  UNL1        0.1152
     17 C           3.2558   -1.3250   20.0199 C.ar    1  UNL1        0.0296
     18 C           3.1761   -2.8176   20.1450 C.ar    1  UNL1        0.0071
     19 C           4.4685   -3.3942   19.6479 C.ar    1  UNL1        0.0115
     20 C           5.3471   -2.2579   19.2155 C.ar    1  UNL1        0.0830
     21 S           4.5976   -0.9791   19.4455 S.2     1  UNL1       -0.0824
     22 C           0.0353    1.6013   21.1668 C.ar    1  UNL1        0.1387
     23 C           0.1903    1.1793   19.7357 C.ar    1  UNL1        0.0369
     24 C           1.2638    0.2039   19.3535 C.ar    1  UNL1        0.0036
     25 C           2.1823   -0.3496   20.4022 C.ar    1  UNL1        0.0062
     26 C           2.0273    0.0724   21.8332 C.ar    1  UNL1        0.0036
     27 C           0.9538    1.0478   22.2155 C.ar    1  UNL1        0.0369
     28 C          -1.9757    3.1073   20.5053 C.3     1  UNL1        0.2525
     29 O          -1.0382    2.5767   21.5490 O.3     1  UNL1       -0.4714
     30 N           6.5027   -4.5118   29.6264 N.3     1  UNL1       -0.2982
     31 H           6.9615   -5.4177   29.7235 H       1  UNL1        0.1232
     32 C           7.0148   -3.6457   30.7389 C.3     1  UNL1        0.0540
     33 C           6.0998   -2.6612   31.4048 C.3     1  UNL1        0.0157
     34 C           6.6119   -1.7951   32.5173 C.3     1  UNL1        0.0014
     35 C           8.0389   -1.9134   32.9638 C.3     1  UNL1        0.0001
     36 C           9.3004   -1.6592   33.7346 C.3     1  UNL1        0.0000
     37 C           7.5620   -0.8406   33.8974 C.3     1  UNL1        0.0000
     38 C           8.9539   -2.8979   32.2979 C.3     1  UNL1        0.0014
     39 C           8.4419   -3.7641   31.1854 C.3     1  UNL1        0.0157
@<TRIPOS>BOND
     1    28    29    1
     2    29    22    1
     3    22    23   ar
     4    23    24   ar
     5    24    25   ar
     6    25    17    1
     7    17    18   ar
     8    18    19   ar
     9    19    20   ar
    10    20    13    1
    11    13    14    2
    12    13    15   am
    13    15    16    1
    14     1    15    1
    15     1     2    1
    16     2     3    1
    17     3     4    1
    18     4     5   am
    19     5     6    2
    20     5     7   am
    21     7     8    1
    22     8     9    1
    23     9    10    1
    24    10    30    1
    25    30    32    1
    26    32    33    1
    27    33    34    1
    28    34    35    1
    29    35    36    1
    30    35    37    1
    31    35    38    1
    32    38    39    1
    33    10    11    1
    34     4    12    1
    35    20    21   ar
    36    25    26   ar
    37    26    27   ar
    38    27    22   ar
    39    21    17   ar
    40    12     1    1
    41    11     7    1
    42    39    32    1
    43    30    31    1
@<TRIPOS>MOLECULE
*****
 39 43 0 0 0
SMALL
GASTEIGER

@<TRIPOS>ATOM
      1 C           4.3060   -1.3505   20.1857 C.3     1  UNL1        0.0972
      2 C           3.0847   -1.5354   21.0367 C.3     1  UNL1        0.0431
      3 C           3.4105   -1.0654   22.4235 C.3     1  UNL1        0.0968
      4 N           4.8331   -0.5900   22.4295 N.am    1  UNL1       -0.2623
      5 C           5.5725   -0.0357   23.6111 C.2     1  UNL1        0.3073
      6 O           6.9999    0.4016   23.4649 O.2     1  UNL1       -0.2523
      7 N           4.8845    0.0813   24.9388 N.am    1  UNL1       -0.2626
      8 C           3.4680   -0.3131   25.2356 C.3     1  UNL1        0.0964
      9 C           3.2003   -0.0249   26.6832 C.3     1  UNL1        0.0390
     10 C           4.4512    0.5476   27.2809 C.3     1  UNL1        0.0758
     11 C           5.4921    0.6132   26.2029 C.3     1  UNL1        0.1106
     12 C           5.3866   -0.7661   21.0466 C.3     1  UNL1        0.1147
     13 C           3.8562   -0.7659   17.6946 C.2     1  UNL1        0.2551
     14 O           3.9759   -1.1057   16.2385 O.2     1  UNL1       -0.2694
     15 N           4.4258   -1.6902   18.7296 N.am    1  UNL1       -0.2738
     16 C           5.1150   -2.9541   18.3086 C.3     1  UNL1        0.1152
     17 C           1.4423    2.0977   18.7135 C.ar    1  UNL1        0.0296
     18 C           2.7700    2.7885   18.8133 C.ar    1  UNL1        0.0071
     19 C           3.8359    1.7999   18.4438 C.ar    1  UNL1        0.0115
     20 C           3.1669    0.4980   18.1155 C.ar    1  UNL1        0.0830
     21 S           1.6876    0.6821   18.2822 S.2     1  UNL1       -0.0824
     22 C          -2.5720    3.9472   19.5591 C.ar    1  UNL1        0.1387
     23 C          -1.9436    4.1049   18.2063 C.ar    1  UNL1        0.0369
     24 C          -0.6055    3.4883   17.9244 C.ar    1  UNL1        0.0036
     25 C           0.1042    2.7142   18.9954 C.ar    1  UNL1        0.0062
     26 C          -0.5242    2.5565   20.3482 C.ar    1  UNL1        0.0036
     27 C          -1.8623    3.1730   20.6301 C.ar    1  UNL1        0.0369
     28 C          -5.1390    4.0294   19.1671 C.3     1  UNL1        0.2525
     29 O          -3.9100    4.5637   19.8410 O.3     1  UNL1       -0.4714
     30 N           4.6299    0.9787   28.7065 N.3     1  UNL1       -0.2982
     31 H           3.8061    1.5271   28.9537 H       1  UNL1        0.1232
     32 C           4.8052   -0.0494   29.7846 C.3     1  UNL1        0.0540
     33 C           5.9634   -1.0010   29.7322 C.3     1  UNL1        0.0157
     34 C           6.1387   -2.0291   30.8103 C.3     1  UNL1        0.0014
     35 C           5.1557   -2.1055   31.9408 C.3     1  UNL1        0.0001
     36 C           4.4954   -2.5683   33.2056 C.3     1  UNL1        0.0000
     37 C           6.0847   -3.2179   32.3276 C.3     1  UNL1        0.0000
     38 C           3.9976   -1.1539   31.9931 C.3     1  UNL1        0.0014
     39 C           3.8222   -0.1258   30.9150 C.3     1  UNL1        0.0157
@<TRIPOS>BOND
     1    28    29    1
     2    29    22    1
     3    22    23   ar
     4    23    24   ar
     5    24    25   ar
     6    25    17    1
     7    17    18   ar
     8    18    19   ar
     9    19    20   ar
    10    20    13    1
    11    13    14    2
    12    13    15   am
    13    15    16    1
    14     1    15    1
    15     1     2    1
    16     2     3    1
    17     3     4    1
    18     4     5   am
    19     5     6    2
    20     5     7   am
    21     7     8    1
    22     8     9    1
    23     9    10    1
    24    10    30    1
    25    30    32    1
    26    32    33    1
    27    33    34    1
    28    34    35    1
    29    35    36    1
    30    35    37    1
    31    35    38    1
    32    38    39    1
    33    10    11    1
    34     4    12    1
    35    20    21   ar
    36    25    26   ar
    37    26    27   ar
    38    27    22   ar
    39    21    17   ar
    40    12     1    1
    41    11     7    1
    42    39    32    1
    43    30    31    1
@<TRIPOS>MOLECULE
*****
 39 43 0 0 0
SMALL
GASTEIGER

@<TRIPOS>ATOM
      1 C           5.2057   -0.8699   34.1872 C.3     1  UNL1        0.0972
      2 C           4.4592   -2.0357   33.6094 C.3     1  UNL1        0.0431
      3 C           5.4094   -2.8137   32.7481 C.3     1  UNL1        0.0968
      4 N           6.7432   -2.1289   32.7935 N.am    1  UNL1       -0.2623
      5 C           7.9848   -2.5681   32.0757 C.2     1  UNL1        0.3073
      6 O           9.2521   -1.7782   32.2171 O.2     1  UNL1       -0.2523
      7 N           7.9591   -3.7973   31.2163 N.am    1  UNL1       -0.2626
      8 C           6.7721   -4.6835   30.9806 C.3     1  UNL1        0.0964
      9 C           7.1953   -5.7901   30.0604 C.3     1  UNL1        0.0390
     10 C           8.6438   -5.5877   29.7276 C.3     1  UNL1        0.0758
     11 C           9.1159   -4.3561   30.4420 C.3     1  UNL1        0.1106
     12 C           6.6173   -0.9276   33.6829 C.3     1  UNL1        0.1147
     13 C           4.0108    1.4095   34.5425 C.2     1  UNL1        0.2551
     14 O           3.4451    2.4501   35.4629 O.2     1  UNL1       -0.2694
     15 N           4.6401    0.1706   35.1076 N.am    1  UNL1       -0.2738
     16 C           4.7036   -0.0276   36.5930 C.3     1  UNL1        0.1152
     17 C           3.1383    1.6743   30.7697 C.ar    1  UNL1        0.0296
     18 C           4.5604    2.1515   30.7725 C.ar    1  UNL1        0.0071
     19 C           5.0604    2.1104   32.1862 C.ar    1  UNL1        0.0115
     20 C           3.9473    1.6078   33.0570 C.ar    1  UNL1        0.0830
     21 S           2.7594    1.3383   32.1816 S.2     1  UNL1       -0.0824
     22 C           0.4764    1.3142   27.1594 C.ar    1  UNL1        0.1387
     23 C          -0.0990    1.7469   28.4753 C.ar    1  UNL1        0.0369
     24 C           0.7883    1.8670   29.6787 C.ar    1  UNL1        0.0036
     25 C           2.2510    1.5543   29.5663 C.ar    1  UNL1        0.0062
     26 C           2.8264    1.1215   28.2504 C.ar    1  UNL1        0.0036
     27 C           1.9391    1.0014   27.0469 C.ar    1  UNL1        0.0369
     28 C          -1.0427    2.4193   25.3647 C.3     1  UNL1        0.2525
     29 O          -0.4110    1.1941   25.9560 O.3     1  UNL1       -0.4714
     30 N           9.4744   -6.4631   28.8367 N.3     1  UNL1       -0.2982
     31 H           9.3483   -7.4208   29.1645 H       1  UNL1        0.1232
     32 C           9.2284   -6.4760   27.3571 C.3     1  UNL1        0.0540
     33 C           8.7197   -5.2431   26.6707 C.3     1  UNL1        0.0157
     34 C           8.4736   -5.2559   25.1911 C.3     1  UNL1        0.0014
     35 C           8.7362   -6.5017   24.3979 C.3     1  UNL1        0.0001
     36 C           8.8339   -7.4313   23.2248 C.3     1  UNL1        0.0000
     37 C           8.2615   -5.5916   23.3041 C.3     1  UNL1        0.0000
     38 C           9.2448   -7.7345   25.0843 C.3     1  UNL1        0.0014
     39 C           9.4909   -7.7217   26.5640 C.3     1  UNL1        0.0157
@<TRIPOS>BOND
     1    28    29    1
     2    29    22    1
     3    22    23   ar
     4    23    24   ar
     5    24    25   ar
     6    25    17    1
     7    17    18   ar
     8    18    19   ar
     9    19    20   ar
    10    20    13    1
    11    13    14    2
    12    13    15   am
    13    15    16    1
    14     1    15    1
    15     1     2    1
    16     2     3    1
    17     3     4    1
    18     4     5   am
    19     5     6    2
    20     5     7   am
    21     7     8    1
    22     8     9    1
    23     9    10    1
    24    10    30    1
    25    30    32    1
    26    32    33    1
    27    33    34    1
    28    34    35    1
    29    35    36    1
    30    35    37    1
    31    35    38    1
    32    38    39    1
    33    10    11    1
    34     4    12    1
    35    20    21   ar
    36    25    26   ar
    37    26    27   ar
    38    27    22   ar
    39    21    17   ar
    40    12     1    1
    41    11     7    1
    42    39    32    1
    43    30    31    1
@<TRIPOS>MOLECULE
*****
 39 43 0 0 0
SMALL
GASTEIGER

@<TRIPOS>ATOM
      1 C           3.6731   -0.5085   19.5675 C.3     1  UNL1        0.0972
      2 C           2.9937   -1.3221   20.6287 C.3     1  UNL1        0.0431
      3 C           2.3548   -0.3752   21.6009 C.3     1  UNL1        0.0968
      4 N           2.6394    1.0238   21.1405 N.am    1  UNL1       -0.2623
      5 C           2.1884    2.2838   21.8178 C.2     1  UNL1        0.3073
      6 O           2.5513    3.6185   21.2374 O.2     1  UNL1       -0.2523
      7 N           1.3745    2.2092   23.0755 N.am    1  UNL1       -0.2626
      8 C           0.9372    0.9534   23.7695 C.3     1  UNL1        0.0964
      9 C           0.1474    1.3454   24.9831 C.3     1  UNL1        0.0390
     10 C           0.0966    2.8435   25.0390 C.3     1  UNL1        0.0758
     11 C           0.8549    3.3774   23.8601 C.3     1  UNL1        0.1106
     12 C           3.4541    0.9414   19.8838 C.3     1  UNL1        0.1147
     13 C           5.7501   -1.7425   18.6118 C.2     1  UNL1        0.2551
     14 O           6.5143   -2.2837   17.4400 O.2     1  UNL1       -0.2694
     15 N           4.4374   -1.0497   18.3957 N.am    1  UNL1       -0.2738
     16 C           3.8889   -0.8980   17.0079 C.3     1  UNL1        0.1152
     17 C           6.9256   -2.8456   22.1426 C.ar    1  UNL1        0.0296
     18 C           7.3598   -1.4099   22.1279 C.ar    1  UNL1        0.0071
     19 C           6.9723   -0.8219   20.8035 C.ar    1  UNL1        0.0115
     20 C           6.2986   -1.8942   19.9996 C.ar    1  UNL1        0.0830
     21 S           6.2698   -3.1449   20.8272 S.2     1  UNL1       -0.0824
     22 C           7.4912   -5.7456   25.5368 C.ar    1  UNL1        0.1387
     23 C           8.0351   -6.0677   24.1766 C.ar    1  UNL1        0.0369
     24 C           7.8466   -5.1011   23.0452 C.ar    1  UNL1        0.0036
     25 C           7.1141   -3.8123   23.2740 C.ar    1  UNL1        0.0062
     26 C           6.5702   -3.4901   24.6342 C.ar    1  UNL1        0.0036
     27 C           6.7587   -4.4568   25.7656 C.ar    1  UNL1        0.0369
     28 C           8.1031   -8.1233   26.3864 C.3     1  UNL1        0.2525
     29 O           7.6797   -6.7122   26.6682 O.3     1  UNL1       -0.4714
     30 N          -0.5918    3.6636   26.0895 N.3     1  UNL1       -0.2982
     31 H          -0.0864    4.5475   26.1510 H       1  UNL1        0.1232
     32 C          -2.0449    4.0051   25.9416 C.3     1  UNL1        0.0540
     33 C          -2.7131    4.8927   26.9493 C.3     1  UNL1        0.0157
     34 C          -4.1662    5.2342   26.8014 C.3     1  UNL1        0.0014
     35 C          -4.9511    4.6880   25.6458 C.3     1  UNL1        0.0001
     36 C          -6.1076    4.4174   24.7297 C.3     1  UNL1        0.0000
     37 C          -6.0209    5.4817   26.3354 C.3     1  UNL1        0.0000
     38 C          -4.2830    3.8003   24.6381 C.3     1  UNL1        0.0014
     39 C          -2.8298    3.4589   24.7859 C.3     1  UNL1        0.0157
@<TRIPOS>BOND
     1    28    29    1
     2    29    22    1
     3    22    23   ar
     4    23    24   ar
     5    24    25   ar
     6    25    17    1
     7    17    18   ar
     8    18    19   ar
     9    19    20   ar
    10    20    13    1
    11    13    14    2
    12    13    15   am
    13    15    16    1
    14     1    15    1
    15     1     2    1
    16     2     3    1
    17     3     4    1
    18     4     5   am
    19     5     6    2
    20     5     7   am
    21     7     8    1
    22     8     9    1
    23     9    10    1
    24    10    30    1
    25    30    32    1
    26    32    33    1
    27    33    34    1
    28    34    35    1
    29    35    36    1
    30    35    37    1
    31    35    38    1
    32    38    39    1
    33    10    11    1
    34     4    12    1
    35    20    21   ar
    36    25    26   ar
    37    26    27   ar
    38    27    22   ar
    39    21    17   ar
    40    12     1    1
    41    11     7    1
    42    39    32    1
    43    30    31    1
@<TRIPOS>MOLECULE
*****
 39 43 0 0 0
SMALL
GASTEIGER

@<TRIPOS>ATOM
      1 C           0.5573    3.6807   22.0962 C.3     1  UNL1        0.0972
      2 C          -0.6855    3.1928   22.7797 C.3     1  UNL1        0.0431
      3 C          -0.3163    2.7805   24.1740 C.3     1  UNL1        0.0968
      4 N           1.1547    3.0137   24.3521 N.am    1  UNL1       -0.2623
      5 C           1.9467    2.7388   25.5959 C.2     1  UNL1        0.3073
      6 O           3.4190    3.0239   25.6259 O.2     1  UNL1       -0.2523
      7 N           1.2663    2.1788   26.8098 N.am    1  UNL1       -0.2626
      8 C          -0.1912    1.8449   26.9283 C.3     1  UNL1        0.0964
      9 C          -0.4343    1.3141   28.3101 C.3     1  UNL1        0.0390
     10 C           0.8730    1.3200   29.0455 C.3     1  UNL1        0.0758
     11 C           1.9240    1.8544   28.1183 C.3     1  UNL1        0.1106
     12 C           1.6947    3.5700   23.0680 C.3     1  UNL1        0.1147
     13 C           0.9590    3.2436   19.5669 C.2     1  UNL1        0.2551
     14 O           1.0488    3.7528   18.1588 O.2     1  UNL1       -0.2694
     15 N           0.6472    4.1899   20.6882 N.am    1  UNL1       -0.2738
     16 C           0.4251    5.6453   20.4013 C.3     1  UNL1        0.1152
     17 C           2.2579   -0.3632   20.1750 C.ar    1  UNL1        0.0296
     18 C           0.7878   -0.5402   20.4147 C.ar    1  UNL1        0.0071
     19 C           0.1223    0.7893   20.2160 C.ar    1  UNL1        0.0115
     20 C           1.1811    1.7881   19.8536 C.ar    1  UNL1        0.0830
     21 S           2.5009    1.0758   19.8283 S.2     1  UNL1       -0.0824
     22 C           5.3892   -3.5834   20.4484 C.ar    1  UNL1        0.1387
     23 C           4.8453   -2.9582   21.6986 C.ar    1  UNL1        0.0369
     24 C           3.8015   -1.8847   21.6075 C.ar    1  UNL1        0.0036
     25 C           3.3017   -1.4366   20.2661 C.ar    1  UNL1        0.0062
     26 C           3.8456   -2.0618   19.0159 C.ar    1  UNL1        0.0036
     27 C           4.8894   -3.1353   19.1070 C.ar    1  UNL1        0.0369
     28 C           7.8142   -4.3212   21.0186 C.3     1  UNL1        0.2525
     29 O           6.4330   -4.6568   20.5395 O.3     1  UNL1       -0.4714
     30 N           1.0910    0.8704   30.4598 N.3     1  UNL1       -0.2982
     31 H           1.9665    0.3472   30.4709 H       1  UNL1        0.1232
     32 C           1.1773    1.8824   31.5636 C.3     1  UNL1        0.0540
     33 C           2.0822    1.6393   32.7350 C.3     1  UNL1        0.0157
     34 C           2.1685    2.6513   33.8388 C.3     1  UNL1        0.0014
     35 C           1.3498    3.9064   33.7712 C.3     1  UNL1        0.0001
     36 C           0.7763    5.2376   34.1571 C.3     1  UNL1        0.0000
     37 C           2.0556    4.1256   35.0766 C.3     1  UNL1        0.0000
     38 C           0.4450    4.1495   32.6000 C.3     1  UNL1        0.0014
     39 C           0.3586    3.1375   31.4961 C.3     1  UNL1        0.0157
@<TRIPOS>BOND
     1    28    29    1
     2    29    22    1
     3    22    23   ar
     4    23    24   ar
     5    24    25   ar
     6    25    17    1
     7    17    18   ar
     8    18    19   ar
     9    19    20   ar
    10    20    13    1
    11    13    14    2
    12    13    15   am
    13    15    16    1
    14     1    15    1
    15     1     2    1
    16     2     3    1
    17     3     4    1
    18     4     5   am
    19     5     6    2
    20     5     7   am
    21     7     8    1
    22     8     9    1
    23     9    10    1
    24    10    30    1
    25    30    32    1
    26    32    33    1
    27    33    34    1
    28    34    35    1
    29    35    36    1
    30    35    37    1
    31    35    38    1
    32    38    39    1
    33    10    11    1
    34     4    12    1
    35    20    21   ar
    36    25    26   ar
    37    26    27   ar
    38    27    22   ar
    39    21    17   ar
    40    12     1    1
    41    11     7    1
    42    39    32    1
    43    30    31    1
@<TRIPOS>MOLECULE
*****
 39 43 0 0 0
SMALL
GASTEIGER

@<TRIPOS>ATOM
      1 C           0.8790    3.3069   22.9709 C.3     1  UNL1        0.0972
      2 C          -0.3235    2.7974   23.7087 C.3     1  UNL1        0.0431
      3 C           0.1523    2.1249   24.9622 C.3     1  UNL1        0.0968
      4 N           1.6489    2.2187   24.9992 N.am    1  UNL1       -0.2623
      5 C           2.5399    1.6772   26.0775 C.2     1  UNL1        0.3073
      6 O           4.0268    1.8476   25.9777 O.2     1  UNL1       -0.2523
      7 N           1.9440    0.9651   27.2556 N.am    1  UNL1       -0.2626
      8 C           0.4830    0.7200   27.4909 C.3     1  UNL1        0.0964
      9 C           0.3405   -0.0234   28.7860 C.3     1  UNL1        0.0390
     10 C           1.7134   -0.2377   29.3510 C.3     1  UNL1        0.0758
     11 C           2.7044    0.3733   28.4051 C.3     1  UNL1        0.1106
     12 C           2.0980    2.9492   23.7685 C.3     1  UNL1        0.1147
     13 C           1.0635    3.2974   20.3794 C.2     1  UNL1        0.2551
     14 O           1.0495    4.0350   19.0734 O.2     1  UNL1       -0.2694
     15 N           0.8650    4.0445   21.6649 N.am    1  UNL1       -0.2738
     16 C           0.6524    5.5291   21.6442 C.3     1  UNL1        0.1152
     17 C           2.3450   -0.3655   20.4612 C.ar    1  UNL1        0.0296
     18 C           0.8614   -0.5787   20.4019 C.ar    1  UNL1        0.0071
     19 C           0.2008    0.7675   20.3640 C.ar    1  UNL1        0.0115
     20 C           1.2760    1.8127   20.3999 C.ar    1  UNL1        0.0830
     21 S           2.6012    1.1124   20.4600 S.2     1  UNL1       -0.0824
     22 C           5.4770   -3.5930   20.6158 C.ar    1  UNL1        0.1387
     23 C           4.8826   -3.0632   21.8870 C.ar    1  UNL1        0.0369
     24 C           3.8386   -1.9874   21.8355 C.ar    1  UNL1        0.0036
     25 C           3.3890   -1.4413   20.5127 C.ar    1  UNL1        0.0062
     26 C           3.9834   -1.9711   19.2415 C.ar    1  UNL1        0.0036
     27 C           5.0274   -3.0469   19.2931 C.ar    1  UNL1        0.0369
     28 C           7.9514   -4.3131   20.9455 C.3     1  UNL1        0.2525
     29 O           6.5210   -4.6688   20.6673 O.3     1  UNL1       -0.4714
     30 N           2.0383   -0.9396   30.6361 N.3     1  UNL1       -0.2982
     31 H           2.2883   -1.8982   30.3930 H       1  UNL1        0.1232
     32 C           3.1320   -0.4178   31.5201 C.3     1  UNL1        0.0540
     33 C           4.4257   -1.1682   31.6350 C.3     1  UNL1        0.0157
     34 C           5.5195   -0.6464   32.5190 C.3     1  UNL1        0.0014
     35 C           5.3195    0.6259   33.2879 C.3     1  UNL1        0.0001
     36 C           5.6032    1.7763   34.2078 C.3     1  UNL1        0.0000
     37 C           6.7117    0.2750   33.7223 C.3     1  UNL1        0.0000
     38 C           4.0259    1.3763   33.1730 C.3     1  UNL1        0.0014
     39 C           2.9321    0.8545   32.2890 C.3     1  UNL1        0.0157
@<TRIPOS>BOND
     1    28    29    1
     2    29    22    1
     3    22    23   ar
     4    23    24   ar
     5    24    25   ar
     6    25    17    1
     7    17    18   ar
     8    18    19   ar
     9    19    20   ar
    10    20    13    1
    11    13    14    2
    12    13    15   am
    13    15    16    1
    14     1    15    1
    15     1     2    1
    16     2     3    1
    17     3     4    1
    18     4     5   am
    19     5     6    2
    20     5     7   am
    21     7     8    1
    22     8     9    1
    23     9    10    1
    24    10    30    1
    25    30    32    1
    26    32    33    1
    27    33    34    1
    28    34    35    1
    29    35    36    1
    30    35    37    1
    31    35    38    1
    32    38    39    1
    33    10    11    1
    34     4    12    1
    35    20    21   ar
    36    25    26   ar
    37    26    27   ar
    38    27    22   ar
    39    21    17   ar
    40    12     1    1
    41    11     7    1
    42    39    32    1
    43    30    31    1
@<TRIPOS>MOLECULE
*****
 39 43 0 0 0
SMALL
GASTEIGER

@<TRIPOS>ATOM
      1 C           3.4069    1.7607   32.9266 C.3     1  UNL1        0.0972
      2 C           4.0639    2.7359   31.9954 C.3     1  UNL1        0.0431
      3 C           3.4681    2.5481   30.6316 C.3     1  UNL1        0.0968
      4 N           2.4428    1.4568   30.7200 N.am    1  UNL1       -0.2623
      5 C           1.6028    0.9425   29.5887 C.2     1  UNL1        0.3073
      6 O           0.6138   -0.1593   29.8296 O.2     1  UNL1       -0.2523
      7 N           1.7518    1.5299   28.2166 N.am    1  UNL1       -0.2626
      8 C           2.6938    2.6300   27.8261 C.3     1  UNL1        0.0964
      9 C           2.5091    2.9004   26.3622 C.3     1  UNL1        0.0390
     10 C           1.4532    1.9673   25.8481 C.3     1  UNL1        0.0758
     11 C           0.9851    1.1203   26.9941 C.3     1  UNL1        0.1106
     12 C           2.4050    0.9701   32.1384 C.3     1  UNL1        0.1147
     13 C           4.8647    0.7697   34.8353 C.2     1  UNL1        0.2551
     14 O           5.1580    0.6126   36.2979 O.2     1  UNL1       -0.2694
     15 N           3.7003    1.6035   34.3892 N.am    1  UNL1       -0.2738
     16 C           2.8293    2.2802   35.4058 C.3     1  UNL1        0.1152
     17 C           6.6134   -1.5387   32.2509 C.ar    1  UNL1        0.0296
     18 C           7.5387   -0.3581   32.2579 C.ar    1  UNL1        0.0071
     19 C           6.9963    0.6504   33.2268 C.ar    1  UNL1        0.0115
     20 C           5.7357    0.0930   33.8187 C.ar    1  UNL1        0.0830
     21 S           5.4991   -1.2599   33.2156 S.2     1  UNL1       -0.0824
     22 C           7.0958   -5.2629   29.7715 C.ar    1  UNL1        0.1387
     23 C           6.9872   -5.3644   31.2641 C.ar    1  UNL1        0.0369
     24 C           6.8264   -4.1230   32.0905 C.ar    1  UNL1        0.0036
     25 C           6.7742   -2.7801   31.4244 C.ar    1  UNL1        0.0062
     26 C           6.8829   -2.6785   29.9319 C.ar    1  UNL1        0.0036
     27 C           7.0437   -3.9199   29.1054 C.ar    1  UNL1        0.0369
     28 C           8.6271   -7.0437   28.6607 C.3     1  UNL1        0.2525
     29 O           7.2566   -6.5043   28.9450 O.3     1  UNL1       -0.4714
     30 N           0.9531    1.8942   24.4358 N.3     1  UNL1       -0.2982
     31 H           1.0672    2.8249   24.0344 H       1  UNL1        0.1232
     32 C           1.5719    0.9274   23.4702 C.3     1  UNL1        0.0540
     33 C           1.1097    0.8927   22.0436 C.3     1  UNL1        0.0157
     34 C           1.7285   -0.0741   21.0780 C.3     1  UNL1        0.0014
     35 C           2.8096   -1.0061   21.5390 C.3     1  UNL1        0.0001
     36 C           3.8564   -2.0797   21.4997 C.3     1  UNL1        0.0000
     37 C           2.7108   -1.4136   20.0988 C.3     1  UNL1        0.0000
     38 C           3.2718   -0.9714   22.9655 C.3     1  UNL1        0.0014
     39 C           2.6530   -0.0046   23.9312 C.3     1  UNL1        0.0157
@<TRIPOS>BOND
     1    28    29    1
     2    29    22    1
     3    22    23   ar
     4    23    24   ar
     5    24    25   ar
     6    25    17    1
     7    17    18   ar
     8    18    19   ar
     9    19    20   ar
    10    20    13    1
    11    13    14    2
    12    13    15   am
    13    15    16    1
    14     1    15    1
    15     1     2    1
    16     2     3    1
    17     3     4    1
    18     4     5   am
    19     5     6    2
    20     5     7   am
    21     7     8    1
    22     8     9    1
    23     9    10    1
    24    10    30    1
    25    30    32    1
    26    32    33    1
    27    33    34    1
    28    34    35    1
    29    35    36    1
    30    35    37    1
    31    35    38    1
    32    38    39    1
    33    10    11    1
    34     4    12    1
    35    20    21   ar
    36    25    26   ar
    37    26    27   ar
    38    27    22   ar
    39    21    17   ar
    40    12     1    1
    41    11     7    1
    42    39    32    1
    43    30    31    1
@<TRIPOS>MOLECULE
*****
 39 43 0 0 0
SMALL
GASTEIGER

@<TRIPOS>ATOM
      1 C           1.2086    3.3706   30.7547 C.3     1  UNL1        0.0972
      2 C           2.1726    4.0798   29.8505 C.3     1  UNL1        0.0431
      3 C           2.0434    3.4870   28.4787 C.3     1  UNL1        0.0968
      4 N           0.9994    2.4114   28.5350 N.am    1  UNL1       -0.2623
      5 C           0.5503    1.5576   27.3864 C.2     1  UNL1        0.3073
      6 O          -0.5092    0.5165   27.5952 O.2     1  UNL1       -0.2523
      7 N           1.1606    1.7450   26.0291 N.am    1  UNL1       -0.2626
      8 C           2.2240    2.7402   25.6703 C.3     1  UNL1        0.0964
      9 C           2.5353    2.5803   24.2117 C.3     1  UNL1        0.0390
     10 C           1.6643    1.4863   23.6690 C.3     1  UNL1        0.0758
     11 C           0.8147    0.9700   24.7922 C.3     1  UNL1        0.1106
     12 C           0.4835    2.3394   29.9417 C.3     1  UNL1        0.1147
     13 C           2.0172    3.1690   33.2155 C.2     1  UNL1        0.2551
     14 O           1.8139    3.4428   34.6762 O.2     1  UNL1       -0.2694
     15 N           1.0053    3.6443   32.2154 N.am    1  UNL1       -0.2738
     16 C          -0.2098    4.3934   32.6761 C.3     1  UNL1        0.1152
     17 C           4.7286    0.6202   32.1124 C.ar    1  UNL1        0.0296
     18 C           5.4760    1.9140   31.9799 C.ar    1  UNL1        0.0071
     19 C           4.5513    3.0263   32.3771 C.ar    1  UNL1        0.0115
     20 C           3.2324    2.4199   32.7549 C.ar    1  UNL1        0.0830
     21 S           3.3420    0.9329   32.5913 S.2     1  UNL1       -0.0824
     22 C           6.3600   -3.4794   31.2280 C.ar    1  UNL1        0.1387
     23 C           6.2664   -2.4574   30.1341 C.ar    1  UNL1        0.0369
     24 C           5.7226   -1.0909   30.4289 C.ar    1  UNL1        0.0036
     25 C           5.2724   -0.7464   31.8176 C.ar    1  UNL1        0.0062
     26 C           5.3660   -1.7684   32.9115 C.ar    1  UNL1        0.0036
     27 C           5.9098   -3.1349   32.6167 C.ar    1  UNL1        0.0369
     28 C           6.7360   -5.4411   29.5666 C.3     1  UNL1        0.2525
     29 O           6.9037   -4.8459   30.9332 O.3     1  UNL1       -0.4714
     30 N           1.6461    0.9949   22.2519 N.3     1  UNL1       -0.2982
     31 H           1.9984    1.7562   21.6717 H       1  UNL1        0.1232
     32 C           2.4214   -0.2322   21.8737 C.3     1  UNL1        0.0540
     33 C           3.2539   -0.9398   22.9014 C.3     1  UNL1        0.0157
     34 C           4.0293   -2.1669   22.5231 C.3     1  UNL1        0.0014
     35 C           3.9720   -2.6864   21.1172 C.3     1  UNL1        0.0001
     36 C           4.2357   -3.5567   19.9243 C.3     1  UNL1        0.0000
     37 C           4.8961   -3.6962   21.7307 C.3     1  UNL1        0.0000
     38 C           3.1395   -1.9789   20.0895 C.3     1  UNL1        0.0014
     39 C           2.3641   -0.7518   20.4677 C.3     1  UNL1        0.0157
@<TRIPOS>BOND
     1    28    29    1
     2    29    22    1
     3    22    23   ar
     4    23    24   ar
     5    24    25   ar
     6    25    17    1
     7    17    18   ar
     8    18    19   ar
     9    19    20   ar
    10    20    13    1
    11    13    14    2
    12    13    15   am
    13    15    16    1
    14     1    15    1
    15     1     2    1
    16     2     3    1
    17     3     4    1
    18     4     5   am
    19     5     6    2
    20     5     7   am
    21     7     8    1
    22     8     9    1
    23     9    10    1
    24    10    30    1
    25    30    32    1
    26    32    33    1
    27    33    34    1
    28    34    35    1
    29    35    36    1
    30    35    37    1
    31    35    38    1
    32    38    39    1
    33    10    11    1
    34     4    12    1
    35    20    21   ar
    36    25    26   ar
    37    26    27   ar
    38    27    22   ar
    39    21    17   ar
    40    12     1    1
    41    11     7    1
    42    39    32    1
    43    30    31    1
