@<TRIPOS>MOLECULE
*****
 27 29 0 0 0
SMALL
GASTEIGER

@<TRIPOS>ATOM
      1 C          -5.0243  -16.6146   24.4345 C.ar    1  UNL1        0.1473
      2 C          -5.2839  -15.8798   25.7162 C.ar    1  UNL1        0.0376
      3 C          -6.5321  -15.0628   25.8728 C.ar    1  UNL1        0.0033
      4 C          -7.5208  -14.9806   24.7477 C.ar    1  UNL1        0.0047
      5 C          -7.2612  -15.7154   23.4660 C.ar    1  UNL1        0.0566
      6 C          -6.0130  -16.5324   23.3094 C.ar    1  UNL1        0.0421
      7 C          -8.2498  -15.6332   22.3410 C.2     1  UNL1        0.2493
      8 O          -7.9404  -14.8044   21.1296 O.2     1  UNL1       -0.2699
      9 N          -9.5480  -16.3798   22.4272 N.am    1  UNL1       -0.2706
     10 C         -10.6283  -16.3932   21.3866 C.3     1  UNL1        0.1258
     11 C         -11.7417  -17.2657   21.8855 C.3     1  UNL1        0.1644
     12 O         -13.0224  -17.5606   21.1624 O.3     1  UNL1       -0.3799
     13 C         -11.3496  -17.7917   23.2345 C.3     1  UNL1        0.2089
     14 F         -12.1693  -18.7048   24.0972 F       1  UNL1       -0.2328
     15 C          -9.9938  -17.2442   23.5693 C.3     1  UNL1        0.1315
     16 H         -13.5703  -18.1511   21.7028 H       1  UNL1        0.2105
     17 O          -3.7762  -17.4315   24.2779 O.3     1  UNL1       -0.4361
     18 C          -2.0350  -18.0128   20.7593 C.ar    1  UNL1       -0.0004
     19 C          -2.7565  -19.2394   20.2852 C.ar    1  UNL1        0.0180
     20 C          -3.8179  -19.8634   21.1420 C.ar    1  UNL1        0.1018
     21 N          -4.1578  -19.2608   22.4729 N.ar    1  UNL1       -0.2098
     22 C          -3.4363  -18.0342   22.9470 C.ar    1  UNL1        0.2294
     23 C          -2.3749  -17.4102   22.0902 C.ar    1  UNL1        0.0552
     24 N          -0.8723  -17.7518   18.4507 N.3     1  UNL1       -0.3175
     25 C          -0.9737  -17.3887   19.9025 C.3     1  UNL1        0.0924
     26 H          -0.1011  -17.2377   18.0247 H       1  UNL1        0.1192
     27 H          -1.7436  -17.5107   17.9783 H       1  UNL1        0.1192
@<TRIPOS>BOND
     1    24    25    1
     2    25    18    1
     3    18    19   ar
     4    19    20   ar
     5    20    21   ar
     6    21    22   ar
     7    22    17    1
     8    17     1    1
     9     1     2   ar
    10     2     3   ar
    11     3     4   ar
    12     4     5   ar
    13     5     7    1
    14     7     8    2
    15     7     9   am
    16     9    10    1
    17    10    11    1
    18    11    12    1
    19    11    13    1
    20    13    14    1
    21    13    15    1
    22     5     6   ar
    23    22    23   ar
    24    23    18   ar
    25     6     1   ar
    26    15     9    1
    27    24    26    1
    28    24    27    1
    29    12    16    1
@<TRIPOS>MOLECULE
*****
 27 29 0 0 0
SMALL
GASTEIGER

@<TRIPOS>ATOM
      1 C          -8.0663  -19.2652   19.9957 C.ar    1  UNL1        0.1473
      2 C          -8.1329  -20.6262   19.3685 C.ar    1  UNL1        0.0376
      3 C          -6.9553  -21.5512   19.4570 C.ar    1  UNL1        0.0033
      4 C          -5.7112  -21.1152   20.1727 C.ar    1  UNL1        0.0047
      5 C          -5.6447  -19.7543   20.7998 C.ar    1  UNL1        0.0566
      6 C          -6.8221  -18.8293   20.7114 C.ar    1  UNL1        0.0421
      7 C          -4.4006  -19.3183   21.5155 C.2     1  UNL1        0.2493
      8 O          -4.3146  -19.4340   23.0085 O.2     1  UNL1       -0.2699
      9 N          -3.2424  -18.7666   20.7380 N.am    1  UNL1       -0.2706
     10 C          -1.9404  -18.2927   21.3127 C.3     1  UNL1        0.1258
     11 C          -1.0763  -17.8252   20.1793 C.3     1  UNL1        0.1644
     12 O           0.3121  -17.2702   20.2999 O.3     1  UNL1       -0.3799
     13 C          -1.8442  -18.0102   18.9041 C.3     1  UNL1        0.2089
     14 F          -1.3586  -17.6726   17.5256 F       1  UNL1       -0.2328
     15 C          -3.1829  -18.5920   19.2494 C.3     1  UNL1        0.1315
     16 H           0.6476  -17.0441   19.4183 H       1  UNL1        0.2105
     17 O          -9.2438  -18.3402   19.9073 O.3     1  UNL1       -0.4361
     18 C         -10.8166  -18.5702   23.5437 C.ar    1  UNL1       -0.0004
     19 C         -12.2381  -18.1825   23.2628 C.ar    1  UNL1        0.0180
     20 C         -12.6615  -17.8473   21.8634 C.ar    1  UNL1        0.1018
     21 N         -11.6634  -17.8999   20.7449 N.ar    1  UNL1       -0.2098
     22 C         -10.2419  -18.2876   21.0258 C.ar    1  UNL1        0.2294
     23 C          -9.8185  -18.6228   22.4252 C.ar    1  UNL1        0.0552
     24 N         -10.1814  -20.3363   25.3402 N.3     1  UNL1       -0.3175
     25 C         -10.3931  -18.9054   24.9431 C.3     1  UNL1        0.0924
     26 H          -9.8983  -20.3791   26.3192 H       1  UNL1        0.1192
     27 H          -9.4520  -20.7466   24.7572 H       1  UNL1        0.1192
@<TRIPOS>BOND
     1    24    25    1
     2    25    18    1
     3    18    19   ar
     4    19    20   ar
     5    20    21   ar
     6    21    22   ar
     7    22    17    1
     8    17     1    1
     9     1     2   ar
    10     2     3   ar
    11     3     4   ar
    12     4     5   ar
    13     5     7    1
    14     7     8    2
    15     7     9   am
    16     9    10    1
    17    10    11    1
    18    11    12    1
    19    11    13    1
    20    13    14    1
    21    13    15    1
    22     5     6   ar
    23    22    23   ar
    24    23    18   ar
    25     6     1   ar
    26    15     9    1
    27    24    26    1
    28    24    27    1
    29    12    16    1
@<TRIPOS>MOLECULE
*****
 27 29 0 0 0
SMALL
GASTEIGER

@<TRIPOS>ATOM
      1 C          -7.4676  -19.7978   20.4227 C.ar    1  UNL1        0.1473
      2 C          -8.4535  -19.7430   19.2937 C.ar    1  UNL1        0.0376
      3 C          -9.7974  -19.1097   19.5015 C.ar    1  UNL1        0.0033
      4 C         -10.1552  -18.5313   20.8384 C.ar    1  UNL1        0.0047
      5 C          -9.1692  -18.5861   21.9675 C.ar    1  UNL1        0.0566
      6 C          -7.8254  -19.2193   21.7597 C.ar    1  UNL1        0.0421
      7 C          -9.5270  -18.0077   23.3044 C.2     1  UNL1        0.2493
      8 O         -10.8271  -18.3742   23.9566 O.2     1  UNL1       -0.2699
      9 N          -8.5847  -17.0626   23.9892 N.am    1  UNL1       -0.2706
     10 C          -8.8052  -16.4081   25.3208 C.3     1  UNL1        0.1258
     11 C          -7.6132  -15.5471   25.6172 C.3     1  UNL1        0.1644
     12 O          -7.4135  -14.7107   26.8462 O.3     1  UNL1       -0.3799
     13 C          -6.6559  -15.6694   24.4687 C.3     1  UNL1        0.2089
     14 F          -5.3310  -14.9768   24.3477 F       1  UNL1       -0.2328
     15 C          -7.2564  -16.6060   23.4626 C.3     1  UNL1        0.1315
     16 H          -6.5606  -14.2520   26.7901 H       1  UNL1        0.2105
     17 O          -6.1238  -20.4310   20.2149 O.3     1  UNL1       -0.4361
     18 C          -2.8089  -18.2814   19.8397 C.ar    1  UNL1       -0.0004
     19 C          -2.3816  -18.1668   21.2729 C.ar    1  UNL1        0.0180
     20 C          -3.2017  -18.8069   22.3536 C.ar    1  UNL1        0.1018
     21 N          -4.4491  -19.5616   22.0009 N.ar    1  UNL1       -0.2098
     22 C          -4.8763  -19.6763   20.5677 C.ar    1  UNL1        0.2294
     23 C          -4.0562  -19.0362   19.4871 C.ar    1  UNL1        0.0552
     24 N          -0.5035  -17.8480   18.7228 N.3     1  UNL1       -0.3175
     25 C          -1.9888  -17.6414   18.7591 C.3     1  UNL1        0.0924
     26 H          -0.1095  -17.3445   17.9280 H       1  UNL1        0.1192
     27 H          -0.3010  -18.8433   18.6290 H       1  UNL1        0.1192
@<TRIPOS>BOND
     1    24    25    1
     2    25    18    1
     3    18    19   ar
     4    19    20   ar
     5    20    21   ar
     6    21    22   ar
     7    22    17    1
     8    17     1    1
     9     1     2   ar
    10     2     3   ar
    11     3     4   ar
    12     4     5   ar
    13     5     7    1
    14     7     8    2
    15     7     9   am
    16     9    10    1
    17    10    11    1
    18    11    12    1
    19    11    13    1
    20    13    14    1
    21    13    15    1
    22     5     6   ar
    23    22    23   ar
    24    23    18   ar
    25     6     1   ar
    26    15     9    1
    27    24    26    1
    28    24    27    1
    29    12    16    1
@<TRIPOS>MOLECULE
*****
 27 29 0 0 0
SMALL
GASTEIGER

@<TRIPOS>ATOM
      1 C         -10.0604  -17.2245   23.2813 C.ar    1  UNL1        0.1473
      2 C         -11.3194  -18.0398   23.2920 C.ar    1  UNL1        0.0376
      3 C         -11.4830  -19.1797   22.3307 C.ar    1  UNL1        0.0033
      4 C         -10.3876  -19.5042   21.3587 C.ar    1  UNL1        0.0047
      5 C          -9.1286  -18.6888   21.3480 C.ar    1  UNL1        0.0566
      6 C          -8.9649  -17.5490   22.3092 C.ar    1  UNL1        0.0421
      7 C          -8.0332  -19.0133   20.3760 C.2     1  UNL1        0.2493
      8 O          -8.3668  -19.3299   18.9483 O.2     1  UNL1       -0.2699
      9 N          -6.6040  -19.0211   20.8317 N.am    1  UNL1       -0.2706
     10 C          -5.4082  -19.3251   19.9787 C.3     1  UNL1        0.1258
     11 C          -4.1850  -19.2182   20.8403 C.3     1  UNL1        0.1644
     12 O          -2.7704  -19.4421   20.3946 O.3     1  UNL1       -0.3799
     13 C          -4.6248  -18.8480   22.2258 C.3     1  UNL1        0.2089
     14 F          -3.7272  -18.6368   23.4089 F       1  UNL1       -0.2328
     15 C          -6.1199  -18.7262   22.2205 C.3     1  UNL1        0.1315
     16 H          -2.1702  -19.3106   21.1453 H       1  UNL1        0.2105
     17 O          -9.8967  -16.0847   24.2425 O.3     1  UNL1       -0.4361
     18 C          -6.0043  -15.5288   24.7810 C.ar    1  UNL1       -0.0004
     19 C          -5.9395  -15.4055   26.2745 C.ar    1  UNL1        0.0180
     20 C          -7.1938  -15.5087   27.0907 C.ar    1  UNL1        0.1018
     21 N          -8.5128  -15.7351   26.4134 N.ar    1  UNL1       -0.2098
     22 C          -8.5776  -15.8583   24.9199 C.ar    1  UNL1        0.2294
     23 C          -7.3234  -15.7551   24.1037 C.ar    1  UNL1        0.0552
     24 N          -4.6758  -14.4555   22.8232 N.3     1  UNL1       -0.3175
     25 C          -4.7500  -15.4256   23.9648 C.3     1  UNL1        0.0924
     26 H          -3.7579  -14.5183   22.3828 H       1  UNL1        0.1192
     27 H          -4.8213  -13.5081   23.1721 H       1  UNL1        0.1192
@<TRIPOS>BOND
     1    24    25    1
     2    25    18    1
     3    18    19   ar
     4    19    20   ar
     5    20    21   ar
     6    21    22   ar
     7    22    17    1
     8    17     1    1
     9     1     2   ar
    10     2     3   ar
    11     3     4   ar
    12     4     5   ar
    13     5     7    1
    14     7     8    2
    15     7     9   am
    16     9    10    1
    17    10    11    1
    18    11    12    1
    19    11    13    1
    20    13    14    1
    21    13    15    1
    22     5     6   ar
    23    22    23   ar
    24    23    18   ar
    25     6     1   ar
    26    15     9    1
    27    24    26    1
    28    24    27    1
    29    12    16    1
@<TRIPOS>MOLECULE
*****
 27 29 0 0 0
SMALL
GASTEIGER

@<TRIPOS>ATOM
      1 C          -5.5538  -15.7064   24.2483 C.ar    1  UNL1        0.1473
      2 C          -5.3693  -15.1418   25.6257 C.ar    1  UNL1        0.0376
      3 C          -6.4654  -15.2701   26.6418 C.ar    1  UNL1        0.0033
      4 C          -7.7457  -15.9630   26.2805 C.ar    1  UNL1        0.0047
      5 C          -7.9301  -16.5276   24.9031 C.ar    1  UNL1        0.0566
      6 C          -6.8342  -16.3993   23.8870 C.ar    1  UNL1        0.0421
      7 C          -9.2105  -17.2204   24.5418 C.2     1  UNL1        0.2493
      8 O          -9.7881  -18.2559   25.4606 O.2     1  UNL1       -0.2699
      9 N          -9.9132  -16.8779   23.2616 N.am    1  UNL1       -0.2706
     10 C         -11.1941  -17.4838   22.7695 C.3     1  UNL1        0.1258
     11 C         -11.5310  -16.8497   21.4525 C.3     1  UNL1        0.1644
     12 O         -12.7300  -17.1591   20.6060 O.3     1  UNL1       -0.3799
     13 C         -10.4582  -15.8518   21.1306 C.3     1  UNL1        0.2089
     14 F         -10.3962  -14.9882   19.9058 F       1  UNL1       -0.2328
     15 C          -9.4584  -15.8693   22.2487 C.3     1  UNL1        0.1315
     16 H         -12.7112  -16.6108   19.8060 H       1  UNL1        0.2105
     17 O          -4.4578  -15.5782   23.2323 O.3     1  UNL1       -0.4361
     18 C          -1.9001  -17.9036   21.2828 C.ar    1  UNL1       -0.0004
     19 C          -2.4269  -19.2628   21.6359 C.ar    1  UNL1        0.0180
     20 C          -3.6307  -19.3939   22.5212 C.ar    1  UNL1        0.1018
     21 N          -4.3077  -18.1657   23.0533 N.ar    1  UNL1       -0.2098
     22 C          -3.7809  -16.8065   22.7002 C.ar    1  UNL1        0.2294
     23 C          -2.5770  -16.6754   21.8149 C.ar    1  UNL1        0.0552
     24 N          -0.8488  -17.8521   18.9075 N.3     1  UNL1       -0.3175
     25 C          -0.6963  -17.7725   20.3976 C.3     1  UNL1        0.0924
     26 H           0.0643  -17.7437   18.4660 H       1  UNL1        0.1192
     27 H          -1.4708  -17.1090   18.5892 H       1  UNL1        0.1192
@<TRIPOS>BOND
     1    24    25    1
     2    25    18    1
     3    18    19   ar
     4    19    20   ar
     5    20    21   ar
     6    21    22   ar
     7    22    17    1
     8    17     1    1
     9     1     2   ar
    10     2     3   ar
    11     3     4   ar
    12     4     5   ar
    13     5     7    1
    14     7     8    2
    15     7     9   am
    16     9    10    1
    17    10    11    1
    18    11    12    1
    19    11    13    1
    20    13    14    1
    21    13    15    1
    22     5     6   ar
    23    22    23   ar
    24    23    18   ar
    25     6     1   ar
    26    15     9    1
    27    24    26    1
    28    24    27    1
    29    12    16    1
@<TRIPOS>MOLECULE
*****
 27 29 0 0 0
SMALL
GASTEIGER

@<TRIPOS>ATOM
      1 C          -7.8887  -19.1792   22.1976 C.ar    1  UNL1        0.1473
      2 C          -8.1058  -19.8617   20.8796 C.ar    1  UNL1        0.0376
      3 C          -6.9421  -20.1239   19.9701 C.ar    1  UNL1        0.0033
      4 C          -5.5614  -19.7035   20.3785 C.ar    1  UNL1        0.0047
      5 C          -5.3443  -19.0210   21.6965 C.ar    1  UNL1        0.0566
      6 C          -6.5079  -18.7588   22.6060 C.ar    1  UNL1        0.0421
      7 C          -3.9636  -18.6006   22.1050 C.2     1  UNL1        0.2493
      8 O          -3.5948  -18.5477   23.5579 O.2     1  UNL1       -0.2699
      9 N          -2.9517  -18.2331   21.0604 N.am    1  UNL1       -0.2706
     10 C          -1.5397  -17.7961   21.3159 C.3     1  UNL1        0.1258
     11 C          -0.8894  -17.5311   19.9904 C.3     1  UNL1        0.1644
     12 O           0.5229  -17.0732   19.7771 O.3     1  UNL1       -0.3799
     13 C          -1.8996  -17.8044   18.9156 C.3     1  UNL1        0.2089
     14 F          -1.6747  -17.6677   17.4389 F       1  UNL1       -0.2328
     15 C          -3.1741  -18.2383   19.5770 C.3     1  UNL1        0.1315
     16 H           0.6918  -16.9776   18.8267 H       1  UNL1        0.2105
     17 O          -9.0523  -18.9171   23.1071 O.3     1  UNL1       -0.4361
     18 C         -11.4169  -16.6707   20.8460 C.ar    1  UNL1       -0.0004
     19 C         -12.7415  -16.8918   21.5140 C.ar    1  UNL1        0.0180
     20 C         -12.8365  -17.7879   22.7131 C.ar    1  UNL1        0.1018
     21 N         -11.6068  -18.4630   23.2442 N.ar    1  UNL1       -0.2098
     22 C         -10.2821  -18.2420   22.5761 C.ar    1  UNL1        0.2294
     23 C         -10.1872  -17.3458   21.3770 C.ar    1  UNL1        0.0552
     24 N         -12.5648  -15.3780   18.9065 N.3     1  UNL1       -0.3175
     25 C         -11.3220  -15.7745   19.6469 C.3     1  UNL1        0.0924
     26 H         -12.3162  -14.7715   18.1251 H       1  UNL1        0.1192
     27 H         -13.1921  -14.8795   19.5377 H       1  UNL1        0.1192
@<TRIPOS>BOND
     1    24    25    1
     2    25    18    1
     3    18    19   ar
     4    19    20   ar
     5    20    21   ar
     6    21    22   ar
     7    22    17    1
     8    17     1    1
     9     1     2   ar
    10     2     3   ar
    11     3     4   ar
    12     4     5   ar
    13     5     7    1
    14     7     8    2
    15     7     9   am
    16     9    10    1
    17    10    11    1
    18    11    12    1
    19    11    13    1
    20    13    14    1
    21    13    15    1
    22     5     6   ar
    23    22    23   ar
    24    23    18   ar
    25     6     1   ar
    26    15     9    1
    27    24    26    1
    28    24    27    1
    29    12    16    1
@<TRIPOS>MOLECULE
*****
 27 29 0 0 0
SMALL
GASTEIGER

@<TRIPOS>ATOM
      1 C          -5.6751  -15.7890   24.2931 C.ar    1  UNL1        0.1473
      2 C          -5.9168  -15.5023   25.7454 C.ar    1  UNL1        0.0376
      3 C          -7.2994  -15.6257   26.3143 C.ar    1  UNL1        0.0033
      4 C          -8.4400  -16.0358   25.4308 C.ar    1  UNL1        0.0047
      5 C          -8.1982  -16.3226   23.9784 C.ar    1  UNL1        0.0566
      6 C          -6.8158  -16.1992   23.4096 C.ar    1  UNL1        0.0421
      7 C          -9.3389  -16.7327   23.0949 C.2     1  UNL1        0.2493
      8 O         -10.7009  -16.1405   23.3051 O.2     1  UNL1       -0.2699
      9 N          -9.1175  -17.7351   22.0011 N.am    1  UNL1       -0.2706
     10 C         -10.1564  -18.2393   21.0437 C.3     1  UNL1        0.1258
     11 C          -9.4994  -19.2250   20.1236 C.3     1  UNL1        0.1644
     12 O         -10.1696  -19.9742   19.0103 O.3     1  UNL1       -0.3799
     13 C          -8.0544  -19.3301   20.5124 C.3     1  UNL1        0.2089
     14 F          -7.0260  -20.2028   19.8560 F       1  UNL1       -0.2328
     15 C          -7.8184  -18.4093   21.6727 C.3     1  UNL1        0.1315
     16 H          -9.5220  -20.5467   18.5701 H       1  UNL1        0.2105
     17 O          -4.2926  -15.6656   23.7243 O.3     1  UNL1       -0.4361
     18 C          -1.9430  -17.7052   21.2606 C.ar    1  UNL1       -0.0004
     19 C          -2.4888  -19.0918   21.4315 C.ar    1  UNL1        0.0180
     20 C          -3.6359  -19.3365   22.3666 C.ar    1  UNL1        0.1018
     21 N          -4.2371  -18.1944   23.1308 N.ar    1  UNL1       -0.2098
     22 C          -3.6914  -16.8077   22.9600 C.ar    1  UNL1        0.2294
     23 C          -2.5443  -16.5631   22.0249 C.ar    1  UNL1        0.0552
     24 N           0.0001  -18.6166   19.7965 N.3     1  UNL1       -0.3175
     25 C          -0.7960  -17.4606   20.3255 C.3     1  UNL1        0.0924
     26 H           0.7350  -18.2696   19.1802 H       1  UNL1        0.1192
     27 H          -0.6141  -19.2419   19.2748 H       1  UNL1        0.1192
@<TRIPOS>BOND
     1    24    25    1
     2    25    18    1
     3    18    19   ar
     4    19    20   ar
     5    20    21   ar
     6    21    22   ar
     7    22    17    1
     8    17     1    1
     9     1     2   ar
    10     2     3   ar
    11     3     4   ar
    12     4     5   ar
    13     5     7    1
    14     7     8    2
    15     7     9   am
    16     9    10    1
    17    10    11    1
    18    11    12    1
    19    11    13    1
    20    13    14    1
    21    13    15    1
    22     5     6   ar
    23    22    23   ar
    24    23    18   ar
    25     6     1   ar
    26    15     9    1
    27    24    26    1
    28    24    27    1
    29    12    16    1
@<TRIPOS>MOLECULE
*****
 27 29 0 0 0
SMALL
GASTEIGER

@<TRIPOS>ATOM
      1 C          -7.8242  -19.2368   21.2326 C.ar    1  UNL1        0.1473
      2 C          -8.0851  -20.2928   20.1998 C.ar    1  UNL1        0.0376
      3 C          -6.9421  -21.0682   19.6146 C.ar    1  UNL1        0.0033
      4 C          -5.5383  -20.7874   20.0621 C.ar    1  UNL1        0.0047
      5 C          -5.2773  -19.7314   21.0949 C.ar    1  UNL1        0.0566
      6 C          -6.4203  -18.9560   21.6801 C.ar    1  UNL1        0.0421
      7 C          -3.8735  -19.4506   21.5425 C.2     1  UNL1        0.2493
      8 O          -3.4307  -19.8512   22.9185 O.2     1  UNL1       -0.2699
      9 N          -2.9124  -18.7692   20.6140 N.am    1  UNL1       -0.2706
     10 C          -1.4849  -18.4247   20.9200 C.3     1  UNL1        0.1258
     11 C          -0.9004  -17.7552   19.7116 C.3     1  UNL1        0.1644
     12 O           0.5039  -17.2447   19.5793 O.3     1  UNL1       -0.3799
     13 C          -1.9666  -17.6860   18.6588 C.3     1  UNL1        0.2089
     14 F          -1.8158  -17.0941   17.2888 F       1  UNL1       -0.2328
     15 C          -3.2100  -18.3127   19.2165 C.3     1  UNL1        0.1315
     16 H           0.6251  -16.8563   18.6988 H       1  UNL1        0.2105
     17 O          -8.9671  -18.4615   21.8178 O.3     1  UNL1       -0.4361
     18 C          -7.0366  -15.8202   24.0643 C.ar    1  UNL1       -0.0004
     19 C          -8.1746  -15.2152   24.8318 C.ar    1  UNL1        0.0180
     20 C          -9.5767  -15.6924   24.5946 C.ar    1  UNL1        0.1018
     21 N          -9.8409  -16.7744   23.5900 N.ar    1  UNL1       -0.2098
     22 C          -8.7030  -17.3793   22.8225 C.ar    1  UNL1        0.2294
     23 C          -7.3008  -16.9022   23.0597 C.ar    1  UNL1        0.0552
     24 N          -4.8965  -14.6148   23.2175 N.3     1  UNL1       -0.3175
     25 C          -5.6344  -15.3431   24.3015 C.3     1  UNL1        0.0924
     26 H          -3.9644  -14.3661   23.5487 H       1  UNL1        0.1192
     27 H          -5.4066  -13.7670   22.9694 H       1  UNL1        0.1192
@<TRIPOS>BOND
     1    24    25    1
     2    25    18    1
     3    18    19   ar
     4    19    20   ar
     5    20    21   ar
     6    21    22   ar
     7    22    17    1
     8    17     1    1
     9     1     2   ar
    10     2     3   ar
    11     3     4   ar
    12     4     5   ar
    13     5     7    1
    14     7     8    2
    15     7     9   am
    16     9    10    1
    17    10    11    1
    18    11    12    1
    19    11    13    1
    20    13    14    1
    21    13    15    1
    22     5     6   ar
    23    22    23   ar
    24    23    18   ar
    25     6     1   ar
    26    15     9    1
    27    24    26    1
    28    24    27    1
    29    12    16    1
@<TRIPOS>MOLECULE
*****
 27 29 0 0 0
SMALL
GASTEIGER

@<TRIPOS>ATOM
      1 C           8.3191   -4.4901   21.4152 C.ar    1  UNL1        0.1473
      2 C           9.4608   -3.5180   21.4549 C.ar    1  UNL1        0.0376
      3 C           9.3602   -2.2126   20.7228 C.ar    1  UNL1        0.0033
      4 C           8.1179   -1.8794   19.9510 C.ar    1  UNL1        0.0047
      5 C           6.9763   -2.8515   19.9113 C.ar    1  UNL1        0.0566
      6 C           7.0768   -4.1568   20.6434 C.ar    1  UNL1        0.0421
      7 C           5.7340   -2.5183   19.1395 C.2     1  UNL1        0.2493
      8 O           5.7043   -2.7007   17.6509 O.2     1  UNL1       -0.2699
      9 N           4.5214   -2.0027   19.8563 N.am    1  UNL1       -0.2706
     10 C           3.2145   -1.6291   19.2218 C.3     1  UNL1        0.1258
     11 C           2.2882   -1.1657   20.3068 C.3     1  UNL1        0.1644
     12 O           0.8755   -0.6973   20.1196 O.3     1  UNL1       -0.3799
     13 C           3.0226   -1.2528   21.6119 C.3     1  UNL1        0.2089
     14 F           2.4732   -0.8868   22.9588 F       1  UNL1       -0.2328
     15 C           4.4027   -1.7700   21.3334 C.3     1  UNL1        0.1315
     16 H           0.4987   -0.4546   20.9798 H       1  UNL1        0.2105
     17 O           8.4197   -5.7954   22.1473 O.3     1  UNL1       -0.4361
     18 C           7.9308   -7.1876   25.8314 C.ar    1  UNL1       -0.0004
     19 C           7.1775   -6.0555   26.4646 C.ar    1  UNL1        0.0180
     20 C           6.8383   -4.8367   25.6587 C.ar    1  UNL1        0.1018
     21 N           7.2524   -4.7500   24.2196 N.ar    1  UNL1       -0.2098
     22 C           8.0056   -5.8821   23.5864 C.ar    1  UNL1        0.2294
     23 C           8.3448   -7.1009   24.3924 C.ar    1  UNL1        0.0552
     24 N           7.1776   -9.2081   27.2805 N.3     1  UNL1       -0.3175
     25 C           8.2700   -8.4063   26.6374 C.3     1  UNL1        0.0924
     26 H           7.5855   -9.9953   27.7848 H       1  UNL1        0.1192
     27 H           6.5434   -9.5567   26.5617 H       1  UNL1        0.1192
@<TRIPOS>BOND
     1    24    25    1
     2    25    18    1
     3    18    19   ar
     4    19    20   ar
     5    20    21   ar
     6    21    22   ar
     7    22    17    1
     8    17     1    1
     9     1     2   ar
    10     2     3   ar
    11     3     4   ar
    12     4     5   ar
    13     5     7    1
    14     7     8    2
    15     7     9   am
    16     9    10    1
    17    10    11    1
    18    11    12    1
    19    11    13    1
    20    13    14    1
    21    13    15    1
    22     5     6   ar
    23    22    23   ar
    24    23    18   ar
    25     6     1   ar
    26    15     9    1
    27    24    26    1
    28    24    27    1
    29    12    16    1
