@<TRIPOS>MOLECULE
*****
 35 38 0 0 0
SMALL
GASTEIGER

@<TRIPOS>ATOM
      1 C           5.3004   -3.2423   21.4299 C.ar    1  UNL1        0.1387
      2 C           5.2344   -3.0936   22.9210 C.ar    1  UNL1        0.0375
      3 C           4.2541   -2.1398   23.5370 C.ar    1  UNL1        0.0114
      4 C           3.3399   -1.3347   22.6618 C.ar    1  UNL1        0.0422
      5 C           3.4060   -1.4834   21.1706 C.ar    1  UNL1        0.0114
      6 C           4.3862   -2.4372   20.5547 C.ar    1  UNL1        0.0375
      7 C           2.3597   -0.3809   23.2777 C.1     1  UNL1       -0.0583
      8 C           1.3794    0.5729   23.8936 C.1     1  UNL1       -0.0405
      9 C           0.3991    1.5267   24.5095 C.ar    1  UNL1        0.1228
     10 C          -0.0259    1.3478   25.9369 C.ar    1  UNL1        0.0276
     11 C          -1.0061    2.3016   26.5527 C.ar    1  UNL1        0.0037
     12 C          -1.5613    3.4344   25.7412 C.ar    1  UNL1        0.0192
     13 C          -1.1363    3.6133   24.3139 C.ar    1  UNL1        0.0995
     14 N          -0.1561    2.6595   23.6980 N.ar    1  UNL1       -0.2356
     15 C          -2.5416    4.3882   26.3571 C.ar    1  UNL1        0.0016
     16 C          -2.0514    5.6299   27.0410 C.ar    1  UNL1        0.0009
     17 C          -3.0317    6.5838   27.6569 C.ar    1  UNL1        0.0114
     18 C          -4.5022    6.2959   27.5888 C.ar    1  UNL1        0.0577
     19 CL         -5.4825    7.2496   28.2047 Cl      1  UNL1       -0.0822
     20 C          -4.9925    5.0541   26.9048 C.ar    1  UNL1        0.0114
     21 C          -4.0122    4.1003   26.2890 C.ar    1  UNL1        0.0009
     22 O           6.2807   -4.1961   20.8139 O.3     1  UNL1       -0.4740
     23 C           7.7473   -4.0473   21.0911 C.3     1  UNL1        0.2226
     24 C           8.5531   -5.2360   21.5243 C.3     1  UNL1        0.1200
     25 C           7.9496   -6.9906   25.6239 C.3     1  UNL1        0.0790
     26 C           7.4824   -5.5961   25.3287 C.3     1  UNL1        0.0264
     27 C           7.6835   -5.0113   23.9621 C.3     1  UNL1        0.0727
     28 N           8.3519   -5.8209   22.8908 N.3     1  UNL1       -0.2695
     29 C           8.8192   -7.2153   23.1861 C.3     1  UNL1        0.0727
     30 C           8.6180   -7.8001   24.5526 C.3     1  UNL1        0.0264
     31 N           7.4451   -9.0364   27.1438 N.am    1  UNL1       -0.3288
     32 C           7.7484   -7.5754   26.9905 C.2     1  UNL1        0.2190
     33 O           7.8506   -6.6993   28.2037 O.2     1  UNL1       -0.2753
     34 H           7.3131   -9.4202   28.0408 H       1  UNL1        0.1449
     35 H           7.3781   -9.6114   26.3476 H       1  UNL1        0.1449
@<TRIPOS>BOND
     1    31    32   am
     2    32    33    2
     3    32    25    1
     4    25    26    1
     5    26    27    1
     6    27    28    1
     7    28    24    1
     8    24    23    1
     9    23    22    1
    10    22     1    1
    11     1     2   ar
    12     2     3   ar
    13     3     4   ar
    14     4     7    1
    15     7     8    3
    16     8     9    1
    17     9    10   ar
    18    10    11   ar
    19    11    12   ar
    20    12    15    1
    21    15    16   ar
    22    16    17   ar
    23    17    18   ar
    24    18    19    1
    25    18    20   ar
    26    20    21   ar
    27    12    13   ar
    28    13    14   ar
    29     4     5   ar
    30     5     6   ar
    31    28    29    1
    32    29    30    1
    33    30    25    1
    34     6     1   ar
    35    14     9   ar
    36    21    15   ar
    37    31    34    1
    38    31    35    1
@<TRIPOS>MOLECULE
*****
 35 38 0 0 0
SMALL
GASTEIGER

@<TRIPOS>ATOM
      1 C           8.2632   -6.9107   28.8284 C.ar    1  UNL1        0.1387
      2 C           8.6555   -6.5938   30.2410 C.ar    1  UNL1        0.0375
      3 C           7.9872   -5.4660   30.9700 C.ar    1  UNL1        0.0114
      4 C           6.9265   -4.6551   30.2863 C.ar    1  UNL1        0.0422
      5 C           6.5342   -4.9721   28.8736 C.ar    1  UNL1        0.0114
      6 C           7.2025   -6.0998   28.1447 C.ar    1  UNL1        0.0375
      7 C           6.2582   -3.5273   31.0153 C.1     1  UNL1       -0.0583
      8 C           5.5899   -2.3996   31.7442 C.1     1  UNL1       -0.0405
      9 C           4.9215   -1.2717   32.4732 C.ar    1  UNL1        0.1228
     10 C           5.2329   -1.0244   33.9195 C.ar    1  UNL1        0.0276
     11 C           4.5645    0.1034   34.6484 C.ar    1  UNL1        0.0037
     12 C           3.5847    0.9838   33.9310 C.ar    1  UNL1        0.0192
     13 C           3.2732    0.7365   32.4847 C.ar    1  UNL1        0.0995
     14 N           3.9416   -0.3913   31.7558 N.ar    1  UNL1       -0.2356
     15 C           2.9162    2.1116   34.6599 C.ar    1  UNL1        0.0016
     16 C           2.1314    3.1372   33.8970 C.ar    1  UNL1        0.0009
     17 C           1.4630    4.2650   34.6259 C.ar    1  UNL1        0.0114
     18 C           1.5795    4.3672   36.1179 C.ar    1  UNL1        0.0577
     19 CL          0.9111    5.4949   36.8469 Cl      1  UNL1       -0.0822
     20 C           2.3644    3.3416   36.8809 C.ar    1  UNL1        0.0114
     21 C           3.0327    2.2138   36.1519 C.ar    1  UNL1        0.0009
     22 O           8.9316   -8.0386   28.0994 O.3     1  UNL1       -0.4740
     23 C           8.1029   -9.1024   27.4424 C.3     1  UNL1        0.2226
     24 C           8.0996  -10.4975   27.9933 C.3     1  UNL1        0.1200
     25 C           4.2799  -12.8752   28.0748 C.3     1  UNL1        0.0790
     26 C           5.5037  -13.3981   28.7667 C.3     1  UNL1        0.0264
     27 C           6.7770  -12.6056   28.7395 C.3     1  UNL1        0.0727
     28 N           6.8263  -11.2901   28.0205 N.3     1  UNL1       -0.2695
     29 C           5.6025  -10.7672   27.3287 C.3     1  UNL1        0.0727
     30 C           4.3293  -11.5597   27.3558 C.3     1  UNL1        0.0264
     31 N           1.7471  -13.0832   27.5348 N.am    1  UNL1       -0.3288
     32 C           3.0067  -13.6678   28.1020 C.2     1  UNL1        0.2190
     33 O           2.9930  -15.0449   28.6964 O.2     1  UNL1       -0.2753
     34 H           0.9114  -13.6034   27.5527 H       1  UNL1        0.1449
     35 H           1.7560  -12.1794   27.1447 H       1  UNL1        0.1449
@<TRIPOS>BOND
     1    31    32   am
     2    32    33    2
     3    32    25    1
     4    25    26    1
     5    26    27    1
     6    27    28    1
     7    28    24    1
     8    24    23    1
     9    23    22    1
    10    22     1    1
    11     1     2   ar
    12     2     3   ar
    13     3     4   ar
    14     4     7    1
    15     7     8    3
    16     8     9    1
    17     9    10   ar
    18    10    11   ar
    19    11    12   ar
    20    12    15    1
    21    15    16   ar
    22    16    17   ar
    23    17    18   ar
    24    18    19    1
    25    18    20   ar
    26    20    21   ar
    27    12    13   ar
    28    13    14   ar
    29     4     5   ar
    30     5     6   ar
    31    28    29    1
    32    29    30    1
    33    30    25    1
    34     6     1   ar
    35    14     9   ar
    36    21    15   ar
    37    31    34    1
    38    31    35    1
@<TRIPOS>MOLECULE
*****
 35 38 0 0 0
SMALL
GASTEIGER

@<TRIPOS>ATOM
      1 C           8.4097   -8.6665   26.6068 C.ar    1  UNL1        0.1387
      2 C           9.4732   -8.3557   25.5958 C.ar    1  UNL1        0.0375
      3 C           9.2821   -7.2240   24.6300 C.ar    1  UNL1        0.0114
      4 C           8.0275   -6.4031   24.6752 C.ar    1  UNL1        0.0422
      5 C           6.9640   -6.7139   25.6864 C.ar    1  UNL1        0.0114
      6 C           7.1551   -7.8456   26.6521 C.ar    1  UNL1        0.0375
      7 C           7.8364   -5.2714   23.7095 C.1     1  UNL1       -0.0583
      8 C           7.6453   -4.1397   22.7437 C.1     1  UNL1       -0.0405
      9 C           7.4542   -3.0079   21.7779 C.ar    1  UNL1        0.1228
     10 C           6.7556   -3.2461   20.4721 C.ar    1  UNL1        0.0276
     11 C           6.5646   -2.1144   19.5064 C.ar    1  UNL1        0.0037
     12 C           7.0721   -0.7445   19.8466 C.ar    1  UNL1        0.0192
     13 C           7.7707   -0.5063   21.1524 C.ar    1  UNL1        0.0995
     14 N           7.9617   -1.6380   22.1181 N.ar    1  UNL1       -0.2356
     15 C           6.8810    0.3873   18.8808 C.ar    1  UNL1        0.0016
     16 C           6.7154    1.7883   19.3904 C.ar    1  UNL1        0.0009
     17 C           6.5243    2.9201   18.4246 C.ar    1  UNL1        0.0114
     18 C           6.4988    2.6508   16.9492 C.ar    1  UNL1        0.0577
     19 CL          6.3077    3.7824   15.9835 Cl      1  UNL1       -0.0822
     20 C           6.6644    1.2497   16.4396 C.ar    1  UNL1        0.0114
     21 C           6.8555    0.1180   17.4054 C.ar    1  UNL1        0.0009
     22 O           8.6008   -9.7982   27.5727 O.3     1  UNL1       -0.4740
     23 C           7.4085  -10.4623   28.1952 C.3     1  UNL1        0.2226
     24 C           7.0964  -11.8945   27.8768 C.3     1  UNL1        0.1200
     25 C           2.8411  -13.3524   28.0059 C.3     1  UNL1        0.0790
     26 C           3.7033  -13.6592   26.8174 C.3     1  UNL1        0.0264
     27 C           5.1217  -13.1732   26.7744 C.3     1  UNL1        0.0727
     28 N           5.6780  -12.3805   27.9198 N.3     1  UNL1       -0.2695
     29 C           4.8158  -12.0737   29.1083 C.3     1  UNL1        0.0727
     30 C           3.3974  -12.5597   29.1513 C.3     1  UNL1        0.0264
     31 N           0.3100  -12.8791   28.3517 N.am    1  UNL1       -0.3288
     32 C           1.4227  -13.8384   28.0489 C.2     1  UNL1        0.2190
     33 O           1.1169  -15.2837   27.7891 O.2     1  UNL1       -0.2753
     34 H          -0.6209  -13.1981   28.3799 H       1  UNL1        0.1449
     35 H           0.5107  -11.9305   28.5223 H       1  UNL1        0.1449
@<TRIPOS>BOND
     1    31    32   am
     2    32    33    2
     3    32    25    1
     4    25    26    1
     5    26    27    1
     6    27    28    1
     7    28    24    1
     8    24    23    1
     9    23    22    1
    10    22     1    1
    11     1     2   ar
    12     2     3   ar
    13     3     4   ar
    14     4     7    1
    15     7     8    3
    16     8     9    1
    17     9    10   ar
    18    10    11   ar
    19    11    12   ar
    20    12    15    1
    21    15    16   ar
    22    16    17   ar
    23    17    18   ar
    24    18    19    1
    25    18    20   ar
    26    20    21   ar
    27    12    13   ar
    28    13    14   ar
    29     4     5   ar
    30     5     6   ar
    31    28    29    1
    32    29    30    1
    33    30    25    1
    34     6     1   ar
    35    14     9   ar
    36    21    15   ar
    37    31    34    1
    38    31    35    1
@<TRIPOS>MOLECULE
*****
 35 38 0 0 0
SMALL
GASTEIGER

@<TRIPOS>ATOM
      1 C           4.7025    0.1692   17.9254 C.ar    1  UNL1        0.1387
      2 C           3.3456   -0.2915   17.4820 C.ar    1  UNL1        0.0375
      3 C           2.1153    0.2464   18.1505 C.ar    1  UNL1        0.0114
      4 C           2.2419    1.2452   19.2625 C.ar    1  UNL1        0.0422
      5 C           3.5988    1.7059   19.7059 C.ar    1  UNL1        0.0114
      6 C           4.8291    1.1679   19.0374 C.ar    1  UNL1        0.0375
      7 C           1.0117    1.7832   19.9311 C.1     1  UNL1       -0.0583
      8 C          -0.2186    2.3211   20.5997 C.1     1  UNL1       -0.0405
      9 C          -1.4489    2.8591   21.2683 C.ar    1  UNL1        0.1228
     10 C          -1.3635    3.4201   22.6568 C.ar    1  UNL1        0.0276
     11 C          -2.5937    3.9580   23.3253 C.ar    1  UNL1        0.0037
     12 C          -3.9095    3.9350   22.6053 C.ar    1  UNL1        0.0192
     13 C          -3.9949    3.3740   21.2168 C.ar    1  UNL1        0.0995
     14 N          -2.7646    2.8361   20.5483 N.ar    1  UNL1       -0.2356
     15 C          -5.1398    4.4730   23.2739 C.ar    1  UNL1        0.0016
     16 C          -5.0124    5.4512   24.4039 C.ar    1  UNL1        0.0009
     17 C          -6.2427    5.9892   25.0725 C.ar    1  UNL1        0.0114
     18 C          -7.6004    5.5489   24.6111 C.ar    1  UNL1        0.0577
     19 CL         -8.8307    6.0868   25.2796 Cl      1  UNL1       -0.0822
     20 C          -7.7277    4.5707   23.4810 C.ar    1  UNL1        0.0114
     21 C          -6.4975    4.0327   22.8125 C.ar    1  UNL1        0.0009
     22 O           5.9328   -0.3688   17.2568 O.3     1  UNL1       -0.4740
     23 C           6.7948   -1.3705   17.9664 C.3     1  UNL1        0.2226
     24 C           6.1629   -2.4665   18.7722 C.3     1  UNL1        0.1200
     25 C           4.4173   -1.5632   22.8203 C.3     1  UNL1        0.0790
     26 C           5.8784   -1.3380   22.5664 C.3     1  UNL1        0.0264
     27 C           6.4603   -1.6391   21.2170 C.3     1  UNL1        0.0727
     28 N           5.5811   -2.1654   20.1216 N.3     1  UNL1       -0.2695
     29 C           4.1200   -2.3906   20.3755 C.3     1  UNL1        0.0727
     30 C           3.5381   -2.0895   21.7249 C.3     1  UNL1        0.0264
     31 N           4.2860   -2.0390   25.3710 N.am    1  UNL1       -0.3288
     32 C           3.8354   -1.2621   24.1697 C.2     1  UNL1        0.2190
     33 O           2.8030   -0.1841   24.3176 O.2     1  UNL1       -0.2753
     34 H           3.9041   -1.8414   26.2567 H       1  UNL1        0.1449
     35 H           4.9636   -2.7466   25.2739 H       1  UNL1        0.1449
@<TRIPOS>BOND
     1    31    32   am
     2    32    33    2
     3    32    25    1
     4    25    26    1
     5    26    27    1
     6    27    28    1
     7    28    24    1
     8    24    23    1
     9    23    22    1
    10    22     1    1
    11     1     2   ar
    12     2     3   ar
    13     3     4   ar
    14     4     7    1
    15     7     8    3
    16     8     9    1
    17     9    10   ar
    18    10    11   ar
    19    11    12   ar
    20    12    15    1
    21    15    16   ar
    22    16    17   ar
    23    17    18   ar
    24    18    19    1
    25    18    20   ar
    26    20    21   ar
    27    12    13   ar
    28    13    14   ar
    29     4     5   ar
    30     5     6   ar
    31    28    29    1
    32    29    30    1
    33    30    25    1
    34     6     1   ar
    35    14     9   ar
    36    21    15   ar
    37    31    34    1
    38    31    35    1
@<TRIPOS>MOLECULE
*****
 35 38 0 0 0
SMALL
GASTEIGER

@<TRIPOS>ATOM
      1 C           8.2011   -6.9831   28.5973 C.ar    1  UNL1        0.1387
      2 C           7.1045   -6.0286   28.2282 C.ar    1  UNL1        0.0375
      3 C           6.6806   -4.9630   29.1951 C.ar    1  UNL1        0.0114
      4 C           7.3534   -4.8521   30.5312 C.ar    1  UNL1        0.0422
      5 C           8.4500   -5.8067   30.9003 C.ar    1  UNL1        0.0114
      6 C           8.8738   -6.8722   29.9334 C.ar    1  UNL1        0.0375
      7 C           6.9295   -3.7865   31.4981 C.1     1  UNL1       -0.0583
      8 C           6.5057   -2.7210   32.4651 C.1     1  UNL1       -0.0405
      9 C           6.0819   -1.6555   33.4321 C.ar    1  UNL1        0.1228
     10 C           4.6897   -1.6602   33.9905 C.ar    1  UNL1        0.0276
     11 C           4.2659   -0.5947   34.9574 C.ar    1  UNL1        0.0037
     12 C           5.2343    0.4755   35.3660 C.ar    1  UNL1        0.0192
     13 C           6.6264    0.4802   34.8077 C.ar    1  UNL1        0.0995
     14 N           7.0502   -0.5853   33.8407 N.ar    1  UNL1       -0.2356
     15 C           4.8104    1.5410   36.3331 C.ar    1  UNL1        0.0016
     16 C           5.6853    1.8838   37.5022 C.ar    1  UNL1        0.0009
     17 C           5.2614    2.9493   38.4693 C.ar    1  UNL1        0.0114
     18 C           3.9627    3.6721   38.2670 C.ar    1  UNL1        0.0577
     19 CL          3.5388    4.7375   39.2340 Cl      1  UNL1       -0.0822
     20 C           3.0878    3.3292   37.0978 C.ar    1  UNL1        0.0114
     21 C           3.5117    2.2638   36.1308 C.ar    1  UNL1        0.0009
     22 O           8.6250   -8.0487   27.6304 O.3     1  UNL1       -0.4740
     23 C           7.6608   -9.1265   27.2319 C.3     1  UNL1        0.2226
     24 C           7.6834  -10.4508   27.9359 C.3     1  UNL1        0.1200
     25 C           3.9670  -12.9837   28.0849 C.3     1  UNL1        0.0790
     26 C           3.9686  -11.6992   27.3103 C.3     1  UNL1        0.0264
     27 C           5.2074  -10.8549   27.2606 C.3     1  UNL1        0.0727
     28 N           6.4446  -11.2951   27.9856 N.3     1  UNL1       -0.2695
     29 C           6.4430  -12.5796   28.7601 C.3     1  UNL1        0.0727
     30 C           5.2041  -13.4239   28.8098 C.3     1  UNL1        0.0264
     31 N           1.4315  -13.2890   27.6073 N.am    1  UNL1       -0.3288
     32 C           2.7281  -13.8280   28.1345 C.2     1  UNL1        0.2190
     33 O           2.7860  -15.2114   28.7114 O.2     1  UNL1       -0.2753
     34 H           0.6184  -13.8431   27.6399 H       1  UNL1        0.1449
     35 H           1.3935  -12.3810   27.2286 H       1  UNL1        0.1449
@<TRIPOS>BOND
     1    31    32   am
     2    32    33    2
     3    32    25    1
     4    25    26    1
     5    26    27    1
     6    27    28    1
     7    28    24    1
     8    24    23    1
     9    23    22    1
    10    22     1    1
    11     1     2   ar
    12     2     3   ar
    13     3     4   ar
    14     4     7    1
    15     7     8    3
    16     8     9    1
    17     9    10   ar
    18    10    11   ar
    19    11    12   ar
    20    12    15    1
    21    15    16   ar
    22    16    17   ar
    23    17    18   ar
    24    18    19    1
    25    18    20   ar
    26    20    21   ar
    27    12    13   ar
    28    13    14   ar
    29     4     5   ar
    30     5     6   ar
    31    28    29    1
    32    29    30    1
    33    30    25    1
    34     6     1   ar
    35    14     9   ar
    36    21    15   ar
    37    31    34    1
    38    31    35    1
@<TRIPOS>MOLECULE
*****
 35 38 0 0 0
SMALL
GASTEIGER

@<TRIPOS>ATOM
      1 C           3.8289   -2.3732   20.4027 C.ar    1  UNL1        0.1387
      2 C           3.0945   -1.2056   20.9921 C.ar    1  UNL1        0.0375
      3 C           3.1401   -0.9600   22.4712 C.ar    1  UNL1        0.0114
      4 C           3.9201   -1.8820   23.3609 C.ar    1  UNL1        0.0422
      5 C           4.6545   -3.0496   22.7714 C.ar    1  UNL1        0.0114
      6 C           4.6089   -3.2952   21.2924 C.ar    1  UNL1        0.0375
      7 C           3.9657   -1.6365   24.8399 C.1     1  UNL1       -0.0583
      8 C           4.0113   -1.3909   26.3189 C.1     1  UNL1       -0.0405
      9 C           4.0569   -1.1454   27.7980 C.ar    1  UNL1        0.1228
     10 C           5.3673   -1.1941   28.5263 C.ar    1  UNL1        0.0276
     11 C           5.4128   -0.9485   30.0054 C.ar    1  UNL1        0.0037
     12 C           4.1480   -0.6542   30.7561 C.ar    1  UNL1        0.0192
     13 C           2.8376   -0.6055   30.0278 C.ar    1  UNL1        0.0995
     14 N           2.7921   -0.8511   28.5487 N.ar    1  UNL1       -0.2356
     15 C           4.1936   -0.4087   32.2352 C.ar    1  UNL1        0.0016
     16 C           4.6627   -1.4915   33.1611 C.ar    1  UNL1        0.0009
     17 C           4.7083   -1.2459   34.6402 C.ar    1  UNL1        0.0114
     18 C           4.2847    0.0825   35.1933 C.ar    1  UNL1        0.0577
     19 CL          4.3303    0.3281   36.6724 Cl      1  UNL1       -0.0822
     20 C           3.8155    1.1653   34.2673 C.ar    1  UNL1        0.0114
     21 C           3.7700    0.9197   32.7883 C.ar    1  UNL1        0.0009
     22 O           3.7833   -2.6188   18.9236 O.3     1  UNL1       -0.4740
     23 C           4.6702   -1.8318   18.0050 C.3     1  UNL1        0.2226
     24 C           4.0991   -0.7088   17.1910 C.3     1  UNL1        0.1200
     25 C           1.6680    2.5082   19.1887 C.3     1  UNL1        0.0790
     26 C           0.9886    1.2948   18.6265 C.3     1  UNL1        0.0264
     27 C           1.7990    0.2224   17.9606 C.3     1  UNL1        0.0727
     28 N           3.2887    0.3635   17.8569 N.3     1  UNL1       -0.2695
     29 C           3.9681    1.5769   18.4190 C.3     1  UNL1        0.0727
     30 C           3.1577    2.6493   19.0849 C.3     1  UNL1        0.0264
     31 N           1.5148    4.8576   20.2871 N.am    1  UNL1       -0.3288
     32 C           0.8576    3.5805   19.8546 C.2     1  UNL1        0.2190
     33 O          -0.6099    3.3758   20.0879 O.2     1  UNL1       -0.2753
     34 H           0.9829    5.5614   20.7242 H       1  UNL1        0.1449
     35 H           2.4779    4.9920   20.1340 H       1  UNL1        0.1449
@<TRIPOS>BOND
     1    31    32   am
     2    32    33    2
     3    32    25    1
     4    25    26    1
     5    26    27    1
     6    27    28    1
     7    28    24    1
     8    24    23    1
     9    23    22    1
    10    22     1    1
    11     1     2   ar
    12     2     3   ar
    13     3     4   ar
    14     4     7    1
    15     7     8    3
    16     8     9    1
    17     9    10   ar
    18    10    11   ar
    19    11    12   ar
    20    12    15    1
    21    15    16   ar
    22    16    17   ar
    23    17    18   ar
    24    18    19    1
    25    18    20   ar
    26    20    21   ar
    27    12    13   ar
    28    13    14   ar
    29     4     5   ar
    30     5     6   ar
    31    28    29    1
    32    29    30    1
    33    30    25    1
    34     6     1   ar
    35    14     9   ar
    36    21    15   ar
    37    31    34    1
    38    31    35    1
@<TRIPOS>MOLECULE
*****
 35 38 0 0 0
SMALL
GASTEIGER

@<TRIPOS>ATOM
      1 C          -6.7937    5.3104   21.9421 C.ar    1  UNL1        0.1387
      2 C          -5.9703    5.8047   20.7899 C.ar    1  UNL1        0.0375
      3 C          -4.6821    5.1202   20.4405 C.ar    1  UNL1        0.0114
      4 C          -4.2173    3.9414   21.2434 C.ar    1  UNL1        0.0422
      5 C          -5.0408    3.4471   22.3956 C.ar    1  UNL1        0.0114
      6 C          -6.3290    4.1316   22.7450 C.ar    1  UNL1        0.0375
      7 C          -2.9292    3.2569   20.8940 C.1     1  UNL1       -0.0583
      8 C          -1.6410    2.5724   20.5446 C.1     1  UNL1       -0.0405
      9 C          -0.3528    1.8879   20.1952 C.ar    1  UNL1        0.1228
     10 C           0.7235    2.6400   19.4701 C.ar    1  UNL1        0.0276
     11 C           2.0116    1.9554   19.1207 C.ar    1  UNL1        0.0037
     12 C           2.2234    0.5188   19.4965 C.ar    1  UNL1        0.0192
     13 C           1.1471   -0.2333   20.2216 C.ar    1  UNL1        0.0995
     14 N          -0.1410    0.4513   20.5710 N.ar    1  UNL1       -0.2356
     15 C           3.5116   -0.1658   19.1471 C.ar    1  UNL1        0.0016
     16 C           3.9809   -1.3388   19.9555 C.ar    1  UNL1        0.0009
     17 C           5.2691   -2.0234   19.6061 C.ar    1  UNL1        0.0114
     18 C           6.0879   -1.5348   18.4482 C.ar    1  UNL1        0.0577
     19 CL          7.3760   -2.2193   18.0988 Cl      1  UNL1       -0.0822
     20 C           5.6186   -0.3617   17.6397 C.ar    1  UNL1        0.0114
     21 C           4.3304    0.3228   17.9891 C.ar    1  UNL1        0.0009
     22 O          -8.0819    5.9949   22.2916 O.3     1  UNL1       -0.4740
     23 C          -8.2641    6.6016   23.6513 C.3     1  UNL1        0.2226
     24 C          -8.9735    5.8332   24.7265 C.3     1  UNL1        0.1200
     25 C         -13.4657    5.5689   24.7123 C.3     1  UNL1        0.0790
     26 C         -12.6422    4.3311   24.9111 C.3     1  UNL1        0.0264
     27 C         -11.1448    4.4192   24.9158 C.3     1  UNL1        0.0727
     28 N         -10.4709    5.7451   24.7218 N.3     1  UNL1       -0.2695
     29 C         -11.2944    6.9829   24.5229 C.3     1  UNL1        0.0727
     30 C         -12.7919    6.8948   24.5182 C.3     1  UNL1        0.0264
     31 N         -15.6622    4.5430   25.6466 N.am    1  UNL1       -0.3288
     32 C         -14.9631    5.4808   24.7076 C.2     1  UNL1        0.2190
     33 O         -15.7615    6.3304   23.7638 O.2     1  UNL1       -0.2753
     34 H         -16.6450    4.4852   25.6435 H       1  UNL1        0.1449
     35 H         -15.1383    3.9854   26.2661 H       1  UNL1        0.1449
@<TRIPOS>BOND
     1    31    32   am
     2    32    33    2
     3    32    25    1
     4    25    26    1
     5    26    27    1
     6    27    28    1
     7    28    24    1
     8    24    23    1
     9    23    22    1
    10    22     1    1
    11     1     2   ar
    12     2     3   ar
    13     3     4   ar
    14     4     7    1
    15     7     8    3
    16     8     9    1
    17     9    10   ar
    18    10    11   ar
    19    11    12   ar
    20    12    15    1
    21    15    16   ar
    22    16    17   ar
    23    17    18   ar
    24    18    19    1
    25    18    20   ar
    26    20    21   ar
    27    12    13   ar
    28    13    14   ar
    29     4     5   ar
    30     5     6   ar
    31    28    29    1
    32    29    30    1
    33    30    25    1
    34     6     1   ar
    35    14     9   ar
    36    21    15   ar
    37    31    34    1
    38    31    35    1
@<TRIPOS>MOLECULE
*****
 35 38 0 0 0
SMALL
GASTEIGER

@<TRIPOS>ATOM
      1 C           7.0682    0.0787   34.7030 C.ar    1  UNL1        0.1387
      2 C           5.7763   -0.6006   34.3576 C.ar    1  UNL1        0.0375
      3 C           5.4469   -0.9022   32.9256 C.ar    1  UNL1        0.0114
      4 C           6.4096   -0.5245   31.8390 C.ar    1  UNL1        0.0422
      5 C           7.7016    0.1549   32.1845 C.ar    1  UNL1        0.0114
      6 C           8.0309    0.4565   33.6165 C.ar    1  UNL1        0.0375
      7 C           6.0803   -0.8260   30.4071 C.1     1  UNL1       -0.0583
      8 C           5.7510   -1.1276   28.9751 C.1     1  UNL1       -0.0405
      9 C           5.4216   -1.4292   27.5431 C.ar    1  UNL1        0.1228
     10 C           4.1995   -0.8304   26.9124 C.ar    1  UNL1        0.0276
     11 C           3.8702   -1.1320   25.4805 C.ar    1  UNL1        0.0037
     12 C           4.7630   -2.0324   24.6792 C.ar    1  UNL1        0.0192
     13 C           5.9852   -2.6312   25.3098 C.ar    1  UNL1        0.0995
     14 N           6.3145   -2.3296   26.7418 N.ar    1  UNL1       -0.2356
     15 C           4.4337   -2.3340   23.2471 C.ar    1  UNL1        0.0016
     16 C           3.6632   -1.3403   22.4294 C.ar    1  UNL1        0.0009
     17 C           3.3338   -1.6419   20.9974 C.ar    1  UNL1        0.0114
     18 C           3.7750   -2.9373   20.3832 C.ar    1  UNL1        0.0577
     19 CL          3.4457   -3.2389   18.9512 Cl      1  UNL1       -0.0822
     20 C           4.5455   -3.9311   21.2010 C.ar    1  UNL1        0.0114
     21 C           4.8748   -3.6295   22.6329 C.ar    1  UNL1        0.0009
     22 O           7.3976    0.3803   36.1351 O.3     1  UNL1       -0.4740
     23 C           7.2875    1.7848   36.6502 C.3     1  UNL1        0.2226
     24 C           6.0770    2.6095   36.3269 C.3     1  UNL1        0.1200
     25 C           2.2940    2.0817   38.7060 C.3     1  UNL1        0.0790
     26 C           2.9814    0.8866   38.1153 C.3     1  UNL1        0.0264
     27 C           4.2424    1.0625   37.3223 C.3     1  UNL1        0.0727
     28 N           4.8160    2.4336   37.1200 N.3     1  UNL1       -0.2695
     29 C           4.1287    3.6287   37.7107 C.3     1  UNL1        0.0727
     30 C           2.8677    3.4528   38.5037 C.3     1  UNL1        0.0264
     31 N          -0.2275    2.5939   39.0660 N.am    1  UNL1       -0.3288
     32 C           1.0330    1.9058   39.4991 C.2     1  UNL1        0.2190
     33 O           1.0325    1.0418   40.7252 O.2     1  UNL1       -0.2753
     34 H          -1.0551    2.4785   39.5865 H       1  UNL1        0.1449
     35 H          -0.2272    3.1610   38.2612 H       1  UNL1        0.1449
@<TRIPOS>BOND
     1    31    32   am
     2    32    33    2
     3    32    25    1
     4    25    26    1
     5    26    27    1
     6    27    28    1
     7    28    24    1
     8    24    23    1
     9    23    22    1
    10    22     1    1
    11     1     2   ar
    12     2     3   ar
    13     3     4   ar
    14     4     7    1
    15     7     8    3
    16     8     9    1
    17     9    10   ar
    18    10    11   ar
    19    11    12   ar
    20    12    15    1
    21    15    16   ar
    22    16    17   ar
    23    17    18   ar
    24    18    19    1
    25    18    20   ar
    26    20    21   ar
    27    12    13   ar
    28    13    14   ar
    29     4     5   ar
    30     5     6   ar
    31    28    29    1
    32    29    30    1
    33    30    25    1
    34     6     1   ar
    35    14     9   ar
    36    21    15   ar
    37    31    34    1
    38    31    35    1
@<TRIPOS>MOLECULE
*****
 35 38 0 0 0
SMALL
GASTEIGER

@<TRIPOS>ATOM
      1 C           0.9573    1.0776   29.6683 C.ar    1  UNL1        0.1387
      2 C           1.3731    2.3024   28.9086 C.ar    1  UNL1        0.0375
      3 C           0.5104    2.8252   27.7985 C.ar    1  UNL1        0.0114
      4 C          -0.7681    2.1234   27.4481 C.ar    1  UNL1        0.0422
      5 C          -1.1839    0.8986   28.2078 C.ar    1  UNL1        0.0114
      6 C          -0.3212    0.3758   29.3179 C.ar    1  UNL1        0.0375
      7 C          -1.6308    2.6462   26.3380 C.1     1  UNL1       -0.0583
      8 C          -2.4935    3.1690   25.2279 C.1     1  UNL1       -0.0405
      9 C          -3.3563    3.6919   24.1177 C.ar    1  UNL1        0.1228
     10 C          -4.7261    3.1209   23.9000 C.ar    1  UNL1        0.0276
     11 C          -5.5888    3.6438   22.7898 C.ar    1  UNL1        0.0037
     12 C          -5.0815    4.7376   21.8975 C.ar    1  UNL1        0.0192
     13 C          -3.7117    5.3085   22.1152 C.ar    1  UNL1        0.0995
     14 N          -2.8490    4.7857   23.2254 N.ar    1  UNL1       -0.2356
     15 C          -5.9443    5.2604   20.7873 C.ar    1  UNL1        0.0016
     16 C          -6.4327    4.3313   19.7159 C.ar    1  UNL1        0.0009
     17 C          -7.2954    4.8541   18.6057 C.ar    1  UNL1        0.0114
     18 C          -7.6696    6.3062   18.5670 C.ar    1  UNL1        0.0577
     19 CL         -8.5323    6.8291   17.4569 Cl      1  UNL1       -0.0822
     20 C          -7.1811    7.2354   19.6385 C.ar    1  UNL1        0.0114
     21 C          -6.3185    6.7125   20.7486 C.ar    1  UNL1        0.0009
     22 O           1.8200    0.5548   30.7785 O.3     1  UNL1       -0.4740
     23 C           2.0522    1.3881   32.0039 C.3     1  UNL1        0.2226
     24 C           3.3221    1.2327   32.7870 C.3     1  UNL1        0.1200
     25 C           5.8715   -2.4342   32.2352 C.3     1  UNL1        0.0790
     26 C           5.9898   -1.2872   31.2760 C.3     1  UNL1        0.0264
     27 C           5.1400   -0.0649   31.4599 C.3     1  UNL1        0.0727
     28 N           4.1719    0.0104   32.6031 N.3     1  UNL1       -0.2695
     29 C           4.0535   -1.1366   33.5623 C.3     1  UNL1        0.0727
     30 C           4.9033   -2.3589   33.3784 C.3     1  UNL1        0.0264
     31 N           6.2449   -4.9847   32.5601 N.am    1  UNL1       -0.3288
     32 C           6.7213   -3.6565   32.0513 C.2     1  UNL1        0.2190
     33 O           8.0475   -3.5506   31.3586 O.2     1  UNL1       -0.2753
     34 H           6.8026   -5.7869   32.4394 H       1  UNL1        0.1449
     35 H           5.3744   -5.0542   33.0148 H       1  UNL1        0.1449
@<TRIPOS>BOND
     1    31    32   am
     2    32    33    2
     3    32    25    1
     4    25    26    1
     5    26    27    1
     6    27    28    1
     7    28    24    1
     8    24    23    1
     9    23    22    1
    10    22     1    1
    11     1     2   ar
    12     2     3   ar
    13     3     4   ar
    14     4     7    1
    15     7     8    3
    16     8     9    1
    17     9    10   ar
    18    10    11   ar
    19    11    12   ar
    20    12    15    1
    21    15    16   ar
    22    16    17   ar
    23    17    18   ar
    24    18    19    1
    25    18    20   ar
    26    20    21   ar
    27    12    13   ar
    28    13    14   ar
    29     4     5   ar
    30     5     6   ar
    31    28    29    1
    32    29    30    1
    33    30    25    1
    34     6     1   ar
    35    14     9   ar
    36    21    15   ar
    37    31    34    1
    38    31    35    1
