@<TRIPOS>MOLECULE
*****
 29 32 0 0 0
SMALL
GASTEIGER

@<TRIPOS>ATOM
      1 C           7.4165   -3.6465   24.3377 C.3     1  UNL1        0.0999
      2 C           6.7904   -3.3955   22.9979 C.3     1  UNL1        0.1138
      3 N           6.7010   -1.9974   22.4620 N.pl3   1  UNL1       -0.2763
      4 C           7.2376   -0.8502   23.2658 C.3     1  UNL1        0.1107
      5 C           7.8637   -1.1013   24.6056 C.3     1  UNL1        0.0906
      6 N           7.9531   -2.4995   25.1415 N.3     1  UNL1       -0.2922
      7 H           7.4558   -2.5058   26.0321 H       1  UNL1        0.1236
      8 C           6.0750   -1.7463   21.1222 C.ar    1  UNL1        0.2035
      9 N           4.7164   -1.1164   21.0353 N.ar    1  UNL1       -0.2148
     10 C           4.0904   -0.8654   19.6955 C.ar    1  UNL1        0.0890
     11 C           4.8229   -1.2442   18.4426 C.ar    1  UNL1        0.0800
     12 C           6.1814   -1.8742   18.5294 C.ar    1  UNL1        0.2645
     13 O           6.9139   -2.2531   17.2765 O.2     1  UNL1       -0.2668
     14 N           6.8075   -2.1253   19.8692 N.ar    1  UNL1       -0.2667
     15 C           8.1660   -2.7552   19.9560 C.3     1  UNL1        0.1363
     16 C           2.7318   -0.2354   19.6087 C.ar    1  UNL1        0.0210
     17 C           1.7182   -0.4871   20.6853 C.ar    1  UNL1        0.0222
     18 C           0.3597    0.1428   20.5985 C.ar    1  UNL1        0.0989
     19 N           0.0148    1.0245   19.4350 N.ar    1  UNL1       -0.2423
     20 C           1.0284    1.2763   18.3584 C.ar    1  UNL1        0.0989
     21 C           2.3869    0.6463   18.4452 C.ar    1  UNL1        0.0222
     22 C           7.0202   -5.3491   26.2597 C.ar    1  UNL1        0.1360
     23 C           7.1097   -6.7473   26.7955 C.ar    1  UNL1        0.0366
     24 C           7.6848   -7.8410   25.9453 C.ar    1  UNL1        0.0031
     25 C           8.1705   -7.5366   24.5591 C.ar    1  UNL1       -0.0001
     26 C           8.0810   -6.1384   24.0233 C.ar    1  UNL1        0.0001
     27 C           7.5059   -5.0447   24.8736 C.ar    1  UNL1        0.0277
     28 C           6.4703   -4.3758   28.6049 C.3     1  UNL1        0.2525
     29 O           6.4451   -4.2554   27.1100 O.3     1  UNL1       -0.4717
@<TRIPOS>BOND
     1    28    29    1
     2    29    22    1
     3    22    23   ar
     4    23    24   ar
     5    24    25   ar
     6    25    26   ar
     7    26    27   ar
     8    27     1    1
     9     1     2    1
    10     2     3    1
    11     3     8    1
    12     8     9   ar
    13     9    10   ar
    14    10    16    1
    15    16    17   ar
    16    17    18   ar
    17    18    19   ar
    18    19    20   ar
    19    20    21   ar
    20    10    11   ar
    21    11    12   ar
    22    12    13    2
    23    12    14   ar
    24    14    15    1
    25     3     4    1
    26     4     5    1
    27     5     6    1
    28    27    22   ar
    29     6     1    1
    30    14     8   ar
    31    21    16   ar
    32     6     7    1
@<TRIPOS>MOLECULE
*****
 29 32 0 0 0
SMALL
GASTEIGER

@<TRIPOS>ATOM
      1 C          -1.8951    3.2010   20.7805 C.3     1  UNL1        0.0999
      2 C          -0.6843    2.5602   20.1697 C.3     1  UNL1        0.1138
      3 N           0.5376    2.3170   21.0050 N.pl3   1  UNL1       -0.2763
      4 C           0.5486    2.7147   22.4514 C.3     1  UNL1        0.1107
      5 C          -0.6622    3.3555   23.0622 C.3     1  UNL1        0.0906
      6 N          -1.8841    3.5987   22.2268 N.3     1  UNL1       -0.2922
      7 H          -2.0672    4.6016   22.2578 H       1  UNL1        0.1236
      8 C           1.7485    1.6762   20.3941 C.ar    1  UNL1        0.2035
      9 N           2.0915    0.2539   20.7245 N.ar    1  UNL1       -0.2148
     10 C           3.3023   -0.3869   20.1136 C.ar    1  UNL1        0.0890
     11 C           4.1702    0.3946   19.1723 C.ar    1  UNL1        0.0800
     12 C           3.8272    1.8171   18.8420 C.ar    1  UNL1        0.2645
     13 O           4.6950    2.5986   17.9007 O.2     1  UNL1       -0.2668
     14 N           2.6163    2.4579   19.4528 N.ar    1  UNL1       -0.2667
     15 C           2.2733    3.8803   19.1225 C.3     1  UNL1        0.1363
     16 C           3.6453   -1.8094   20.4440 C.ar    1  UNL1        0.0210
     17 C           3.5192   -2.8743   19.3952 C.ar    1  UNL1        0.0222
     18 C           3.8622   -4.2966   19.7256 C.ar    1  UNL1        0.0989
     19 N           4.3313   -4.6541   21.1048 N.ar    1  UNL1       -0.2423
     20 C           4.4574   -3.5891   22.1536 C.ar    1  UNL1        0.0989
     21 C           4.1145   -2.1668   21.8232 C.ar    1  UNL1        0.0222
     22 C          -4.4793    3.1758   20.5128 C.ar    1  UNL1        0.1360
     23 C          -5.7011    3.4189   19.6774 C.ar    1  UNL1        0.0366
     24 C          -5.5607    3.9303   18.2742 C.ar    1  UNL1        0.0031
     25 C          -4.1985    4.1986   17.7065 C.ar    1  UNL1       -0.0001
     26 C          -2.9767    3.9555   18.5420 C.ar    1  UNL1        0.0001
     27 C          -3.1171    3.4441   19.9451 C.ar    1  UNL1        0.0277
     28 C          -5.4505    3.4203   22.9101 C.3     1  UNL1        0.2525
     29 O          -4.6197    2.6644   21.9159 O.3     1  UNL1       -0.4717
@<TRIPOS>BOND
     1    28    29    1
     2    29    22    1
     3    22    23   ar
     4    23    24   ar
     5    24    25   ar
     6    25    26   ar
     7    26    27   ar
     8    27     1    1
     9     1     2    1
    10     2     3    1
    11     3     8    1
    12     8     9   ar
    13     9    10   ar
    14    10    16    1
    15    16    17   ar
    16    17    18   ar
    17    18    19   ar
    18    19    20   ar
    19    20    21   ar
    20    10    11   ar
    21    11    12   ar
    22    12    13    2
    23    12    14   ar
    24    14    15    1
    25     3     4    1
    26     4     5    1
    27     5     6    1
    28    27    22   ar
    29     6     1    1
    30    14     8   ar
    31    21    16   ar
    32     6     7    1
@<TRIPOS>MOLECULE
*****
 29 32 0 0 0
SMALL
GASTEIGER

@<TRIPOS>ATOM
      1 C           6.2015   -3.0994   22.1427 C.3     1  UNL1        0.0999
      2 C           6.2173   -3.8029   23.4674 C.3     1  UNL1        0.1138
      3 N           7.4810   -4.4418   23.9623 N.pl3   1  UNL1       -0.2763
      4 C           8.7289   -4.3771   23.1325 C.3     1  UNL1        0.1107
      5 C           8.7131   -3.6736   21.8078 C.3     1  UNL1        0.0906
      6 N           7.4494   -3.0347   21.3129 N.3     1  UNL1       -0.2922
      7 H           7.2303   -3.4706   20.4171 H       1  UNL1        0.1236
      8 C           7.4968   -5.1453   25.2869 C.ar    1  UNL1        0.2035
      9 N           7.1803   -4.3878   26.5423 N.ar    1  UNL1       -0.2148
     10 C           7.1961   -5.0914   27.8670 C.ar    1  UNL1        0.0890
     11 C           7.5284   -6.5524   27.9363 C.ar    1  UNL1        0.0800
     12 C           7.8449   -7.3100   26.6809 C.ar    1  UNL1        0.2645
     13 O           8.1772   -8.7711   26.7502 O.2     1  UNL1       -0.2668
     14 N           7.8291   -6.6065   25.3562 N.ar    1  UNL1       -0.2667
     15 C           8.1456   -7.3640   24.1009 C.3     1  UNL1        0.1363
     16 C           6.8796   -4.3338   29.1224 C.ar    1  UNL1        0.0210
     17 C           7.0216   -5.0021   30.4577 C.ar    1  UNL1        0.0222
     18 C           6.7051   -4.2445   31.7130 C.ar    1  UNL1        0.0989
     19 N           6.2466   -2.8186   31.6330 N.ar    1  UNL1       -0.2423
     20 C           6.1046   -2.1502   30.2977 C.ar    1  UNL1        0.0989
     21 C           6.4211   -2.9078   29.0424 C.ar    1  UNL1        0.0222
     22 C           4.4589   -2.7282   20.2517 C.ar    1  UNL1        0.1360
     23 C           3.1952   -2.0893   19.7569 C.ar    1  UNL1        0.0366
     24 C           2.4103   -1.1828   20.6582 C.ar    1  UNL1        0.0031
     25 C           2.8892   -0.9152   22.0542 C.ar    1  UNL1       -0.0001
     26 C           4.1529   -1.5540   22.5490 C.ar    1  UNL1        0.0001
     27 C           4.9377   -2.4605   21.6478 C.ar    1  UNL1        0.0277
     28 C           4.6304   -4.9084   18.8492 C.3     1  UNL1        0.2525
     29 O           5.2437   -3.6347   19.3505 O.3     1  UNL1       -0.4717
@<TRIPOS>BOND
     1    28    29    1
     2    29    22    1
     3    22    23   ar
     4    23    24   ar
     5    24    25   ar
     6    25    26   ar
     7    26    27   ar
     8    27     1    1
     9     1     2    1
    10     2     3    1
    11     3     8    1
    12     8     9   ar
    13     9    10   ar
    14    10    16    1
    15    16    17   ar
    16    17    18   ar
    17    18    19   ar
    18    19    20   ar
    19    20    21   ar
    20    10    11   ar
    21    11    12   ar
    22    12    13    2
    23    12    14   ar
    24    14    15    1
    25     3     4    1
    26     4     5    1
    27     5     6    1
    28    27    22   ar
    29     6     1    1
    30    14     8   ar
    31    21    16   ar
    32     6     7    1
@<TRIPOS>MOLECULE
*****
 29 32 0 0 0
SMALL
GASTEIGER

@<TRIPOS>ATOM
      1 C           2.5672   -0.9389   20.9045 C.3     1  UNL1        0.0999
      2 C           2.6867   -0.0980   22.1409 C.3     1  UNL1        0.1138
      3 N           1.6283    0.9144   22.4645 N.pl3   1  UNL1       -0.2763
      4 C           0.4503    1.0860   21.5518 C.3     1  UNL1        0.1107
      5 C           0.3309    0.2451   20.3154 C.3     1  UNL1        0.0906
      6 N           1.3893   -0.7673   19.9918 N.3     1  UNL1       -0.2922
      7 H           1.7611   -0.5216   19.0743 H       1  UNL1        0.1236
      8 C           1.7478    1.7553   23.7009 C.ar    1  UNL1        0.2035
      9 N           1.1396    1.2856   24.9891 N.ar    1  UNL1       -0.2148
     10 C           1.2591    2.1264   26.2255 C.ar    1  UNL1        0.0890
     11 C           1.9868    3.4371   26.1737 C.ar    1  UNL1        0.0800
     12 C           2.5950    3.9069   24.8855 C.ar    1  UNL1        0.2645
     13 O           3.3226    5.2175   24.8337 O.2     1  UNL1       -0.2668
     14 N           2.4755    3.0660   23.6491 N.ar    1  UNL1       -0.2667
     15 C           3.0836    3.5358   22.3609 C.3     1  UNL1        0.1363
     16 C           0.6509    1.6566   27.5137 C.ar    1  UNL1        0.0210
     17 C          -0.6394    0.8919   27.4989 C.ar    1  UNL1        0.0222
     18 C          -1.2475    0.4221   28.7871 C.ar    1  UNL1        0.0989
     19 N          -0.5654    0.7171   30.0900 N.ar    1  UNL1       -0.2423
     20 C           0.7249    1.4818   30.1048 C.ar    1  UNL1        0.0989
     21 C           1.3331    1.9516   28.8166 C.ar    1  UNL1        0.0222
     22 C           4.0635   -2.1506   19.1602 C.ar    1  UNL1        0.1360
     23 C           5.1219   -3.1631   18.8366 C.ar    1  UNL1        0.0366
     24 C           5.7425   -3.9761   19.9338 C.ar    1  UNL1        0.0031
     25 C           5.3046   -3.7768   21.3545 C.ar    1  UNL1       -0.0001
     26 C           4.2462   -2.7644   21.6781 C.ar    1  UNL1        0.0001
     27 C           3.6257   -1.9513   20.5809 C.ar    1  UNL1        0.0277
     28 C           4.3148   -0.5814   17.1049 C.3     1  UNL1        0.2525
     29 O           3.4430   -1.3376   18.0630 O.3     1  UNL1       -0.4717
@<TRIPOS>BOND
     1    28    29    1
     2    29    22    1
     3    22    23   ar
     4    23    24   ar
     5    24    25   ar
     6    25    26   ar
     7    26    27   ar
     8    27     1    1
     9     1     2    1
    10     2     3    1
    11     3     8    1
    12     8     9   ar
    13     9    10   ar
    14    10    16    1
    15    16    17   ar
    16    17    18   ar
    17    18    19   ar
    18    19    20   ar
    19    20    21   ar
    20    10    11   ar
    21    11    12   ar
    22    12    13    2
    23    12    14   ar
    24    14    15    1
    25     3     4    1
    26     4     5    1
    27     5     6    1
    28    27    22   ar
    29     6     1    1
    30    14     8   ar
    31    21    16   ar
    32     6     7    1
@<TRIPOS>MOLECULE
*****
 29 32 0 0 0
SMALL
GASTEIGER

@<TRIPOS>ATOM
      1 C          -3.8661    3.8880   19.2124 C.3     1  UNL1        0.0999
      2 C          -2.3830    3.7021   19.3377 C.3     1  UNL1        0.1138
      3 N          -1.5260    3.6588   18.1074 N.pl3   1  UNL1       -0.2763
      4 C          -2.1521    3.8015   16.7517 C.3     1  UNL1        0.1107
      5 C          -3.6352    3.9874   16.6265 C.3     1  UNL1        0.0906
      6 N          -4.4923    4.0306   17.8568 N.3     1  UNL1       -0.2922
      7 H          -5.1746    3.2778   17.7670 H       1  UNL1        0.1236
      8 C          -0.0428    3.4729   18.2327 C.ar    1  UNL1        0.2035
      9 N           0.5316    2.0937   18.3659 N.ar    1  UNL1       -0.2148
     10 C           2.0148    1.9078   18.4912 C.ar    1  UNL1        0.0890
     11 C           2.9235    3.1011   18.4832 C.ar    1  UNL1        0.0800
     12 C           2.3491    4.4804   18.3500 C.ar    1  UNL1        0.2645
     13 O           3.2579    5.6737   18.3421 O.2     1  UNL1       -0.2668
     14 N           0.8660    4.6663   18.2247 N.ar    1  UNL1       -0.2667
     15 C           0.2916    6.0455   18.0915 C.3     1  UNL1        0.1363
     16 C           2.5891    0.5285   18.6244 C.ar    1  UNL1        0.0210
     17 C           2.2113   -0.3315   19.7938 C.ar    1  UNL1        0.0222
     18 C           2.7857   -1.7108   19.9269 C.ar    1  UNL1        0.0989
     19 N           3.7379   -2.2299   18.8907 N.ar    1  UNL1       -0.2423
     20 C           4.1157   -1.3699   17.7213 C.ar    1  UNL1        0.0989
     21 C           3.5413    0.0093   17.5881 C.ar    1  UNL1        0.0222
     22 C          -5.9957    4.7253   20.4428 C.ar    1  UNL1        0.1360
     23 C          -6.8526    4.7685   21.6731 C.ar    1  UNL1        0.0366
     24 C          -6.4370    4.0177   22.9034 C.ar    1  UNL1        0.0031
     25 C          -5.1645    3.2236   22.9033 C.ar    1  UNL1       -0.0001
     26 C          -4.3075    3.1804   21.6730 C.ar    1  UNL1        0.0001
     27 C          -4.7231    3.9312   20.4427 C.ar    1  UNL1        0.0277
     28 C          -7.8658    5.7188   18.9376 C.3     1  UNL1        0.2525
     29 O          -6.4113    5.4761   19.2125 O.3     1  UNL1       -0.4717
@<TRIPOS>BOND
     1    28    29    1
     2    29    22    1
     3    22    23   ar
     4    23    24   ar
     5    24    25   ar
     6    25    26   ar
     7    26    27   ar
     8    27     1    1
     9     1     2    1
    10     2     3    1
    11     3     8    1
    12     8     9   ar
    13     9    10   ar
    14    10    16    1
    15    16    17   ar
    16    17    18   ar
    17    18    19   ar
    18    19    20   ar
    19    20    21   ar
    20    10    11   ar
    21    11    12   ar
    22    12    13    2
    23    12    14   ar
    24    14    15    1
    25     3     4    1
    26     4     5    1
    27     5     6    1
    28    27    22   ar
    29     6     1    1
    30    14     8   ar
    31    21    16   ar
    32     6     7    1
@<TRIPOS>MOLECULE
*****
 29 32 0 0 0
SMALL
GASTEIGER

@<TRIPOS>ATOM
      1 C           3.4359   -0.0940   21.5853 C.3     1  UNL1        0.0999
      2 C           2.4775    0.1358   22.7160 C.3     1  UNL1        0.1138
      3 N           2.2256    1.5279   23.2145 N.pl3   1  UNL1       -0.2763
      4 C           2.9322    2.6903   22.5823 C.3     1  UNL1        0.1107
      5 C           3.8906    2.4605   21.4516 C.3     1  UNL1        0.0906
      6 N           4.1425    1.0683   20.9530 N.3     1  UNL1       -0.2922
      7 H           5.1426    0.8956   21.0547 H       1  UNL1        0.1236
      8 C           1.2672    1.7577   24.3453 C.ar    1  UNL1        0.2035
      9 N           1.6492    1.3695   25.7429 N.ar    1  UNL1       -0.2148
     10 C           0.6907    1.5993   26.8736 C.ar    1  UNL1        0.0890
     11 C          -0.6497    2.2172   26.6068 C.ar    1  UNL1        0.0800
     12 C          -1.0318    2.6055   25.2091 C.ar    1  UNL1        0.2645
     13 O          -2.3722    3.2234   24.9423 O.2     1  UNL1       -0.2668
     14 N          -0.0734    2.3757   24.0784 N.ar    1  UNL1       -0.2667
     15 C          -0.4554    2.7639   22.6808 C.3     1  UNL1        0.1363
     16 C           1.0728    1.2110   28.2713 C.ar    1  UNL1        0.0210
     17 C           0.7574    2.1266   29.4168 C.ar    1  UNL1        0.0222
     18 C           1.1395    1.7384   30.8143 C.ar    1  UNL1        0.0989
     19 N           1.8370    0.4345   31.0664 N.ar    1  UNL1       -0.2423
     20 C           2.1523   -0.4811   29.9210 C.ar    1  UNL1        0.0989
     21 C           1.7703   -0.0928   28.5234 C.ar    1  UNL1        0.0222
     22 C           3.4246   -1.8274   19.6501 C.ar    1  UNL1        0.1360
     23 C           3.6765   -3.2196   19.1516 C.ar    1  UNL1        0.0366
     24 C           4.1916   -4.2704   20.0899 C.ar    1  UNL1        0.0031
     25 C           4.4548   -3.9292   21.5266 C.ar    1  UNL1       -0.0001
     26 C           4.2029   -2.5370   22.0251 C.ar    1  UNL1        0.0001
     27 C           3.6878   -1.4862   21.0868 C.ar    1  UNL1        0.0277
     28 C           3.6706   -0.4495   17.4613 C.3     1  UNL1        0.2525
     29 O           2.9095   -0.7766   18.7118 O.3     1  UNL1       -0.4717
@<TRIPOS>BOND
     1    28    29    1
     2    29    22    1
     3    22    23   ar
     4    23    24   ar
     5    24    25   ar
     6    25    26   ar
     7    26    27   ar
     8    27     1    1
     9     1     2    1
    10     2     3    1
    11     3     8    1
    12     8     9   ar
    13     9    10   ar
    14    10    16    1
    15    16    17   ar
    16    17    18   ar
    17    18    19   ar
    18    19    20   ar
    19    20    21   ar
    20    10    11   ar
    21    11    12   ar
    22    12    13    2
    23    12    14   ar
    24    14    15    1
    25     3     4    1
    26     4     5    1
    27     5     6    1
    28    27    22   ar
    29     6     1    1
    30    14     8   ar
    31    21    16   ar
    32     6     7    1
@<TRIPOS>MOLECULE
*****
 29 32 0 0 0
SMALL
GASTEIGER

@<TRIPOS>ATOM
      1 C           1.6972    1.7225   25.6191 C.3     1  UNL1        0.0999
      2 C           1.6557    0.9783   24.3174 C.3     1  UNL1        0.1138
      3 N           2.4007    1.5063   23.1274 N.pl3   1  UNL1       -0.2763
      4 C           3.1874    2.7786   23.2391 C.3     1  UNL1        0.1107
      5 C           3.2289    3.5229   24.5408 C.3     1  UNL1        0.0906
      6 N           2.4838    2.9948   25.7308 N.3     1  UNL1       -0.2922
      7 H           1.8278    3.7226   26.0142 H       1  UNL1        0.1236
      8 C           2.3592    0.7620   21.8258 C.ar    1  UNL1        0.2035
      9 N           3.1949   -0.4695   21.6389 N.ar    1  UNL1       -0.2148
     10 C           3.1533   -1.2137   20.3373 C.ar    1  UNL1        0.0890
     11 C           2.2761   -0.7265   19.2224 C.ar    1  UNL1        0.0800
     12 C           1.4403    0.5051   19.4092 C.ar    1  UNL1        0.2645
     13 O           0.5631    0.9924   18.2943 O.2     1  UNL1       -0.2668
     14 N           1.4819    1.2494   20.7108 N.ar    1  UNL1       -0.2667
     15 C           0.6462    2.4809   20.8977 C.3     1  UNL1        0.1363
     16 C           3.9891   -2.4453   20.1505 C.ar    1  UNL1        0.0210
     17 C           5.2918   -2.5855   20.8807 C.ar    1  UNL1        0.0222
     18 C           6.1275   -3.8170   20.6939 C.ar    1  UNL1        0.0989
     19 N           5.6605   -4.9083   19.7769 N.ar    1  UNL1       -0.2423
     20 C           4.3578   -4.7681   19.0467 C.ar    1  UNL1        0.0989
     21 C           3.5221   -3.5366   19.2335 C.ar    1  UNL1        0.0222
     22 C           1.6781    0.4083   27.8602 C.ar    1  UNL1        0.1360
     23 C           0.9330   -0.1198   29.0501 C.ar    1  UNL1        0.0366
     24 C          -0.5381    0.1383   29.1889 C.ar    1  UNL1        0.0031
     25 C          -1.2641    0.9244   28.1378 C.ar    1  UNL1       -0.0001
     26 C          -0.5190    1.4525   26.9479 C.ar    1  UNL1        0.0001
     27 C           0.9521    1.1944   26.8091 C.ar    1  UNL1        0.0277
     28 C           3.6310   -1.1052   27.0568 C.3     1  UNL1        0.2525
     29 O           3.1492    0.1502   27.7214 O.3     1  UNL1       -0.4717
@<TRIPOS>BOND
     1    28    29    1
     2    29    22    1
     3    22    23   ar
     4    23    24   ar
     5    24    25   ar
     6    25    26   ar
     7    26    27   ar
     8    27     1    1
     9     1     2    1
    10     2     3    1
    11     3     8    1
    12     8     9   ar
    13     9    10   ar
    14    10    16    1
    15    16    17   ar
    16    17    18   ar
    17    18    19   ar
    18    19    20   ar
    19    20    21   ar
    20    10    11   ar
    21    11    12   ar
    22    12    13    2
    23    12    14   ar
    24    14    15    1
    25     3     4    1
    26     4     5    1
    27     5     6    1
    28    27    22   ar
    29     6     1    1
    30    14     8   ar
    31    21    16   ar
    32     6     7    1
@<TRIPOS>MOLECULE
*****
 29 32 0 0 0
SMALL
GASTEIGER

@<TRIPOS>ATOM
      1 C           3.4824   -0.2953   22.6186 C.3     1  UNL1        0.0999
      2 C           2.9093   -0.4018   24.0007 C.3     1  UNL1        0.1138
      3 N           2.7146    0.8335   24.8291 N.pl3   1  UNL1       -0.2763
      4 C           3.0931    2.1752   24.2755 C.3     1  UNL1        0.1107
      5 C           3.6663    2.2817   22.8934 C.3     1  UNL1        0.0906
      6 N           3.8609    1.0464   22.0649 N.3     1  UNL1       -0.2922
      7 H           4.8533    1.0002   21.8338 H       1  UNL1        0.1236
      8 C           2.1415    0.7270   26.2112 C.ar    1  UNL1        0.2035
      9 N           3.0103    0.2855   27.3515 N.ar    1  UNL1       -0.2148
     10 C           2.4371    0.1791   28.7336 C.ar    1  UNL1        0.0890
     11 C           0.9952    0.5141   28.9754 C.ar    1  UNL1        0.0800
     12 C           0.1263    0.9556   27.8351 C.ar    1  UNL1        0.2645
     13 O          -1.3156    1.2906   28.0770 O.2     1  UNL1       -0.2668
     14 N           0.6994    1.0620   26.4530 N.ar    1  UNL1       -0.2667
     15 C          -0.1694    1.5035   25.3128 C.3     1  UNL1        0.1363
     16 C           3.3060   -0.2624   29.8739 C.ar    1  UNL1        0.0210
     17 C           2.8460   -0.0642   31.2877 C.ar    1  UNL1        0.0222
     18 C           3.7149   -0.5057   32.4279 C.ar    1  UNL1        0.0989
     19 N           5.0438   -1.1454   32.1542 N.ar    1  UNL1       -0.2423
     20 C           5.5038   -1.3436   30.7404 C.ar    1  UNL1        0.0989
     21 C           4.6349   -0.9022   29.6002 C.ar    1  UNL1        0.0222
     22 C           3.1735   -1.5736   20.3779 C.ar    1  UNL1        0.1360
     23 C           3.3681   -2.8088   19.5496 C.ar    1  UNL1        0.0366
     24 C           4.0663   -4.0011   20.1335 C.ar    1  UNL1        0.0031
     25 C           4.5699   -3.9581   21.5458 C.ar    1  UNL1       -0.0001
     26 C           4.3752   -2.7229   22.3741 C.ar    1  UNL1        0.0001
     27 C           3.6770   -1.5306   21.7902 C.ar    1  UNL1        0.0277
     28 C           0.9839   -0.2599   19.8986 C.3     1  UNL1        0.2525
     29 O           2.4752   -0.3813   19.7940 O.3     1  UNL1       -0.4717
@<TRIPOS>BOND
     1    28    29    1
     2    29    22    1
     3    22    23   ar
     4    23    24   ar
     5    24    25   ar
     6    25    26   ar
     7    26    27   ar
     8    27     1    1
     9     1     2    1
    10     2     3    1
    11     3     8    1
    12     8     9   ar
    13     9    10   ar
    14    10    16    1
    15    16    17   ar
    16    17    18   ar
    17    18    19   ar
    18    19    20   ar
    19    20    21   ar
    20    10    11   ar
    21    11    12   ar
    22    12    13    2
    23    12    14   ar
    24    14    15    1
    25     3     4    1
    26     4     5    1
    27     5     6    1
    28    27    22   ar
    29     6     1    1
    30    14     8   ar
    31    21    16   ar
    32     6     7    1
@<TRIPOS>MOLECULE
*****
 29 32 0 0 0
SMALL
GASTEIGER

@<TRIPOS>ATOM
      1 C           4.0137   -0.6932   23.4912 C.3     1  UNL1        0.0999
      2 C           2.7743   -0.3261   24.2521 C.3     1  UNL1        0.1138
      3 N           2.8648    0.5912   25.4355 N.pl3   1  UNL1       -0.2763
      4 C           4.1948    1.1414   25.8580 C.3     1  UNL1        0.1107
      5 C           5.4343    0.7743   25.0970 C.3     1  UNL1        0.0906
      6 N           5.3437   -0.1431   23.9136 N.3     1  UNL1       -0.2922
      7 H           5.9429   -0.9435   24.1150 H       1  UNL1        0.1236
      8 C           1.6254    0.9583   26.1964 C.ar    1  UNL1        0.2035
      9 N           0.5837    1.8286   25.5582 N.ar    1  UNL1       -0.2148
     10 C          -0.6558    2.1957   26.3191 C.ar    1  UNL1        0.0890
     11 C          -0.8535    1.6925   27.7182 C.ar    1  UNL1        0.0800
     12 C           0.1882    0.8221   28.3565 C.ar    1  UNL1        0.2645
     13 O          -0.0095    0.3190   29.7557 O.2     1  UNL1       -0.2668
     14 N           1.4277    0.4550   27.5956 N.ar    1  UNL1       -0.2667
     15 C           2.4694   -0.4153   28.2338 C.3     1  UNL1        0.1363
     16 C          -1.6975    3.0661   25.6808 C.ar    1  UNL1        0.0210
     17 C          -1.6043    3.4000   24.2215 C.ar    1  UNL1        0.0222
     18 C          -2.6460    4.2703   23.5832 C.ar    1  UNL1        0.0989
     19 N          -3.7809    4.8067   24.4044 N.ar    1  UNL1       -0.2423
     20 C          -3.8742    4.4727   25.8637 C.ar    1  UNL1        0.0989
     21 C          -2.8325    3.6024   26.5019 C.ar    1  UNL1        0.0222
     22 C           4.5189   -2.9854   22.3772 C.ar    1  UNL1        0.1360
     23 C           4.4284   -3.9026   21.1939 C.ar    1  UNL1        0.0366
     24 C           3.7420   -3.4451   19.9410 C.ar    1  UNL1        0.0031
     25 C           3.1462   -2.0702   19.8716 C.ar    1  UNL1       -0.0001
     26 C           3.2368   -1.1530   21.0550 C.ar    1  UNL1        0.0001
     27 C           3.9232   -1.6106   22.3078 C.ar    1  UNL1        0.0277
     28 C           6.6788   -3.7235   23.6183 C.3     1  UNL1        0.2525
     29 O           5.2053   -3.4430   23.6300 O.3     1  UNL1       -0.4717
@<TRIPOS>BOND
     1    28    29    1
     2    29    22    1
     3    22    23   ar
     4    23    24   ar
     5    24    25   ar
     6    25    26   ar
     7    26    27   ar
     8    27     1    1
     9     1     2    1
    10     2     3    1
    11     3     8    1
    12     8     9   ar
    13     9    10   ar
    14    10    16    1
    15    16    17   ar
    16    17    18   ar
    17    18    19   ar
    18    19    20   ar
    19    20    21   ar
    20    10    11   ar
    21    11    12   ar
    22    12    13    2
    23    12    14   ar
    24    14    15    1
    25     3     4    1
    26     4     5    1
    27     5     6    1
    28    27    22   ar
    29     6     1    1
    30    14     8   ar
    31    21    16   ar
    32     6     7    1
