@<TRIPOS>MOLECULE
*****
 35 36 0 0 0
SMALL
GASTEIGER

@<TRIPOS>ATOM
      1 N           2.8288   -0.6530   26.3370 N.am    1  UNL1       -0.3046
      2 C           3.3296    0.2738   25.2693 C.2     1  UNL1        0.2425
      3 O           4.6117    1.0261   25.4699 O.2     1  UNL1       -0.2733
      4 H           1.9873   -1.1467   26.2053 H       1  UNL1        0.1494
      5 C           3.2331   -0.0503   28.8317 C.3     1  UNL1        0.0193
      6 C           4.0145   -0.2250   30.1001 C.3     1  UNL1        0.0176
      7 C           5.1729   -1.1769   30.1424 C.3     1  UNL1        0.0576
      8 C           5.5500   -1.9542   28.9162 C.3     1  UNL1        0.0176
      9 C           4.7686   -1.7796   27.6478 C.3     1  UNL1        0.0209
     10 C           3.6102   -0.8276   27.6055 C.3     1  UNL1        0.0716
     11 N           5.9543   -1.3515   31.4109 N.3     1  UNL1       -0.2741
     12 C           7.0017   -0.3473   31.7908 C.3     1  UNL1        0.0896
     13 C           5.6882   -2.5304   32.2994 C.3     1  UNL1        0.0576
     14 C           6.5648   -3.7448   32.2168 C.3     1  UNL1        0.0173
     15 C           4.5456   -2.4948   33.2705 C.3     1  UNL1        0.0173
     16 C           2.0747    0.9016   28.7895 C.3     1  UNL1        0.0017
     17 C           0.7616    0.5127   29.4015 C.3     1  UNL1        0.0001
     18 C          -0.6395    1.3294   27.3718 C.3     1  UNL1        0.0000
     19 C          -0.4645    0.4095   28.5436 C.3     1  UNL1        0.0000
     20 C          -1.5155   -0.6135   28.8576 C.3     1  UNL1        0.0000
     21 C           2.5482    0.4484   24.0008 C.3     1  UNL1        0.1759
     22 N           3.1171   -0.0293   22.6977 N.am    1  UNL1       -0.2931
     23 C           2.2671   -0.0251   21.4618 C.2     1  UNL1        0.2462
     24 O           0.8482    0.4568   21.5290 O.2     1  UNL1       -0.2701
     25 H           4.0484   -0.3456   22.6536 H       1  UNL1        0.1502
     26 C           2.8360   -0.5028   20.1586 C.ar    1  UNL1        0.0533
     27 C           2.9527    0.4424   18.9998 C.ar    1  UNL1        0.0045
     28 C           3.5216   -0.0354   17.6967 C.ar    1  UNL1        0.0001
     29 C           3.9737   -1.4583   17.5524 C.ar    1  UNL1        0.0039
     30 C           3.8569   -2.4035   18.7112 C.ar    1  UNL1        0.0716
     31 C           3.2881   -1.9258   20.0143 C.ar    1  UNL1        0.0084
     32 C           4.3090   -3.8265   18.5670 C.3     1  UNL1        0.4186
     33 F           4.7611   -5.2494   18.4227 F       1  UNL1       -0.1659
     34 F           2.9372   -4.3007   18.9454 F       1  UNL1       -0.1659
     35 F           5.6809   -3.3523   18.1885 F       1  UNL1       -0.1659
@<TRIPOS>BOND
     1    18    19    1
     2    19    20    1
     3    19    17    1
     4    17    16    1
     5     5    16    1
     6     5     6    1
     7     6     7    1
     8     7    11    1
     9    11    12    1
    10    11    13    1
    11    13    14    1
    12    13    15    1
    13     7     8    1
    14     8     9    1
    15     9    10    1
    16    10     1    1
    17     1     2   am
    18     2     3    2
    19     2    21    1
    20    21    22    1
    21    22    23   am
    22    23    24    2
    23    23    26    1
    24    26    27   ar
    25    27    28   ar
    26    28    29   ar
    27    29    30   ar
    28    30    32    1
    29    32    33    1
    30    32    34    1
    31    32    35    1
    32    30    31   ar
    33    10     5    1
    34    31    26   ar
    35     1     4    1
    36    22    25    1
@<TRIPOS>MOLECULE
*****
 35 36 0 0 0
SMALL
GASTEIGER

@<TRIPOS>ATOM
      1 N           0.8354    1.5523   18.2657 N.am    1  UNL1       -0.3046
      2 C           1.1740    2.9871   18.5421 C.2     1  UNL1        0.2425
      3 O           2.4958    3.3409   19.1567 O.2     1  UNL1       -0.2733
      4 H          -0.0321    1.3201   17.8623 H       1  UNL1        0.1494
      5 C           1.6788   -0.2960   19.8851 C.3     1  UNL1        0.0193
      6 C           2.6621   -1.3771   20.2232 C.3     1  UNL1        0.0176
      7 C           3.7852   -1.6912   19.2798 C.3     1  UNL1        0.0576
      8 C           3.9251   -0.9241   17.9985 C.3     1  UNL1        0.0176
      9 C           2.9419    0.1570   17.6604 C.3     1  UNL1        0.0209
     10 C           1.8187    0.4711   18.6038 C.3     1  UNL1        0.0716
     11 N           4.7685   -2.7724   19.6179 N.3     1  UNL1       -0.2741
     12 C           6.1889   -2.6684   19.1470 C.3     1  UNL1        0.0896
     13 C           4.3314   -3.9575   20.4269 C.3     1  UNL1        0.0576
     14 C           3.6509   -5.1137   19.7561 C.3     1  UNL1        0.0173
     15 C           4.5749   -3.9863   21.9068 C.3     1  UNL1        0.0173
     16 C           0.5556    0.0180   20.8285 C.3     1  UNL1        0.0017
     17 C           0.6634    1.1891   21.7596 C.3     1  UNL1        0.0001
     18 C           2.3683    0.2039   23.4546 C.3     1  UNL1        0.0000
     19 C           1.1175    0.9831   23.1743 C.3     1  UNL1        0.0000
     20 C           0.3210    1.5563   24.3086 C.3     1  UNL1        0.0000
     21 C           0.1907    4.0683   18.2041 C.3     1  UNL1        0.1759
     22 N          -1.1657    4.0756   18.8444 N.am    1  UNL1       -0.2931
     23 C          -2.3939    3.8992   18.0016 C.2     1  UNL1        0.2462
     24 O          -2.2657    3.7156   16.5185 O.2     1  UNL1       -0.2701
     25 H          -1.2498    4.1961   19.8179 H       1  UNL1        0.1502
     26 C          -3.7504    3.9065   18.6420 C.ar    1  UNL1        0.0533
     27 C          -4.9759    4.1071   17.8007 C.ar    1  UNL1        0.0045
     28 C          -6.3322    4.1144   18.4411 C.ar    1  UNL1        0.0001
     29 C          -6.4631    3.9210   19.9228 C.ar    1  UNL1        0.0039
     30 C          -5.2376    3.7203   20.7641 C.ar    1  UNL1        0.0716
     31 C          -3.8813    3.7131   20.1237 C.ar    1  UNL1        0.0084
     32 C          -5.3685    3.5269   22.2458 C.3     1  UNL1        0.4186
     33 F          -5.4994    3.3335   23.7275 F       1  UNL1       -0.1659
     34 F          -6.8055    3.9510   22.1743 F       1  UNL1       -0.1659
     35 F          -3.9315    3.1028   22.3174 F       1  UNL1       -0.1659
@<TRIPOS>BOND
     1    18    19    1
     2    19    20    1
     3    19    17    1
     4    17    16    1
     5     5    16    1
     6     5     6    1
     7     6     7    1
     8     7    11    1
     9    11    12    1
    10    11    13    1
    11    13    14    1
    12    13    15    1
    13     7     8    1
    14     8     9    1
    15     9    10    1
    16    10     1    1
    17     1     2   am
    18     2     3    2
    19     2    21    1
    20    21    22    1
    21    22    23   am
    22    23    24    2
    23    23    26    1
    24    26    27   ar
    25    27    28   ar
    26    28    29   ar
    27    29    30   ar
    28    30    32    1
    29    32    33    1
    30    32    34    1
    31    32    35    1
    32    30    31   ar
    33    10     5    1
    34    31    26   ar
    35     1     4    1
    36    22    25    1
@<TRIPOS>MOLECULE
*****
 35 36 0 0 0
SMALL
GASTEIGER

@<TRIPOS>ATOM
      1 N          -0.4334    1.6939   20.8959 N.am    1  UNL1       -0.3046
      2 C          -0.3620    2.8127   19.8994 C.2     1  UNL1        0.2425
      3 O           0.8298    2.9388   18.9974 O.2     1  UNL1       -0.2733
      4 H          -1.2157    1.6111   21.4879 H       1  UNL1        0.1494
      5 C           1.5908    0.7017   22.1875 C.3     1  UNL1        0.0193
      6 C           2.7112   -0.2911   22.2820 C.3     1  UNL1        0.0176
      7 C           2.9278   -1.2847   21.1793 C.3     1  UNL1        0.0576
      8 C           2.0241   -1.2854   19.9821 C.3     1  UNL1        0.0176
      9 C           0.9037   -0.2926   19.8877 C.3     1  UNL1        0.0209
     10 C           0.6870    0.7010   20.9904 C.3     1  UNL1        0.0716
     11 N           4.0483   -2.2775   21.2738 N.3     1  UNL1       -0.2741
     12 C           4.6628   -2.5904   22.6059 C.3     1  UNL1        0.0896
     13 C           4.5542   -2.9575   20.0362 C.3     1  UNL1        0.0576
     14 C           5.5842   -2.2842   19.1783 C.3     1  UNL1        0.0173
     15 C           4.0303   -4.3107   19.6564 C.3     1  UNL1        0.0173
     16 C           1.3742    1.6953   23.2902 C.3     1  UNL1        0.0017
     17 C           0.7839    1.2503   24.5954 C.3     1  UNL1        0.0001
     18 C          -0.8035    3.3070   24.5852 C.3     1  UNL1        0.0000
     19 C          -0.2579    2.0905   25.2726 C.3     1  UNL1        0.0000
     20 C          -0.7542    1.7142   26.6372 C.3     1  UNL1        0.0000
     21 C          -1.4825    3.8056   19.8049 C.3     1  UNL1        0.1759
     22 N          -2.4415    3.9652   20.9472 N.am    1  UNL1       -0.2931
     23 C          -3.9181    3.8556   20.7076 C.2     1  UNL1        0.2462
     24 O          -4.4358    3.5864   19.3258 O.2     1  UNL1       -0.2701
     25 H          -2.1017    4.1419   21.8542 H       1  UNL1        0.1502
     26 C          -4.8772    4.0152   21.8500 C.ar    1  UNL1        0.0533
     27 C          -6.3343    4.2460   21.5792 C.ar    1  UNL1        0.0045
     28 C          -7.2933    4.4056   22.7215 C.ar    1  UNL1        0.0001
     29 C          -6.7951    4.3344   24.1345 C.ar    1  UNL1        0.0039
     30 C          -5.3379    4.1036   24.4053 C.ar    1  UNL1        0.0716
     31 C          -4.3790    3.9440   23.2630 C.ar    1  UNL1        0.0084
     32 C          -4.8398    4.0324   25.8184 C.3     1  UNL1        0.4186
     33 F          -4.3416    3.9612   27.2314 F       1  UNL1       -0.1659
     34 F          -3.7573    3.0869   25.3891 F       1  UNL1       -0.1659
     35 F          -5.9222    4.9779   26.2477 F       1  UNL1       -0.1659
@<TRIPOS>BOND
     1    18    19    1
     2    19    20    1
     3    19    17    1
     4    17    16    1
     5     5    16    1
     6     5     6    1
     7     6     7    1
     8     7    11    1
     9    11    12    1
    10    11    13    1
    11    13    14    1
    12    13    15    1
    13     7     8    1
    14     8     9    1
    15     9    10    1
    16    10     1    1
    17     1     2   am
    18     2     3    2
    19     2    21    1
    20    21    22    1
    21    22    23   am
    22    23    24    2
    23    23    26    1
    24    26    27   ar
    25    27    28   ar
    26    28    29   ar
    27    29    30   ar
    28    30    32    1
    29    32    33    1
    30    32    34    1
    31    32    35    1
    32    30    31   ar
    33    10     5    1
    34    31    26   ar
    35     1     4    1
    36    22    25    1
@<TRIPOS>MOLECULE
*****
 35 36 0 0 0
SMALL
GASTEIGER

@<TRIPOS>ATOM
      1 N          -0.0500    2.1389   19.7191 N.am    1  UNL1       -0.3046
      2 C           0.2955    3.5491   20.0957 C.2     1  UNL1        0.2425
      3 O           1.7201    3.9212   20.3824 O.2     1  UNL1       -0.2733
      4 H          -0.9850    1.8947   19.5309 H       1  UNL1        0.1494
      5 C           1.3615    0.2589   20.8252 C.3     1  UNL1        0.0193
      6 C           2.4405   -0.7791   20.7351 C.3     1  UNL1        0.0176
      7 C           3.1869   -0.9754   19.4489 C.3     1  UNL1        0.0576
      8 C           2.8544   -0.1336   18.2528 C.3     1  UNL1        0.0176
      9 C           1.7754    0.9045   18.3429 C.3     1  UNL1        0.0209
     10 C           1.0290    1.1007   19.6290 C.3     1  UNL1        0.0716
     11 N           4.2660   -2.0136   19.3589 N.3     1  UNL1       -0.2741
     12 C           5.5814   -1.6748   18.7227 C.3     1  UNL1        0.0896
     13 C           4.0295   -3.3904   19.9051 C.3     1  UNL1        0.0576
     14 C           3.2692   -4.3983   19.0950 C.3     1  UNL1        0.0173
     15 C           4.5532   -3.7594   21.2614 C.3     1  UNL1        0.0173
     16 C           0.6150    0.4552   22.1114 C.3     1  UNL1        0.0017
     17 C           1.1045    1.4540   23.1177 C.3     1  UNL1        0.0001
     18 C           0.0185    1.3104   25.4736 C.3     1  UNL1        0.0000
     19 C           1.1909    1.0777   24.5671 C.3     1  UNL1        0.0000
     20 C           2.4495    0.4686   25.1101 C.3     1  UNL1        0.0000
     21 C          -0.7835    4.5872   20.1857 C.3     1  UNL1        0.1759
     22 N          -1.6009    4.7129   21.4372 N.am    1  UNL1       -0.2931
     23 C          -2.6911    3.7232   21.7233 C.2     1  UNL1        0.2462
     24 O          -2.9640    2.6080   20.7581 O.2     1  UNL1       -0.2701
     25 H          -1.4218    5.4449   22.0707 H       1  UNL1        0.1502
     26 C          -3.5085    3.8489   22.9748 C.ar    1  UNL1        0.0533
     27 C          -2.8621    3.6598   24.3150 C.ar    1  UNL1        0.0045
     28 C          -3.6795    3.7854   25.5664 C.ar    1  UNL1        0.0001
     29 C          -5.1434    4.1001   25.4776 C.ar    1  UNL1        0.0039
     30 C          -5.7899    4.2892   24.1373 C.ar    1  UNL1        0.0716
     31 C          -4.9725    4.1636   22.8860 C.ar    1  UNL1        0.0084
     32 C          -7.2538    4.6039   24.0485 C.3     1  UNL1        0.4186
     33 F          -8.7177    4.9186   23.9597 F       1  UNL1       -0.1659
     34 F          -7.3485    3.8061   22.7818 F       1  UNL1       -0.1659
     35 F          -7.1592    5.4017   25.3152 F       1  UNL1       -0.1659
@<TRIPOS>BOND
     1    18    19    1
     2    19    20    1
     3    19    17    1
     4    17    16    1
     5     5    16    1
     6     5     6    1
     7     6     7    1
     8     7    11    1
     9    11    12    1
    10    11    13    1
    11    13    14    1
    12    13    15    1
    13     7     8    1
    14     8     9    1
    15     9    10    1
    16    10     1    1
    17     1     2   am
    18     2     3    2
    19     2    21    1
    20    21    22    1
    21    22    23   am
    22    23    24    2
    23    23    26    1
    24    26    27   ar
    25    27    28   ar
    26    28    29   ar
    27    29    30   ar
    28    30    32    1
    29    32    33    1
    30    32    34    1
    31    32    35    1
    32    30    31   ar
    33    10     5    1
    34    31    26   ar
    35     1     4    1
    36    22    25    1
@<TRIPOS>MOLECULE
*****
 35 36 0 0 0
SMALL
GASTEIGER

@<TRIPOS>ATOM
      1 N           2.1455   -0.0609   24.2954 N.am    1  UNL1       -0.3046
      2 C           2.6780    1.2131   24.8812 C.2     1  UNL1        0.2425
      3 O           4.0791    1.6519   24.5738 O.2     1  UNL1       -0.2733
      4 H           1.2259   -0.3488   24.4972 H       1  UNL1        0.1494
      5 C           2.8246   -0.8496   21.9149 C.3     1  UNL1        0.0193
      6 C           3.6931   -1.6849   21.0217 C.3     1  UNL1        0.0176
      7 C           4.7511   -2.5669   21.6157 C.3     1  UNL1        0.0576
      8 C           4.9406   -2.6135   23.1030 C.3     1  UNL1        0.0176
      9 C           4.0720   -1.7782   23.9961 C.3     1  UNL1        0.0209
     10 C           3.0141   -0.8962   23.4021 C.3     1  UNL1        0.0716
     11 N           5.6197   -3.4022   20.7224 N.3     1  UNL1       -0.2741
     12 C           6.9467   -3.8973   21.2163 C.3     1  UNL1        0.0896
     13 C           5.1612   -3.7424   19.3354 C.3     1  UNL1        0.0576
     14 C           4.2510   -4.9137   19.1124 C.3     1  UNL1        0.0173
     15 C           5.6129   -2.9113   18.1712 C.3     1  UNL1        0.0173
     16 C           1.7666    0.0323   21.3209 C.3     1  UNL1        0.0017
     17 C           1.1850   -0.2947   19.9775 C.3     1  UNL1        0.0001
     18 C           0.7628    1.7214   18.3940 C.3     1  UNL1        0.0000
     19 C           1.5703    0.5163   18.7758 C.3     1  UNL1        0.0000
     20 C           2.7629    0.1221   17.9560 C.3     1  UNL1        0.0000
     21 C           1.8095    2.0485   25.7745 C.3     1  UNL1        0.1759
     22 N           0.4070    2.3809   25.3594 N.am    1  UNL1       -0.2931
     23 C          -0.5367    3.0097   26.3412 C.2     1  UNL1        0.2462
     24 O          -0.0778    3.3061   27.7382 O.2     1  UNL1       -0.2701
     25 H           0.1058    2.1864   24.4425 H       1  UNL1        0.1502
     26 C          -1.9393    3.3422   25.9261 C.ar    1  UNL1        0.0533
     27 C          -2.9527    3.7395   26.9582 C.ar    1  UNL1        0.0045
     28 C          -4.3552    4.0719   26.5430 C.ar    1  UNL1        0.0001
     29 C          -4.7443    4.0071   25.0958 C.ar    1  UNL1        0.0039
     30 C          -3.7309    3.6098   24.0638 C.ar    1  UNL1        0.0716
     31 C          -2.3284    3.2774   24.4789 C.ar    1  UNL1        0.0084
     32 C          -4.1201    3.5450   22.6166 C.3     1  UNL1        0.4186
     33 F          -4.5092    3.4802   21.1694 F       1  UNL1       -0.1659
     34 F          -5.0635    2.4192   22.9207 F       1  UNL1       -0.1659
     35 F          -3.1766    4.6708   22.3125 F       1  UNL1       -0.1659
@<TRIPOS>BOND
     1    18    19    1
     2    19    20    1
     3    19    17    1
     4    17    16    1
     5     5    16    1
     6     5     6    1
     7     6     7    1
     8     7    11    1
     9    11    12    1
    10    11    13    1
    11    13    14    1
    12    13    15    1
    13     7     8    1
    14     8     9    1
    15     9    10    1
    16    10     1    1
    17     1     2   am
    18     2     3    2
    19     2    21    1
    20    21    22    1
    21    22    23   am
    22    23    24    2
    23    23    26    1
    24    26    27   ar
    25    27    28   ar
    26    28    29   ar
    27    29    30   ar
    28    30    32    1
    29    32    33    1
    30    32    34    1
    31    32    35    1
    32    30    31   ar
    33    10     5    1
    34    31    26   ar
    35     1     4    1
    36    22    25    1
@<TRIPOS>MOLECULE
*****
 35 36 0 0 0
SMALL
GASTEIGER

@<TRIPOS>ATOM
      1 N           6.5523   -4.2890   23.4867 N.am    1  UNL1       -0.3046
      2 C           7.7460   -4.0677   22.6058 C.2     1  UNL1        0.2425
      3 O           9.0584   -3.6625   23.2088 O.2     1  UNL1       -0.2733
      4 H           5.6910   -4.5549   23.0909 H       1  UNL1        0.1494
      5 C           6.2215   -2.8227   25.6058 C.3     1  UNL1        0.0193
      6 C           6.3401   -2.6389   27.0897 C.3     1  UNL1        0.0176
      7 C           6.9081   -3.7375   27.9386 C.3     1  UNL1        0.0576
      8 C           7.3575   -5.0199   27.3034 C.3     1  UNL1        0.0176
      9 C           7.2389   -5.2037   25.8195 C.3     1  UNL1        0.0209
     10 C           6.6709   -4.1051   24.9707 C.3     1  UNL1        0.0716
     11 N           7.0266   -3.5536   29.4226 N.3     1  UNL1       -0.2741
     12 C           6.4176   -2.3509   30.0803 C.3     1  UNL1        0.0896
     13 C           7.7542   -4.5724   30.2488 C.3     1  UNL1        0.0576
     14 C           9.2266   -4.4254   30.4951 C.3     1  UNL1        0.0173
     15 C           7.0095   -5.7382   30.8287 C.3     1  UNL1        0.0173
     16 C           5.6535   -1.7241   24.7570 C.3     1  UNL1        0.0017
     17 C           4.1896   -1.7094   24.4302 C.3     1  UNL1        0.0001
     18 C           2.6391    0.2441   23.7023 C.3     1  UNL1        0.0000
     19 C           3.3549   -0.5135   24.7811 C.3     1  UNL1        0.0000
     20 C           3.2358   -0.0753   26.2107 C.3     1  UNL1        0.0000
     21 C           7.6275   -4.2515   21.1218 C.3     1  UNL1        0.1759
     22 N           6.8747   -3.2480   20.2995 N.am    1  UNL1       -0.2931
     23 C           5.3752   -3.2752   20.2711 C.2     1  UNL1        0.2462
     24 O           4.6286   -4.3058   21.0650 O.2     1  UNL1       -0.2701
     25 H           7.3647   -2.5716   19.7784 H       1  UNL1        0.1502
     26 C           4.6223   -2.2716   19.4488 C.ar    1  UNL1        0.0533
     27 C           5.1685   -1.8256   18.1249 C.ar    1  UNL1        0.0045
     28 C           4.4156   -0.8221   17.3027 C.ar    1  UNL1        0.0001
     29 C           3.1166   -0.2646   17.8043 C.ar    1  UNL1        0.0039
     30 C           2.5704   -0.7107   19.1281 C.ar    1  UNL1        0.0716
     31 C           3.3232   -1.7142   19.9504 C.ar    1  UNL1        0.0084
     32 C           1.2713   -0.1532   19.6298 C.3     1  UNL1        0.4186
     33 F          -0.0278    0.4042   20.1314 F       1  UNL1       -0.1659
     34 F           1.0738    0.5605   18.3253 F       1  UNL1       -0.1659
     35 F           1.4687   -0.8669   20.9343 F       1  UNL1       -0.1659
@<TRIPOS>BOND
     1    18    19    1
     2    19    20    1
     3    19    17    1
     4    17    16    1
     5     5    16    1
     6     5     6    1
     7     6     7    1
     8     7    11    1
     9    11    12    1
    10    11    13    1
    11    13    14    1
    12    13    15    1
    13     7     8    1
    14     8     9    1
    15     9    10    1
    16    10     1    1
    17     1     2   am
    18     2     3    2
    19     2    21    1
    20    21    22    1
    21    22    23   am
    22    23    24    2
    23    23    26    1
    24    26    27   ar
    25    27    28   ar
    26    28    29   ar
    27    29    30   ar
    28    30    32    1
    29    32    33    1
    30    32    34    1
    31    32    35    1
    32    30    31   ar
    33    10     5    1
    34    31    26   ar
    35     1     4    1
    36    22    25    1
@<TRIPOS>MOLECULE
*****
 35 36 0 0 0
SMALL
GASTEIGER

@<TRIPOS>ATOM
      1 N           2.7915   -0.7520   28.7898 N.am    1  UNL1       -0.3046
      2 C           3.6024   -0.4269   27.5705 C.2     1  UNL1        0.2425
      3 O           3.9986    0.9923   27.2896 O.2     1  UNL1       -0.2733
      4 H           2.5315   -1.6835   28.9741 H       1  UNL1        0.1494
      5 C           0.9976    0.9250   29.6380 C.3     1  UNL1        0.0193
      6 C           0.5828    2.0191   30.5765 C.3     1  UNL1        0.0176
      7 C           1.5473    2.5305   31.6053 C.3     1  UNL1        0.0576
      8 C           2.9265    1.9477   31.6956 C.3     1  UNL1        0.0176
      9 C           3.3412    0.8536   30.7571 C.3     1  UNL1        0.0209
     10 C           2.3767    0.3422   29.7283 C.3     1  UNL1        0.0716
     11 N           1.1325    3.6247   32.5438 N.3     1  UNL1       -0.2741
     12 C          -0.2186    4.2611   32.4035 C.3     1  UNL1        0.0896
     13 C           2.0687    4.0825   33.6226 C.3     1  UNL1        0.0576
     14 C           2.1301    3.3428   34.9261 C.3     1  UNL1        0.0173
     15 C           2.9437    5.2800   33.3979 C.3     1  UNL1        0.0173
     16 C           0.0331    0.4136   28.6093 C.3     1  UNL1        0.0017
     17 C          -0.8387    1.3739   27.8557 C.3     1  UNL1        0.0001
     18 C           0.7574    1.2200   25.8114 C.3     1  UNL1        0.0000
     19 C          -0.4911    1.7558   26.4474 C.3     1  UNL1        0.0000
     20 C          -1.3919    2.6734   25.6751 C.3     1  UNL1        0.0000
     21 C           4.0172   -1.5211   26.6320 C.3     1  UNL1        0.1759
     22 N           3.5677   -1.4926   25.2012 N.am    1  UNL1       -0.2931
     23 C           4.4111   -2.1301   24.1373 C.2     1  UNL1        0.2462
     24 O           5.7041   -2.7963   24.5040 O.2     1  UNL1       -0.2701
     25 H           2.7191   -1.0554   24.9605 H       1  UNL1        0.1502
     26 C           3.9616   -2.1016   22.7064 C.ar    1  UNL1        0.0533
     27 C           3.0930   -0.9816   22.2154 C.ar    1  UNL1        0.0045
     28 C           2.6435   -0.9531   20.7846 C.ar    1  UNL1        0.0001
     29 C           3.0626   -2.0446   19.8449 C.ar    1  UNL1        0.0039
     30 C           3.9312   -3.1645   20.3360 C.ar    1  UNL1        0.0716
     31 C           4.3807   -3.1930   21.7667 C.ar    1  UNL1        0.0084
     32 C           4.3503   -4.2560   19.3963 C.3     1  UNL1        0.4186
     33 F           4.7694   -5.3475   18.4565 F       1  UNL1       -0.1659
     34 F           5.7888   -3.9870   19.7254 F       1  UNL1       -0.1659
     35 F           2.9118   -4.5250   19.0672 F       1  UNL1       -0.1659
@<TRIPOS>BOND
     1    18    19    1
     2    19    20    1
     3    19    17    1
     4    17    16    1
     5     5    16    1
     6     5     6    1
     7     6     7    1
     8     7    11    1
     9    11    12    1
    10    11    13    1
    11    13    14    1
    12    13    15    1
    13     7     8    1
    14     8     9    1
    15     9    10    1
    16    10     1    1
    17     1     2   am
    18     2     3    2
    19     2    21    1
    20    21    22    1
    21    22    23   am
    22    23    24    2
    23    23    26    1
    24    26    27   ar
    25    27    28   ar
    26    28    29   ar
    27    29    30   ar
    28    30    32    1
    29    32    33    1
    30    32    34    1
    31    32    35    1
    32    30    31   ar
    33    10     5    1
    34    31    26   ar
    35     1     4    1
    36    22    25    1
@<TRIPOS>MOLECULE
*****
 35 36 0 0 0
SMALL
GASTEIGER

@<TRIPOS>ATOM
      1 N           1.0500    0.5710   25.3113 N.am    1  UNL1       -0.3046
      2 C           2.4830    0.9199   25.5846 C.2     1  UNL1        0.2425
      3 O           2.8738    2.3472   25.8295 O.2     1  UNL1       -0.2733
      4 H           0.7935   -0.3659   25.1505 H       1  UNL1        0.1494
      5 C          -0.2600    2.4003   24.0122 C.3     1  UNL1        0.0193
      6 C          -1.3022    3.4787   23.9838 C.3     1  UNL1        0.0176
      7 C          -2.0767    3.8061   25.2260 C.3     1  UNL1        0.0576
      8 C          -1.8090    3.0552   26.4965 C.3     1  UNL1        0.0176
      9 C          -0.7668    1.9768   26.5250 C.3     1  UNL1        0.0209
     10 C           0.0077    1.6494   25.2828 C.3     1  UNL1        0.0716
     11 N          -3.1190    4.8845   25.1975 N.3     1  UNL1       -0.2741
     12 C          -2.7837    6.2372   24.6426 C.3     1  UNL1        0.0896
     13 C          -4.4965    4.6103   25.7240 C.3     1  UNL1        0.0576
     14 C          -4.9168    5.1679   27.0517 C.3     1  UNL1        0.0173
     15 C          -5.4538    3.7786   24.9229 C.3     1  UNL1        0.0173
     16 C           0.5145    2.0729   22.7701 C.3     1  UNL1        0.0017
     17 C          -0.1577    2.1294   21.4304 C.3     1  UNL1        0.0001
     18 C           0.4757   -0.2095   20.4931 C.3     1  UNL1        0.0000
     19 C           0.3405    1.2725   20.3045 C.3     1  UNL1        0.0000
     20 C           0.7035    1.8975   18.9902 C.3     1  UNL1        0.0000
     21 C           3.5252   -0.1585   25.6131 C.3     1  UNL1        0.1759
     22 N           3.6319   -1.1287   24.4741 N.am    1  UNL1       -0.2931
     23 C           4.0255   -0.6439   23.1103 C.2     1  UNL1        0.2462
     24 O           4.3125    0.8111   22.8855 O.2     1  UNL1       -0.2701
     25 H           3.4435   -2.0837   24.6216 H       1  UNL1        0.1502
     26 C           4.1322   -1.6141   21.9712 C.ar    1  UNL1        0.0533
     27 C           4.3397   -3.0739   22.2464 C.ar    1  UNL1        0.0045
     28 C           4.4464   -4.0441   21.1074 C.ar    1  UNL1        0.0001
     29 C           4.3455   -3.5543   19.6932 C.ar    1  UNL1        0.0039
     30 C           4.1380   -2.0945   19.4180 C.ar    1  UNL1        0.0716
     31 C           4.0313   -1.1244   20.5570 C.ar    1  UNL1        0.0084
     32 C           4.0372   -1.6048   18.0038 C.3     1  UNL1        0.4186
     33 F           3.9363   -1.1151   16.5896 F       1  UNL1       -0.1659
     34 F           5.0899   -2.5890   17.5879 F       1  UNL1       -0.1659
     35 F           2.9844   -0.6205   18.4197 F       1  UNL1       -0.1659
@<TRIPOS>BOND
     1    18    19    1
     2    19    20    1
     3    19    17    1
     4    17    16    1
     5     5    16    1
     6     5     6    1
     7     6     7    1
     8     7    11    1
     9    11    12    1
    10    11    13    1
    11    13    14    1
    12    13    15    1
    13     7     8    1
    14     8     9    1
    15     9    10    1
    16    10     1    1
    17     1     2   am
    18     2     3    2
    19     2    21    1
    20    21    22    1
    21    22    23   am
    22    23    24    2
    23    23    26    1
    24    26    27   ar
    25    27    28   ar
    26    28    29   ar
    27    29    30   ar
    28    30    32    1
    29    32    33    1
    30    32    34    1
    31    32    35    1
    32    30    31   ar
    33    10     5    1
    34    31    26   ar
    35     1     4    1
    36    22    25    1
@<TRIPOS>MOLECULE
*****
 35 36 0 0 0
SMALL
GASTEIGER

@<TRIPOS>ATOM
      1 N           4.8396   -1.6059   25.3919 N.am    1  UNL1       -0.3046
      2 C           6.2978   -1.3272   25.6062 C.2     1  UNL1        0.2425
      3 O           6.7280   -0.3560   26.6654 O.2     1  UNL1       -0.2733
      4 H           4.5573   -2.2434   24.6968 H       1  UNL1        0.1494
      5 C           3.0110    0.2192   25.6657 C.3     1  UNL1        0.0193
      6 C           1.9830    0.9116   26.5106 C.3     1  UNL1        0.0176
      7 C           1.7556    0.4714   27.9264 C.3     1  UNL1        0.0576
      8 C           2.5562   -0.6612   28.4974 C.3     1  UNL1        0.0176
      9 C           3.5842   -1.3537   27.6525 C.3     1  UNL1        0.0209
     10 C           3.8116   -0.9134   26.2367 C.3     1  UNL1        0.0716
     11 N           0.7275    1.1639   28.7712 N.3     1  UNL1       -0.2741
     12 C           1.1533    1.9560   29.9717 C.3     1  UNL1        0.0896
     13 C          -0.7262    1.0642   28.4154 C.3     1  UNL1        0.0576
     14 C          -1.5800    0.0008   29.0401 C.3     1  UNL1        0.0173
     15 C          -1.3263    2.0280   27.4351 C.3     1  UNL1        0.0173
     16 C           3.2384    0.6594   24.2499 C.3     1  UNL1        0.0017
     17 C           2.1744    0.4390   23.2159 C.3     1  UNL1        0.0001
     18 C           1.5503   -0.2427   20.7877 C.3     1  UNL1        0.0000
     19 C           2.5519    0.2837   21.7725 C.3     1  UNL1        0.0000
     20 C           3.9310    0.6547   21.3139 C.3     1  UNL1        0.0000
     21 C           7.3259   -2.0197   24.7614 C.3     1  UNL1        0.1759
     22 N           6.9722   -2.4835   23.3795 N.am    1  UNL1       -0.2931
     23 C           6.9071   -1.4973   22.2512 C.2     1  UNL1        0.2462
     24 O           7.1957   -0.0473   22.5048 O.2     1  UNL1       -0.2701
     25 H           6.7828   -3.4351   23.2130 H       1  UNL1        0.1502
     26 C           6.5534   -1.9610   20.8692 C.ar    1  UNL1        0.0533
     27 C           7.4467   -1.6223   19.7128 C.ar    1  UNL1        0.0045
     28 C           7.0930   -2.0860   18.3309 C.ar    1  UNL1        0.0001
     29 C           5.8460   -2.8885   18.1053 C.ar    1  UNL1        0.0039
     30 C           4.9526   -3.2272   19.2616 C.ar    1  UNL1        0.0716
     31 C           5.3064   -2.7635   20.6436 C.ar    1  UNL1        0.0084
     32 C           3.7056   -4.0297   19.0360 C.3     1  UNL1        0.4186
     33 F           2.4585   -4.8322   18.8104 F       1  UNL1       -0.1659
     34 F           4.5269   -5.1429   18.4562 F       1  UNL1       -0.1659
     35 F           2.8843   -2.9165   19.6159 F       1  UNL1       -0.1659
@<TRIPOS>BOND
     1    18    19    1
     2    19    20    1
     3    19    17    1
     4    17    16    1
     5     5    16    1
     6     5     6    1
     7     6     7    1
     8     7    11    1
     9    11    12    1
    10    11    13    1
    11    13    14    1
    12    13    15    1
    13     7     8    1
    14     8     9    1
    15     9    10    1
    16    10     1    1
    17     1     2   am
    18     2     3    2
    19     2    21    1
    20    21    22    1
    21    22    23   am
    22    23    24    2
    23    23    26    1
    24    26    27   ar
    25    27    28   ar
    26    28    29   ar
    27    29    30   ar
    28    30    32    1
    29    32    33    1
    30    32    34    1
    31    32    35    1
    32    30    31   ar
    33    10     5    1
    34    31    26   ar
    35     1     4    1
    36    22    25    1
