@<TRIPOS>MOLECULE
*****
 35 38 0 0 0
SMALL
GASTEIGER

@<TRIPOS>ATOM
      1 N           6.8336   -2.0747   22.2581 N.am    1  UNL1       -0.2438
      2 C           6.1562   -0.7747   21.9399 C.3     1  UNL1        0.1009
      3 C           4.9530   -0.7555   21.0443 C.3     1  UNL1        0.0662
      4 C           4.4272   -2.0362   20.4669 C.3     1  UNL1        0.1600
      5 O           5.1046   -3.3361   20.7851 O.3     1  UNL1       -0.4374
      6 C           6.3078   -3.3554   21.6807 C.2     1  UNL1        0.4051
      7 O           6.9851   -4.6554   21.9989 O.2     1  UNL1       -0.2262
      8 C           3.4493   -1.0637   19.8771 C.ar    1  UNL1        0.0138
      9 C           2.0018   -1.1273   20.2649 C.ar    1  UNL1       -0.0010
     10 C           1.0238   -0.1547   19.6750 C.ar    1  UNL1       -0.0002
     11 C           1.4936    0.8814   18.6974 C.ar    1  UNL1       -0.0000
     12 C           2.9411    0.9450   18.3096 C.ar    1  UNL1       -0.0002
     13 C           3.9190   -0.0275   18.8994 C.ar    1  UNL1       -0.0010
     14 C           8.0367   -2.0940   23.1536 C.3     1  UNL1        0.1011
     15 C           9.3785   -1.6937   22.6158 C.3     1  UNL1        0.0265
     16 C           7.6206   -3.3526   27.4539 C.ar    1  UNL1        0.0001
     17 C           6.9282   -2.1154   26.9642 C.ar    1  UNL1       -0.0003
     18 C           7.0669   -1.6958   25.5308 C.ar    1  UNL1       -0.0027
     19 C           7.8980   -2.5135   24.5870 C.ar    1  UNL1       -0.0042
     20 C           8.5904   -3.7508   25.0767 C.ar    1  UNL1       -0.0027
     21 C           8.4517   -4.1703   26.5102 C.ar    1  UNL1       -0.0003
     22 C           5.5320   -2.6651   32.1619 C.3     1  UNL1        0.0521
     23 C           6.4376   -3.4283   31.2414 C.ar    1  UNL1        0.0590
     24 C           6.5763   -3.0089   29.8080 C.ar    1  UNL1        0.0147
     25 C           7.4819   -3.7721   28.8874 C.ar    1  UNL1        0.0023
     26 C           8.2488   -4.9548   29.4003 C.ar    1  UNL1        0.0147
     27 C           8.1100   -5.3743   30.8338 C.ar    1  UNL1        0.0590
     28 C           8.8769   -6.5570   31.3467 C.3     1  UNL1        0.0521
     29 N           7.2044   -4.6110   31.7543 N.ar    1  UNL1       -0.2540
     30 C           3.5618   -2.9791   19.6847 C.3     1  UNL1        0.0714
     31 C           4.1786   -4.1433   18.9676 C.3     1  UNL1        0.0922
     32 C           5.0732   -3.2048   18.2134 C.3     1  UNL1        0.0294
     33 C           3.2840   -5.0819   19.7218 C.3     1  UNL1        0.0294
     34 O           4.7954   -5.3076   18.2505 O.3     1  UNL1       -0.3866
     35 H           5.4737   -4.9864   17.6361 H       1  UNL1        0.2102
@<TRIPOS>BOND
     1    22    23    1
     2    23    24   ar
     3    24    25   ar
     4    25    16    1
     5    16    17   ar
     6    17    18   ar
     7    18    19   ar
     8    19    14    1
     9    14    15    1
    10    14     1    1
    11     1     2    1
    12     2     3    1
    13     3     4    1
    14     4    30    1
    15    30    31    1
    16    31    32    1
    17    31    33    1
    18    31    34    1
    19     4     8    1
    20     8     9   ar
    21     9    10   ar
    22    10    11   ar
    23    11    12   ar
    24    12    13   ar
    25     4     5    1
    26     5     6    1
    27     6     7    2
    28    19    20   ar
    29    20    21   ar
    30    25    26   ar
    31    26    27   ar
    32    27    28    1
    33    27    29   ar
    34    29    23   ar
    35    21    16   ar
    36     6     1   am
    37    13     8   ar
    38    34    35    1
@<TRIPOS>MOLECULE
*****
 35 38 0 0 0
SMALL
GASTEIGER

@<TRIPOS>ATOM
      1 N           6.8332   -2.0718   22.2720 N.am    1  UNL1       -0.2438
      2 C           6.1550   -0.7723   21.9533 C.3     1  UNL1        0.1009
      3 C           4.9533   -0.7539   21.0557 C.3     1  UNL1        0.0662
      4 C           4.4298   -2.0349   20.4769 C.3     1  UNL1        0.1600
      5 O           5.1080   -3.3343   20.7956 O.3     1  UNL1       -0.4374
      6 C           6.3098   -3.3527   21.6931 C.2     1  UNL1        0.4051
      7 O           6.9879   -4.6521   22.0118 O.2     1  UNL1       -0.2262
      8 C           3.4519   -1.0631   19.8859 C.ar    1  UNL1        0.0138
      9 C           2.0075   -1.1153   20.2867 C.ar    1  UNL1       -0.0010
     10 C           1.0295   -0.1435   19.6957 C.ar    1  UNL1       -0.0002
     11 C           1.4961    0.8804   18.7038 C.ar    1  UNL1       -0.0000
     12 C           2.9405    0.9326   18.3029 C.ar    1  UNL1       -0.0002
     13 C           3.9185   -0.0392   18.8939 C.ar    1  UNL1       -0.0010
     14 C           8.0349   -2.0902   23.1695 C.3     1  UNL1        0.1011
     15 C           9.3768   -1.6862   22.6347 C.3     1  UNL1        0.0265
     16 C           7.6141   -3.3574   27.4669 C.ar    1  UNL1        0.0001
     17 C           6.8294   -2.1884   26.9494 C.ar    1  UNL1       -0.0003
     18 C           6.9697   -1.7660   25.5170 C.ar    1  UNL1       -0.0027
     19 C           7.8946   -2.5126   24.6020 C.ar    1  UNL1       -0.0042
     20 C           8.6793   -3.6816   25.1194 C.ar    1  UNL1       -0.0027
     21 C           8.5390   -4.1040   26.5519 C.ar    1  UNL1       -0.0003
     22 C           8.8560   -6.5777   31.3511 C.3     1  UNL1        0.0521
     23 C           8.0948   -5.3899   30.8414 C.ar    1  UNL1        0.0590
     24 C           8.2351   -4.9675   29.4090 C.ar    1  UNL1        0.0147
     25 C           7.4738   -3.7798   28.8994 C.ar    1  UNL1        0.0023
     26 C           6.5723   -3.0144   29.8221 C.ar    1  UNL1        0.0147
     27 C           6.4321   -3.4368   31.2545 C.ar    1  UNL1        0.0590
     28 C           5.5306   -2.6715   32.1774 C.3     1  UNL1        0.0521
     29 N           7.1933   -4.6246   31.7642 N.ar    1  UNL1       -0.2540
     30 C           3.5668   -2.9784   19.6928 C.3     1  UNL1        0.0714
     31 C           4.1862   -4.1403   18.9743 C.3     1  UNL1        0.0922
     32 C           5.0745   -3.1983   18.2168 C.3     1  UNL1        0.0294
     33 C           3.2980   -5.0823   19.7316 C.3     1  UNL1        0.0294
     34 O           4.8057   -5.3022   18.2557 O.3     1  UNL1       -0.3866
     35 H           5.4808   -4.9784   17.6390 H       1  UNL1        0.2102
@<TRIPOS>BOND
     1    22    23    1
     2    23    24   ar
     3    24    25   ar
     4    25    16    1
     5    16    17   ar
     6    17    18   ar
     7    18    19   ar
     8    19    14    1
     9    14    15    1
    10    14     1    1
    11     1     2    1
    12     2     3    1
    13     3     4    1
    14     4    30    1
    15    30    31    1
    16    31    32    1
    17    31    33    1
    18    31    34    1
    19     4     8    1
    20     8     9   ar
    21     9    10   ar
    22    10    11   ar
    23    11    12   ar
    24    12    13   ar
    25     4     5    1
    26     5     6    1
    27     6     7    2
    28    19    20   ar
    29    20    21   ar
    30    25    26   ar
    31    26    27   ar
    32    27    28    1
    33    27    29   ar
    34    29    23   ar
    35    21    16   ar
    36     6     1   am
    37    13     8   ar
    38    34    35    1
@<TRIPOS>MOLECULE
*****
 35 38 0 0 0
SMALL
GASTEIGER

@<TRIPOS>ATOM
      1 N          -0.9686    3.5295   19.7447 N.am    1  UNL1       -0.2438
      2 C          -1.0167    3.6362   21.2401 C.3     1  UNL1        0.1009
      3 C          -2.3116    3.9517   21.9283 C.3     1  UNL1        0.0662
      4 C          -3.5585    4.1605   21.1210 C.3     1  UNL1        0.1600
      5 O          -3.5104    4.0539   19.6256 O.3     1  UNL1       -0.4374
      6 C          -2.2155    3.7383   18.9374 C.2     1  UNL1        0.4051
      7 O          -2.1674    3.6316   17.4420 O.2     1  UNL1       -0.2262
      8 C          -4.1056    4.3643   22.5027 C.ar    1  UNL1        0.0138
      9 C          -4.0134    5.7121   23.1546 C.ar    1  UNL1       -0.0010
     10 C          -4.5605    5.9159   24.5364 C.ar    1  UNL1       -0.0002
     11 C          -5.1997    4.7718   25.2661 C.ar    1  UNL1       -0.0000
     12 C          -5.2920    3.4241   24.6142 C.ar    1  UNL1       -0.0002
     13 C          -4.7449    3.2203   23.2325 C.ar    1  UNL1       -0.0010
     14 C           0.3263    3.2139   19.0565 C.3     1  UNL1        0.1011
     15 C           0.8685    4.1465   18.0142 C.3     1  UNL1        0.0265
     16 C           2.5847   -0.5305   20.1192 C.ar    1  UNL1        0.0001
     17 C           1.0875   -0.5069   20.2080 C.ar    1  UNL1       -0.0003
     18 C           0.3347    0.7412   19.8538 C.ar    1  UNL1       -0.0027
     19 C           1.0791    1.9658   19.4107 C.ar    1  UNL1       -0.0042
     20 C           2.5763    1.9422   19.3219 C.ar    1  UNL1       -0.0027
     21 C           3.3291    0.6940   19.6761 C.ar    1  UNL1       -0.0003
     22 C           4.4442   -5.1955   18.7851 C.3     1  UNL1        0.0521
     23 C           4.2672   -4.1112   19.8063 C.ar    1  UNL1        0.0590
     24 C           3.5145   -2.8630   19.4522 C.ar    1  UNL1        0.0147
     25 C           3.3375   -1.7787   20.4734 C.ar    1  UNL1        0.0023
     26 C           3.9132   -1.9425   21.8487 C.ar    1  UNL1        0.0147
     27 C           4.6659   -3.1906   22.2029 C.ar    1  UNL1        0.0590
     28 C           5.2417   -3.3545   23.5783 C.3     1  UNL1        0.0521
     29 N           4.8430   -4.2750   21.1817 N.ar    1  UNL1       -0.2540
     30 C          -4.9953    4.4402   20.7935 C.3     1  UNL1        0.0714
     31 C          -5.3939    4.7658   19.3846 C.3     1  UNL1        0.0922
     32 C          -4.9271    6.1780   19.5789 C.3     1  UNL1        0.0294
     33 C          -5.8606    3.3536   19.1902 C.3     1  UNL1        0.0294
     34 O          -5.7924    5.0914   17.9756 O.3     1  UNL1       -0.3866
     35 H          -5.5937    6.0226   17.7903 H       1  UNL1        0.2102
@<TRIPOS>BOND
     1    22    23    1
     2    23    24   ar
     3    24    25   ar
     4    25    16    1
     5    16    17   ar
     6    17    18   ar
     7    18    19   ar
     8    19    14    1
     9    14    15    1
    10    14     1    1
    11     1     2    1
    12     2     3    1
    13     3     4    1
    14     4    30    1
    15    30    31    1
    16    31    32    1
    17    31    33    1
    18    31    34    1
    19     4     8    1
    20     8     9   ar
    21     9    10   ar
    22    10    11   ar
    23    11    12   ar
    24    12    13   ar
    25     4     5    1
    26     5     6    1
    27     6     7    2
    28    19    20   ar
    29    20    21   ar
    30    25    26   ar
    31    26    27   ar
    32    27    28    1
    33    27    29   ar
    34    29    23   ar
    35    21    16   ar
    36     6     1   am
    37    13     8   ar
    38    34    35    1
@<TRIPOS>MOLECULE
*****
 35 38 0 0 0
SMALL
GASTEIGER

@<TRIPOS>ATOM
      1 N          -1.1264    3.4484   20.1703 N.am    1  UNL1       -0.2438
      2 C          -2.6147    3.4591   19.9828 C.3     1  UNL1        0.1009
      3 C          -3.4989    4.0596   21.0351 C.3     1  UNL1        0.0662
      4 C          -2.8950    4.6494   22.2750 C.3     1  UNL1        0.1600
      5 O          -1.4069    4.6386   22.4627 O.3     1  UNL1       -0.4374
      6 C          -0.5225    4.0381   21.4103 C.2     1  UNL1        0.4051
      7 O           0.9656    4.0274   21.5979 O.2     1  UNL1       -0.2262
      8 C          -4.3488    4.8945   22.5514 C.ar    1  UNL1        0.0138
      9 C          -5.3273    3.7598   22.4810 C.ar    1  UNL1       -0.0010
     10 C          -6.7812    4.0049   22.7573 C.ar    1  UNL1       -0.0002
     11 C          -7.2564    5.3848   23.1040 C.ar    1  UNL1       -0.0000
     12 C          -6.2779    6.5194   23.1744 C.ar    1  UNL1       -0.0002
     13 C          -4.8241    6.2743   22.8980 C.ar    1  UNL1       -0.0010
     14 C          -0.2422    2.8479   19.1180 C.3     1  UNL1        0.1011
     15 C          -0.2195    3.4300   17.7358 C.3     1  UNL1        0.0265
     16 C           2.3429   -0.7001   20.1078 C.ar    1  UNL1        0.0001
     17 C           2.8034    0.3035   19.0926 C.ar    1  UNL1       -0.0003
     18 C           1.9418    1.4862   18.7627 C.ar    1  UNL1       -0.0027
     19 C           0.6195    1.6652   19.4479 C.ar    1  UNL1       -0.0042
     20 C           0.1589    0.6616   20.4631 C.ar    1  UNL1       -0.0027
     21 C           1.0206   -0.5211   20.7930 C.ar    1  UNL1       -0.0003
     22 C           5.2605   -3.3337   23.5065 C.3     1  UNL1        0.0521
     23 C           4.6634   -3.1995   22.1371 C.ar    1  UNL1        0.0590
     24 C           3.8017   -2.0169   21.8071 C.ar    1  UNL1        0.0147
     25 C           3.2046   -1.8828   20.4377 C.ar    1  UNL1        0.0023
     26 C           3.4692   -2.9312   19.3981 C.ar    1  UNL1        0.0147
     27 C           4.3308   -4.1138   19.7281 C.ar    1  UNL1        0.0590
     28 C           4.5954   -5.1624   18.6885 C.3     1  UNL1        0.0521
     29 N           4.9280   -4.2480   21.0975 N.ar    1  UNL1       -0.2540
     30 C          -2.7960    5.3242   23.6109 C.3     1  UNL1        0.0714
     31 C          -1.7694    4.8708   24.6060 C.3     1  UNL1        0.0922
     32 C          -2.4217    3.5213   24.6641 C.3     1  UNL1        0.0294
     33 C          -1.1170    6.2202   24.5481 C.3     1  UNL1        0.0294
     34 O          -0.7426    4.4173   25.6012 O.3     1  UNL1       -0.3866
     35 H          -0.9190    3.4968   25.8511 H       1  UNL1        0.2102
@<TRIPOS>BOND
     1    22    23    1
     2    23    24   ar
     3    24    25   ar
     4    25    16    1
     5    16    17   ar
     6    17    18   ar
     7    18    19   ar
     8    19    14    1
     9    14    15    1
    10    14     1    1
    11     1     2    1
    12     2     3    1
    13     3     4    1
    14     4    30    1
    15    30    31    1
    16    31    32    1
    17    31    33    1
    18    31    34    1
    19     4     8    1
    20     8     9   ar
    21     9    10   ar
    22    10    11   ar
    23    11    12   ar
    24    12    13   ar
    25     4     5    1
    26     5     6    1
    27     6     7    2
    28    19    20   ar
    29    20    21   ar
    30    25    26   ar
    31    26    27   ar
    32    27    28    1
    33    27    29   ar
    34    29    23   ar
    35    21    16   ar
    36     6     1   am
    37    13     8   ar
    38    34    35    1
@<TRIPOS>MOLECULE
*****
 35 38 0 0 0
SMALL
GASTEIGER

@<TRIPOS>ATOM
      1 N          -1.0644    3.4507   19.9819 N.am    1  UNL1       -0.2438
      2 C          -0.9545    3.5254   21.4761 C.3     1  UNL1        0.1009
      3 C          -2.1579    3.8762   22.2999 C.3     1  UNL1        0.0662
      4 C          -3.4711    4.1524   21.6298 C.3     1  UNL1        0.1600
      5 O          -3.5810    4.0777   20.1357 O.3     1  UNL1       -0.4374
      6 C          -2.3776    3.7269   19.3117 C.2     1  UNL1        0.4051
      7 O          -2.4875    3.6522   17.8176 O.2     1  UNL1       -0.2262
      8 C          -3.8648    4.3463   23.0641 C.ar    1  UNL1        0.0138
      9 C          -3.1537    5.3640   23.9060 C.ar    1  UNL1       -0.0010
     10 C          -3.5474    5.5579   25.3404 C.ar    1  UNL1       -0.0002
     11 C          -4.6521    4.7342   25.9328 C.ar    1  UNL1       -0.0000
     12 C          -5.3632    3.7166   25.0910 C.ar    1  UNL1       -0.0002
     13 C          -4.9695    3.5226   23.6566 C.ar    1  UNL1       -0.0010
     14 C           0.1389    3.0999   19.1580 C.3     1  UNL1        0.1011
     15 C           0.5453    3.9783   18.0120 C.3     1  UNL1        0.0265
     16 C           2.5299   -0.5879   20.1243 C.ar    1  UNL1        0.0001
     17 C           3.2016    0.5993   19.5002 C.ar    1  UNL1       -0.0003
     18 C           2.4047    1.8285   19.1781 C.ar    1  UNL1       -0.0027
     19 C           0.9359    1.8706   19.4801 C.ar    1  UNL1       -0.0042
     20 C           0.2642    0.6834   20.1041 C.ar    1  UNL1       -0.0027
     21 C           1.0613   -0.5458   20.4262 C.ar    1  UNL1       -0.0003
     22 C           5.3029   -3.3953   23.5050 C.3     1  UNL1        0.0521
     23 C           4.7134   -3.2208   22.1367 C.ar    1  UNL1        0.0590
     24 C           3.9164   -1.9916   21.8146 C.ar    1  UNL1        0.0147
     25 C           3.3270   -1.8172   20.4464 C.ar    1  UNL1        0.0023
     26 C           3.5346   -2.8719   19.4002 C.ar    1  UNL1        0.0147
     27 C           4.3316   -4.1010   19.7223 C.ar    1  UNL1        0.0590
     28 C           4.5392   -5.1558   18.6762 C.3     1  UNL1        0.0521
     29 N           4.9210   -4.2755   21.0906 N.ar    1  UNL1       -0.2540
     30 C          -4.9210    4.4959   21.4577 C.3     1  UNL1        0.0714
     31 C          -5.3730    5.2564   20.2464 C.3     1  UNL1        0.0922
     32 C          -6.1535    4.0607   19.7870 C.3     1  UNL1        0.0294
     33 C          -4.5925    6.4521   20.7057 C.3     1  UNL1        0.0294
     34 O          -5.8250    6.0169   19.0350 O.3     1  UNL1       -0.3866
     35 H          -6.3983    5.4518   18.4938 H       1  UNL1        0.2102
@<TRIPOS>BOND
     1    22    23    1
     2    23    24   ar
     3    24    25   ar
     4    25    16    1
     5    16    17   ar
     6    17    18   ar
     7    18    19   ar
     8    19    14    1
     9    14    15    1
    10    14     1    1
    11     1     2    1
    12     2     3    1
    13     3     4    1
    14     4    30    1
    15    30    31    1
    16    31    32    1
    17    31    33    1
    18    31    34    1
    19     4     8    1
    20     8     9   ar
    21     9    10   ar
    22    10    11   ar
    23    11    12   ar
    24    12    13   ar
    25     4     5    1
    26     5     6    1
    27     6     7    2
    28    19    20   ar
    29    20    21   ar
    30    25    26   ar
    31    26    27   ar
    32    27    28    1
    33    27    29   ar
    34    29    23   ar
    35    21    16   ar
    36     6     1   am
    37    13     8   ar
    38    34    35    1
@<TRIPOS>MOLECULE
*****
 35 38 0 0 0
SMALL
GASTEIGER

@<TRIPOS>ATOM
      1 N           1.1912    2.3583   18.4935 N.am    1  UNL1       -0.2438
      2 C           1.0491    0.8677   18.4035 C.3     1  UNL1        0.1009
      3 C           2.2525   -0.0119   18.5712 C.3     1  UNL1        0.0662
      4 C           3.5980    0.5990   18.8289 C.3     1  UNL1        0.1600
      5 O           3.7401    2.0896   18.9189 O.3     1  UNL1       -0.4374
      6 C           2.5367    2.9692   18.7512 C.2     1  UNL1        0.4051
      7 O           2.6788    4.4597   18.8413 O.2     1  UNL1       -0.2262
      8 C           3.9678   -0.8547   18.8283 C.ar    1  UNL1        0.0138
      9 C           5.1555   -1.3261   18.0429 C.ar    1  UNL1       -0.0010
     10 C           5.5253   -2.7799   18.0423 C.ar    1  UNL1       -0.0002
     11 C           4.7072   -3.7621   18.8271 C.ar    1  UNL1       -0.0000
     12 C           3.5194   -3.2906   19.6126 C.ar    1  UNL1       -0.0002
     13 C           3.1497   -1.8369   19.6132 C.ar    1  UNL1       -0.0010
     14 C          -0.0122    3.2379   18.3258 C.3     1  UNL1        0.1011
     15 C          -0.2431    3.9535   17.0279 C.3     1  UNL1        0.0265
     16 C          -2.9293    3.7300   21.7167 C.ar    1  UNL1        0.0001
     17 C          -1.5331    3.2556   21.9914 C.ar    1  UNL1       -0.0003
     18 C          -0.5607    3.0916   20.8611 C.ar    1  UNL1       -0.0027
     19 C          -0.9845    3.4019   19.4561 C.ar    1  UNL1       -0.0042
     20 C          -2.3808    3.8763   19.1814 C.ar    1  UNL1       -0.0027
     21 C          -3.3532    4.0403   20.3117 C.ar    1  UNL1       -0.0003
     22 C          -3.9095    3.9360   26.8154 C.3     1  UNL1        0.0521
     23 C          -4.3918    3.9970   25.3964 C.ar    1  UNL1        0.0590
     24 C          -3.4195    3.8330   24.2660 C.ar    1  UNL1        0.0147
     25 C          -3.9018    3.8940   22.8470 C.ar    1  UNL1        0.0023
     26 C          -5.3564    4.1190   22.5583 C.ar    1  UNL1        0.0147
     27 C          -6.3287    4.2830   23.6886 C.ar    1  UNL1        0.0590
     28 C          -7.7834    4.5080   23.3999 C.3     1  UNL1        0.0521
     29 N          -5.8464    4.2220   25.1076 N.ar    1  UNL1       -0.2540
     30 C           5.0719    0.7051   19.0864 C.3     1  UNL1        0.0714
     31 C           5.5884    1.6898   20.0931 C.3     1  UNL1        0.0922
     32 C           4.7443    1.0479   21.1540 C.3     1  UNL1        0.0294
     33 C           6.4325    2.3317   19.0323 C.3     1  UNL1        0.0294
     34 O           6.1050    2.6745   21.1000 O.3     1  UNL1       -0.3866
     35 H           5.7017    2.4954   21.9638 H       1  UNL1        0.2102
@<TRIPOS>BOND
     1    22    23    1
     2    23    24   ar
     3    24    25   ar
     4    25    16    1
     5    16    17   ar
     6    17    18   ar
     7    18    19   ar
     8    19    14    1
     9    14    15    1
    10    14     1    1
    11     1     2    1
    12     2     3    1
    13     3     4    1
    14     4    30    1
    15    30    31    1
    16    31    32    1
    17    31    33    1
    18    31    34    1
    19     4     8    1
    20     8     9   ar
    21     9    10   ar
    22    10    11   ar
    23    11    12   ar
    24    12    13   ar
    25     4     5    1
    26     5     6    1
    27     6     7    2
    28    19    20   ar
    29    20    21   ar
    30    25    26   ar
    31    26    27   ar
    32    27    28    1
    33    27    29   ar
    34    29    23   ar
    35    21    16   ar
    36     6     1   am
    37    13     8   ar
    38    34    35    1
@<TRIPOS>MOLECULE
*****
 35 38 0 0 0
SMALL
GASTEIGER

@<TRIPOS>ATOM
      1 N           5.7640   -2.0571   23.1325 N.am    1  UNL1       -0.2438
      2 C           5.0166   -0.8133   22.7522 C.3     1  UNL1        0.1009
      3 C           4.1289   -0.8119   21.5431 C.3     1  UNL1        0.0662
      4 C           3.9887   -2.0541   20.7141 C.3     1  UNL1        0.1600
      5 O           4.7361   -3.2978   21.0943 O.3     1  UNL1       -0.4374
      6 C           5.6238   -3.2993   22.3035 C.2     1  UNL1        0.4051
      7 O           6.3712   -4.5430   22.6837 O.2     1  UNL1       -0.2262
      8 C           3.0834   -1.1304   19.9544 C.ar    1  UNL1        0.0138
      9 C           1.6910   -0.8710   20.4483 C.ar    1  UNL1       -0.0010
     10 C           0.7857    0.0528   19.6885 C.ar    1  UNL1       -0.0002
     11 C           1.2729    0.7170   18.4350 C.ar    1  UNL1       -0.0000
     12 C           2.6652    0.4576   17.9411 C.ar    1  UNL1       -0.0002
     13 C           3.5705   -0.4661   18.7008 C.ar    1  UNL1       -0.0010
     14 C           6.6517   -2.0585   24.3416 C.3     1  UNL1        0.1011
     15 C           8.1107   -2.3767   24.2005 C.3     1  UNL1        0.0265
     16 C           4.9374   -1.1081   28.3923 C.ar    1  UNL1        0.0001
     17 C           6.4212   -1.0639   28.1766 C.ar    1  UNL1       -0.0003
     18 C           6.9926   -1.3807   26.8264 C.ar    1  UNL1       -0.0027
     19 C           6.0803   -1.7417   25.6918 C.ar    1  UNL1       -0.0042
     20 C           4.5965   -1.7860   25.9074 C.ar    1  UNL1       -0.0027
     21 C           4.0251   -1.4691   27.2577 C.ar    1  UNL1       -0.0003
     22 C           1.6351    1.5906   31.3607 C.3     1  UNL1        0.0521
     23 C           2.7149    0.5580   31.2267 C.ar    1  UNL1        0.0590
     24 C           3.2863    0.2412   29.8765 C.ar    1  UNL1        0.0147
     25 C           4.3660   -0.7913   29.7426 C.ar    1  UNL1        0.0023
     26 C           4.8744   -1.5070   30.9588 C.ar    1  UNL1        0.0147
     27 C           4.3030   -1.1902   32.3090 C.ar    1  UNL1        0.0590
     28 C           4.8114   -1.9060   33.5253 C.3     1  UNL1        0.0521
     29 N           3.2232   -0.1577   32.4430 N.ar    1  UNL1       -0.2540
     30 C           3.5341   -2.9755   19.6214 C.3     1  UNL1        0.0714
     31 C           4.3481   -4.1868   19.2745 C.3     1  UNL1        0.0922
     32 C           3.3146   -5.0649   19.9155 C.3     1  UNL1        0.0294
     33 C           5.3816   -3.3088   18.6336 C.3     1  UNL1        0.0294
     34 O           5.1621   -5.3981   18.9277 O.3     1  UNL1       -0.3866
     35 H           4.7075   -6.1945   19.2437 H       1  UNL1        0.2102
@<TRIPOS>BOND
     1    22    23    1
     2    23    24   ar
     3    24    25   ar
     4    25    16    1
     5    16    17   ar
     6    17    18   ar
     7    18    19   ar
     8    19    14    1
     9    14    15    1
    10    14     1    1
    11     1     2    1
    12     2     3    1
    13     3     4    1
    14     4    30    1
    15    30    31    1
    16    31    32    1
    17    31    33    1
    18    31    34    1
    19     4     8    1
    20     8     9   ar
    21     9    10   ar
    22    10    11   ar
    23    11    12   ar
    24    12    13   ar
    25     4     5    1
    26     5     6    1
    27     6     7    2
    28    19    20   ar
    29    20    21   ar
    30    25    26   ar
    31    26    27   ar
    32    27    28    1
    33    27    29   ar
    34    29    23   ar
    35    21    16   ar
    36     6     1   am
    37    13     8   ar
    38    34    35    1
@<TRIPOS>MOLECULE
*****
 35 38 0 0 0
SMALL
GASTEIGER

@<TRIPOS>ATOM
      1 N           1.1942    1.8278   19.0528 N.am    1  UNL1       -0.2438
      2 C           0.9060    0.4146   19.4653 C.3     1  UNL1        0.1009
      3 C           2.0364   -0.5402   19.7111 C.3     1  UNL1        0.0662
      4 C           3.4550   -0.0820   19.5443 C.3     1  UNL1        0.1600
      5 O           3.7431    1.3310   19.1318 O.3     1  UNL1       -0.4374
      6 C           2.6127    2.2860   18.8860 C.2     1  UNL1        0.4051
      7 O           2.9009    3.6990   18.4735 O.2     1  UNL1       -0.2262
      8 C           3.6875   -1.5080   19.9476 C.ar    1  UNL1        0.0138
      9 C           4.0979   -1.8324   21.3533 C.ar    1  UNL1       -0.0010
     10 C           4.3305   -3.2585   21.7566 C.ar    1  UNL1       -0.0002
     11 C           4.1525   -4.3599   20.7540 C.ar    1  UNL1       -0.0000
     12 C           3.7421   -4.0354   19.3482 C.ar    1  UNL1       -0.0002
     13 C           3.5095   -2.6094   18.9450 C.ar    1  UNL1       -0.0010
     14 C           0.0638    2.7826   18.8070 C.3     1  UNL1        0.1011
     15 C          -0.0621    3.4702   17.4798 C.3     1  UNL1        0.0265
     16 C          -2.9497    3.5846   22.0513 C.ar    1  UNL1        0.0001
     17 C          -3.3887    3.5236   20.6183 C.ar    1  UNL1       -0.0003
     18 C          -2.3843    3.2563   19.5369 C.ar    1  UNL1       -0.0027
     19 C          -0.9407    3.0499   19.8884 C.ar    1  UNL1       -0.0042
     20 C          -0.5016    3.1110   21.3214 C.ar    1  UNL1       -0.0027
     21 C          -1.5062    3.3783   22.4029 C.ar    1  UNL1       -0.0003
     22 C          -7.8373    4.5813   23.5066 C.3     1  UNL1        0.0521
     23 C          -6.3981    4.3503   23.8604 C.ar    1  UNL1        0.0590
     24 C          -5.3935    4.0830   22.7790 C.ar    1  UNL1        0.0147
     25 C          -3.9543    3.8519   23.1328 C.ar    1  UNL1        0.0023
     26 C          -3.5195    3.8882   24.5679 C.ar    1  UNL1        0.0147
     27 C          -4.5241    4.1555   25.6493 C.ar    1  UNL1        0.0590
     28 C          -4.0894    4.1918   27.0845 C.3     1  UNL1        0.0521
     29 N          -5.9633    4.3866   25.2955 N.ar    1  UNL1       -0.2540
     30 C           4.9542   -0.1190   19.5176 C.3     1  UNL1        0.0714
     31 C           5.7120    0.8235   18.6302 C.3     1  UNL1        0.0922
     32 C           6.1887    1.5763   19.8369 C.3     1  UNL1        0.0294
     33 C           5.2355    0.0707   17.4235 C.3     1  UNL1        0.0294
     34 O           6.4699    1.7660   17.7428 O.3     1  UNL1       -0.3866
     35 H           6.9238    2.4282   18.2873 H       1  UNL1        0.2102
@<TRIPOS>BOND
     1    22    23    1
     2    23    24   ar
     3    24    25   ar
     4    25    16    1
     5    16    17   ar
     6    17    18   ar
     7    18    19   ar
     8    19    14    1
     9    14    15    1
    10    14     1    1
    11     1     2    1
    12     2     3    1
    13     3     4    1
    14     4    30    1
    15    30    31    1
    16    31    32    1
    17    31    33    1
    18    31    34    1
    19     4     8    1
    20     8     9   ar
    21     9    10   ar
    22    10    11   ar
    23    11    12   ar
    24    12    13   ar
    25     4     5    1
    26     5     6    1
    27     6     7    2
    28    19    20   ar
    29    20    21   ar
    30    25    26   ar
    31    26    27   ar
    32    27    28    1
    33    27    29   ar
    34    29    23   ar
    35    21    16   ar
    36     6     1   am
    37    13     8   ar
    38    34    35    1
@<TRIPOS>MOLECULE
*****
 35 38 0 0 0
SMALL
GASTEIGER

@<TRIPOS>ATOM
      1 N           3.0024    0.8668   23.2667 N.am    1  UNL1       -0.2438
      2 C           2.9672   -0.6139   23.0290 C.3     1  UNL1        0.1009
      3 C           3.5165   -1.1821   21.7542 C.3     1  UNL1        0.0662
      4 C           4.1011   -0.2697   20.7169 C.3     1  UNL1        0.1600
      5 O           4.1363    1.2109   20.9545 O.3     1  UNL1       -0.4374
      6 C           3.5869    1.7792   22.2294 C.2     1  UNL1        0.4051
      7 O           3.6221    3.2598   22.4670 O.2     1  UNL1       -0.2262
      8 C           4.2919   -1.5931   20.0371 C.ar    1  UNL1        0.0138
      9 C           3.1270   -2.5219   19.8633 C.ar    1  UNL1       -0.0010
     10 C           3.3178   -3.8454   19.1834 C.ar    1  UNL1       -0.0002
     11 C           4.6736   -4.2399   18.6774 C.ar    1  UNL1       -0.0000
     12 C           5.8386   -3.3111   18.8512 C.ar    1  UNL1       -0.0002
     13 C           5.6477   -1.9877   19.5310 C.ar    1  UNL1       -0.0010
     14 C           2.4530    1.4351   24.5415 C.3     1  UNL1        0.1011
     15 C           3.3004    1.4577   25.7790 C.3     1  UNL1        0.0265
     16 C          -1.7372    3.0720   24.6535 C.ar    1  UNL1        0.0001
     17 C          -1.1334    2.4713   25.8883 C.ar    1  UNL1       -0.0003
     18 C           0.2633    1.9256   25.8510 C.ar    1  UNL1       -0.0027
     19 C           1.0563    1.9807   24.5788 C.ar    1  UNL1       -0.0042
     20 C           0.4525    2.5814   23.3441 C.ar    1  UNL1       -0.0027
     21 C          -0.9443    3.1270   23.3815 C.ar    1  UNL1       -0.0003
     22 C          -5.5685    5.4589   27.2271 C.3     1  UNL1        0.0521
     23 C          -5.0496    4.8111   25.9777 C.ar    1  UNL1        0.0590
     24 C          -3.6529    4.2654   25.9403 C.ar    1  UNL1        0.0147
     25 C          -3.1340    3.6176   24.6909 C.ar    1  UNL1        0.0023
     26 C          -4.0118    3.5154   23.4789 C.ar    1  UNL1        0.0147
     27 C          -5.4085    4.0610   23.5163 C.ar    1  UNL1        0.0590
     28 C          -6.2864    3.9588   22.3043 C.3     1  UNL1        0.0521
     29 N          -5.9274    4.7089   24.7657 N.ar    1  UNL1       -0.2540
     30 C           4.7519    0.1831   19.4436 C.3     1  UNL1        0.0714
     31 C           4.3128    1.4595   18.7896 C.3     1  UNL1        0.0922
     32 C           2.9540    0.8703   18.5520 C.3     1  UNL1        0.0294
     33 C           5.6716    2.0488   19.0271 C.3     1  UNL1        0.0294
     34 O           3.8736    2.7361   18.1355 O.3     1  UNL1       -0.3866
     35 H           2.9505    2.6520   17.8496 H       1  UNL1        0.2102
@<TRIPOS>BOND
     1    22    23    1
     2    23    24   ar
     3    24    25   ar
     4    25    16    1
     5    16    17   ar
     6    17    18   ar
     7    18    19   ar
     8    19    14    1
     9    14    15    1
    10    14     1    1
    11     1     2    1
    12     2     3    1
    13     3     4    1
    14     4    30    1
    15    30    31    1
    16    31    32    1
    17    31    33    1
    18    31    34    1
    19     4     8    1
    20     8     9   ar
    21     9    10   ar
    22    10    11   ar
    23    11    12   ar
    24    12    13   ar
    25     4     5    1
    26     5     6    1
    27     6     7    2
    28    19    20   ar
    29    20    21   ar
    30    25    26   ar
    31    26    27   ar
    32    27    28    1
    33    27    29   ar
    34    29    23   ar
    35    21    16   ar
    36     6     1   am
    37    13     8   ar
    38    34    35    1
