@<TRIPOS>MOLECULE
*****
 37 41 0 0 0
SMALL
GASTEIGER

@<TRIPOS>ATOM
      1 C           3.6839    2.1305   36.7625 C.3     1  UNL1        0.1628
      2 N           5.1217    1.8690   37.1007 N.ar    1  UNL1       -0.3047
      3 C           6.1029    1.1126   36.2551 C.ar    1  UNL1        0.1441
      4 N           7.4183    1.0942   36.9758 N.ar    1  UNL1       -0.2267
      5 C           7.2501    1.8394   38.2667 C.ar    1  UNL1        0.1010
      6 C           8.2060    2.1437   39.3818 C.ar    1  UNL1        0.0526
      7 C           7.7425    2.9268   40.5742 C.ar    1  UNL1        0.1690
      8 F           8.6984    3.2312   41.6894 F       1  UNL1       -0.2017
      9 C           6.3231    3.4057   40.6514 C.ar    1  UNL1        0.1689
     10 F           5.8596    4.1889   41.8439 F       1  UNL1       -0.2017
     11 C           5.3672    3.1014   39.5363 C.ar    1  UNL1        0.0507
     12 C           5.8307    2.3182   38.3439 C.ar    1  UNL1        0.0816
     13 C           5.8186    0.4847   34.9229 C.ar    1  UNL1        0.0342
     14 C           6.3508    1.1126   33.6689 C.ar    1  UNL1        0.0039
     15 C           6.0665    0.4847   32.3367 C.ar    1  UNL1        0.0115
     16 C           5.2500   -0.7710   32.2583 C.ar    1  UNL1        0.0577
     17 CL          4.9657   -1.3989   30.9260 Cl      1  UNL1       -0.0822
     18 C           4.7177   -1.3990   33.5122 C.ar    1  UNL1        0.0115
     19 C           5.0020   -0.7711   34.8445 C.ar    1  UNL1        0.0039
     20 C           2.6185    1.9106   37.7951 C.3     1  UNL1        0.0297
     21 C           1.6601    3.0146   38.1308 C.3     1  UNL1        0.0024
     22 C           0.5946    2.7948   39.1635 C.3     1  UNL1        0.0001
     23 C           0.4875    1.4709   39.8605 C.3     1  UNL1        0.0000
     24 C           1.4459    0.3669   39.5248 C.3     1  UNL1        0.0001
     25 C           2.5114    0.5867   38.4922 C.3     1  UNL1        0.0024
     26 O           3.8490    3.6732   34.4779 O.2     1  UNL1       -0.2731
     27 C           3.3115    2.6118   35.3914 C.2     1  UNL1        0.2431
     28 N           2.1666    1.9771   34.6590 N.am    1  UNL1       -0.3044
     29 H           1.6596    1.2447   35.0781 H       1  UNL1        0.1494
     30 C           1.7942    2.4585   33.2880 C.3     1  UNL1        0.0718
     31 C           2.2422    1.6943   32.0775 C.3     1  UNL1        0.0220
     32 C           1.8699    2.1757   30.7064 C.3     1  UNL1        0.0309
     33 C           1.0496    3.4212   30.5459 C.3     1  UNL1        0.1106
     34 O           0.6773    3.9026   29.1749 O.3     1  UNL1       -0.3845
     35 C           0.6017    4.1854   31.7565 C.3     1  UNL1        0.0309
     36 C           0.9740    3.7040   33.1275 C.3     1  UNL1        0.0220
     37 H           0.1506    4.7137   29.2490 H       1  UNL1        0.2103
@<TRIPOS>BOND
     1    26    27    2
     2    27    28   am
     3    30    28    1
     4    30    31    1
     5    31    32    1
     6    32    33    1
     7    33    34    1
     8    33    35    1
     9    35    36    1
    10    27     1    1
    11     1    20    1
    12    20    21    1
    13    21    22    1
    14    22    23    1
    15    23    24    1
    16    24    25    1
    17     1     2    1
    18     2     3   ar
    19     3    13    1
    20    13    14   ar
    21    14    15   ar
    22    15    16   ar
    23    16    17    1
    24    16    18   ar
    25    18    19   ar
    26     3     4   ar
    27     4     5   ar
    28     5     6   ar
    29     6     7   ar
    30     7     8    1
    31     7     9   ar
    32     9    10    1
    33     9    11   ar
    34    11    12   ar
    35    36    30    1
    36    25    20    1
    37    12     2   ar
    38    19    13   ar
    39    12     5   ar
    40    28    29    1
    41    34    37    1
@<TRIPOS>MOLECULE
*****
 37 41 0 0 0
SMALL
GASTEIGER

@<TRIPOS>ATOM
      1 C          -0.5548    3.7709   23.4379 C.3     1  UNL1        0.1628
      2 N          -1.7396    3.5159   22.5540 N.ar    1  UNL1       -0.3047
      3 C          -1.6969    2.9658   21.1592 C.ar    1  UNL1        0.1441
      4 N          -3.1061    2.8763   20.6530 N.ar    1  UNL1       -0.2267
      5 C          -4.0196    3.3710   21.7350 C.ar    1  UNL1        0.1010
      6 C          -5.5114    3.5126   21.8022 C.ar    1  UNL1        0.0526
      7 C          -6.1586    4.0495   23.0442 C.ar    1  UNL1        0.1690
      8 F          -7.6504    4.1911   23.1114 F       1  UNL1       -0.2017
      9 C          -5.3141    4.4449   24.2191 C.ar    1  UNL1        0.1689
     10 F          -5.9613    4.9818   25.4613 F       1  UNL1       -0.2017
     11 C          -3.8223    4.3033   24.1520 C.ar    1  UNL1        0.0507
     12 C          -3.1751    3.7664   22.9099 C.ar    1  UNL1        0.0816
     13 C          -0.4620    2.5741   20.4033 C.ar    1  UNL1        0.0342
     14 C           0.2374    1.2867   20.7248 C.ar    1  UNL1        0.0039
     15 C           1.4724    0.8949   19.9689 C.ar    1  UNL1        0.0115
     16 C           2.0080    1.7906   18.8915 C.ar    1  UNL1        0.0577
     17 CL          3.2429    1.3988   18.1356 Cl      1  UNL1       -0.0822
     18 C           1.3086    3.0780   18.5700 C.ar    1  UNL1        0.0115
     19 C           0.0737    3.4698   19.3259 C.ar    1  UNL1        0.0039
     20 C           0.2524    5.0236   23.2675 C.3     1  UNL1        0.0297
     21 C           1.5012    5.0040   22.4368 C.3     1  UNL1        0.0024
     22 C           2.3084    6.2568   22.2663 C.3     1  UNL1        0.0001
     23 C           1.8667    7.5292   22.9266 C.3     1  UNL1        0.0000
     24 C           0.6179    7.5488   23.7573 C.3     1  UNL1        0.0001
     25 C          -0.1892    6.2960   23.9277 C.3     1  UNL1        0.0024
     26 O           0.2225    1.3274   24.4636 O.2     1  UNL1       -0.2731
     27 C          -0.1770    2.7730   24.4923 C.2     1  UNL1        0.2431
     28 N          -0.1532    3.1798   25.9358 N.am    1  UNL1       -0.3044
     29 H          -0.3855    4.1018   26.1913 H       1  UNL1        0.1494
     30 C           0.2245    2.1819   26.9901 C.3     1  UNL1        0.0718
     31 C           1.6583    2.0375   27.4066 C.3     1  UNL1        0.0220
     32 C           2.0361    1.0395   28.4609 C.3     1  UNL1        0.0309
     33 C           0.9802    0.1861   29.0987 C.3     1  UNL1        0.1106
     34 O           1.3579   -0.8118   30.1529 O.3     1  UNL1       -0.3845
     35 C          -0.4536    0.3307   28.6821 C.3     1  UNL1        0.0309
     36 C          -0.8314    1.3286   27.6278 C.3     1  UNL1        0.0220
     37 H           0.5629   -1.2764   30.4580 H       1  UNL1        0.2103
@<TRIPOS>BOND
     1    26    27    2
     2    27    28   am
     3    30    28    1
     4    30    31    1
     5    31    32    1
     6    32    33    1
     7    33    34    1
     8    33    35    1
     9    35    36    1
    10    27     1    1
    11     1    20    1
    12    20    21    1
    13    21    22    1
    14    22    23    1
    15    23    24    1
    16    24    25    1
    17     1     2    1
    18     2     3   ar
    19     3    13    1
    20    13    14   ar
    21    14    15   ar
    22    15    16   ar
    23    16    17    1
    24    16    18   ar
    25    18    19   ar
    26     3     4   ar
    27     4     5   ar
    28     5     6   ar
    29     6     7   ar
    30     7     8    1
    31     7     9   ar
    32     9    10    1
    33     9    11   ar
    34    11    12   ar
    35    36    30    1
    36    25    20    1
    37    12     2   ar
    38    19    13   ar
    39    12     5   ar
    40    28    29    1
    41    34    37    1
@<TRIPOS>MOLECULE
*****
 37 41 0 0 0
SMALL
GASTEIGER

@<TRIPOS>ATOM
      1 C          -0.2252    3.3562   22.2581 C.3     1  UNL1        0.1628
      2 N          -1.6885    3.4262   22.5803 N.ar    1  UNL1       -0.3047
      3 C          -2.2890    3.4404   23.9548 C.ar    1  UNL1        0.1441
      4 N          -3.7798    3.5173   23.8084 N.ar    1  UNL1       -0.2267
      5 C          -4.1007    3.5505   22.3435 C.ar    1  UNL1        0.1010
      6 C          -5.4029    3.6247   21.6027 C.ar    1  UNL1        0.0526
      7 C          -5.4125    3.6427   20.1029 C.ar    1  UNL1        0.1690
      8 F          -6.7147    3.7169   19.3620 F       1  UNL1       -0.2017
      9 C          -4.1200    3.5864   19.3439 C.ar    1  UNL1        0.1689
     10 F          -4.1296    3.6043   17.8440 F       1  UNL1       -0.2017
     11 C          -2.8178    3.5121   20.0847 C.ar    1  UNL1        0.0507
     12 C          -2.8082    3.4942   21.5845 C.ar    1  UNL1        0.0816
     13 C          -1.5316    3.3872   25.2484 C.ar    1  UNL1        0.0342
     14 C          -0.9635    2.0859   25.7319 C.ar    1  UNL1        0.0039
     15 C          -0.2061    2.0327   27.0256 C.ar    1  UNL1        0.0115
     16 C          -0.0168    3.2808   27.8357 C.ar    1  UNL1        0.0577
     17 CL          0.7405    3.2275   29.1294 Cl      1  UNL1       -0.0822
     18 C          -0.5850    4.5821   27.3523 C.ar    1  UNL1        0.0115
     19 C          -1.3423    4.6353   26.0586 C.ar    1  UNL1        0.0039
     20 C           0.7044    4.4228   22.7562 C.3     1  UNL1        0.0297
     21 C           0.6831    5.7871   22.1330 C.3     1  UNL1        0.0024
     22 C           1.6126    6.8538   22.6311 C.3     1  UNL1        0.0001
     23 C           2.5635    6.5562   23.7524 C.3     1  UNL1        0.0000
     24 C           2.5848    5.1920   24.3756 C.3     1  UNL1        0.0001
     25 C           1.6553    4.1253   23.8775 C.3     1  UNL1        0.0024
     26 O          -0.3175    1.0276   20.7763 O.2     1  UNL1       -0.2731
     27 C           0.3087    2.2194   21.4378 C.2     1  UNL1        0.2431
     28 N           1.7760    2.1352   21.1379 N.am    1  UNL1       -0.3044
     29 H           2.3887    2.8260   21.4794 H       1  UNL1        0.1494
     30 C           2.3097    0.9985   20.3176 C.3     1  UNL1        0.0718
     31 C           2.6111   -0.3190   20.9682 C.3     1  UNL1        0.0220
     32 C           3.1449   -1.4559   20.1478 C.3     1  UNL1        0.0309
     33 C           3.3773   -1.2751   18.6770 C.3     1  UNL1        0.1106
     34 O           3.9110   -2.4119   17.8567 O.3     1  UNL1       -0.3845
     35 C           3.0758    0.0425   18.0265 C.3     1  UNL1        0.0309
     36 C           2.5421    1.1792   18.8467 C.3     1  UNL1        0.0220
     37 H           4.0017   -2.1295   16.9332 H       1  UNL1        0.2103
@<TRIPOS>BOND
     1    26    27    2
     2    27    28   am
     3    30    28    1
     4    30    31    1
     5    31    32    1
     6    32    33    1
     7    33    34    1
     8    33    35    1
     9    35    36    1
    10    27     1    1
    11     1    20    1
    12    20    21    1
    13    21    22    1
    14    22    23    1
    15    23    24    1
    16    24    25    1
    17     1     2    1
    18     2     3   ar
    19     3    13    1
    20    13    14   ar
    21    14    15   ar
    22    15    16   ar
    23    16    17    1
    24    16    18   ar
    25    18    19   ar
    26     3     4   ar
    27     4     5   ar
    28     5     6   ar
    29     6     7   ar
    30     7     8    1
    31     7     9   ar
    32     9    10    1
    33     9    11   ar
    34    11    12   ar
    35    36    30    1
    36    25    20    1
    37    12     2   ar
    38    19    13   ar
    39    12     5   ar
    40    28    29    1
    41    34    37    1
@<TRIPOS>MOLECULE
*****
 37 41 0 0 0
SMALL
GASTEIGER

@<TRIPOS>ATOM
      1 C           0.3211    3.0958   21.5771 C.3     1  UNL1        0.1628
      2 N           0.6254    2.1886   22.7322 N.ar    1  UNL1       -0.3047
      3 C           1.5912    1.0409   22.7213 C.ar    1  UNL1        0.1441
      4 N           1.5800    0.4128   24.0834 N.ar    1  UNL1       -0.2267
      5 C           0.6073    1.1722   24.9361 C.ar    1  UNL1        0.1010
      6 C           0.1826    1.0061   26.3651 C.ar    1  UNL1        0.0526
      7 C          -0.8322    1.9375   26.9589 C.ar    1  UNL1        0.1690
      8 F          -1.2570    1.7714   28.3880 F       1  UNL1       -0.2017
      9 C          -1.4222    3.0350   26.1239 C.ar    1  UNL1        0.1689
     10 F          -2.4370    3.9665   26.7178 F       1  UNL1       -0.2017
     11 C          -0.9974    3.2011   24.6949 C.ar    1  UNL1        0.0507
     12 C           0.0173    2.2697   24.1010 C.ar    1  UNL1        0.0816
     13 C           2.4223    0.5991   21.5534 C.ar    1  UNL1        0.0342
     14 C           3.8346    1.0841   21.4116 C.ar    1  UNL1        0.0039
     15 C           4.6657    0.6422   20.2437 C.ar    1  UNL1        0.0115
     16 C           4.0845   -0.2847   19.2176 C.ar    1  UNL1        0.0577
     17 CL          4.9156   -0.7265   18.0496 Cl      1  UNL1       -0.0822
     18 C           2.6723   -0.7697   19.3593 C.ar    1  UNL1        0.0115
     19 C           1.8412   -0.3278   20.5272 C.ar    1  UNL1        0.0039
     20 C           1.4041    3.4638   20.6068 C.3     1  UNL1        0.0297
     21 C           1.3544    2.9519   19.1977 C.3     1  UNL1        0.0024
     22 C           2.4374    3.3199   18.2273 C.3     1  UNL1        0.0001
     23 C           3.5702    4.1998   18.6661 C.3     1  UNL1        0.0000
     24 C           3.6200    4.7117   20.0751 C.3     1  UNL1        0.0001
     25 C           2.5369    4.3438   21.0455 C.3     1  UNL1        0.0024
     26 O          -1.6957    4.9823   21.5900 O.2     1  UNL1       -0.2731
     27 C          -1.0664    3.6351   21.3923 C.2     1  UNL1        0.2431
     28 N          -2.1630    2.7338   20.9073 N.am    1  UNL1       -0.3044
     29 H          -1.9721    1.7883   20.7103 H       1  UNL1        0.1494
     30 C          -3.5504    3.2732   20.7225 C.3     1  UNL1        0.0718
     31 C          -4.0066    3.7203   19.3653 C.3     1  UNL1        0.0220
     32 C          -5.3940    4.2597   19.1804 C.3     1  UNL1        0.0309
     33 C          -6.3253    4.3519   20.3527 C.3     1  UNL1        0.1106
     34 O          -7.7127    4.8913   20.1680 O.3     1  UNL1       -0.3845
     35 C          -5.8690    3.9047   21.7099 C.3     1  UNL1        0.0309
     36 C          -4.4816    3.3654   21.8948 C.3     1  UNL1        0.0220
     37 H          -8.1789    4.8826   21.0185 H       1  UNL1        0.2103
@<TRIPOS>BOND
     1    26    27    2
     2    27    28   am
     3    30    28    1
     4    30    31    1
     5    31    32    1
     6    32    33    1
     7    33    34    1
     8    33    35    1
     9    35    36    1
    10    27     1    1
    11     1    20    1
    12    20    21    1
    13    21    22    1
    14    22    23    1
    15    23    24    1
    16    24    25    1
    17     1     2    1
    18     2     3   ar
    19     3    13    1
    20    13    14   ar
    21    14    15   ar
    22    15    16   ar
    23    16    17    1
    24    16    18   ar
    25    18    19   ar
    26     3     4   ar
    27     4     5   ar
    28     5     6   ar
    29     6     7   ar
    30     7     8    1
    31     7     9   ar
    32     9    10    1
    33     9    11   ar
    34    11    12   ar
    35    36    30    1
    36    25    20    1
    37    12     2   ar
    38    19    13   ar
    39    12     5   ar
    40    28    29    1
    41    34    37    1
@<TRIPOS>MOLECULE
*****
 37 41 0 0 0
SMALL
GASTEIGER

@<TRIPOS>ATOM
      1 C           0.2425    3.2350   19.2866 C.3     1  UNL1        0.1628
      2 N          -0.9473    3.2494   20.1999 N.ar    1  UNL1       -0.3047
      3 C          -0.9264    3.0016   21.6792 C.ar    1  UNL1        0.1441
      4 N          -2.3331    3.1133   22.1877 N.ar    1  UNL1       -0.2267
      5 C          -3.2234    3.4301   21.0229 C.ar    1  UNL1        0.1010
      6 C          -4.7033    3.6528   20.9221 C.ar    1  UNL1        0.0526
      7 C          -5.3268    3.9597   19.5928 C.ar    1  UNL1        0.1690
      8 F          -6.8067    4.1825   19.4920 F       1  UNL1       -0.2017
      9 C          -4.4703    4.0439   18.3642 C.ar    1  UNL1        0.1689
     10 F          -5.0938    4.3508   17.0349 F       1  UNL1       -0.2017
     11 C          -2.9904    3.8211   18.4650 C.ar    1  UNL1        0.0507
     12 C          -2.3669    3.5142   19.7943 C.ar    1  UNL1        0.0816
     13 C           0.2880    2.6958   22.5048 C.ar    1  UNL1        0.0342
     14 C           1.1507    3.8130   23.0123 C.ar    1  UNL1        0.0039
     15 C           2.3651    3.5073   23.8380 C.ar    1  UNL1        0.0115
     16 C           2.7168    2.0842   24.1562 C.ar    1  UNL1        0.0577
     17 CL          3.9312    1.7785   24.9819 Cl      1  UNL1       -0.0822
     18 C           1.8542    0.9670   23.6487 C.ar    1  UNL1        0.0115
     19 C           0.6398    1.2728   22.8230 C.ar    1  UNL1        0.0039
     20 C           0.7715    4.5206   18.7236 C.3     1  UNL1        0.0297
     21 C           0.4677    4.8990   17.3042 C.3     1  UNL1        0.0024
     22 C           0.9967    6.1847   16.7411 C.3     1  UNL1        0.0001
     23 C           1.8296    7.0921   17.5973 C.3     1  UNL1        0.0000
     24 C           2.1334    6.7137   19.0166 C.3     1  UNL1        0.0001
     25 C           1.6044    5.4280   19.5798 C.3     1  UNL1        0.0024
     26 O           0.5523    0.8013   18.0186 O.2     1  UNL1       -0.2731
     27 C           0.9034    1.9346   18.9363 C.2     1  UNL1        0.2431
     28 N           2.2092    1.5616   19.5732 N.am    1  UNL1       -0.3044
     29 H           2.6326    2.1701   20.2211 H       1  UNL1        0.1494
     30 C           2.8700    0.2613   19.2229 C.3     1  UNL1        0.0718
     31 C           2.6373   -0.9515   20.0744 C.3     1  UNL1        0.0220
     32 C           3.2981   -2.2518   19.7241 C.3     1  UNL1        0.0309
     33 C           4.1915   -2.3393   18.5224 C.3     1  UNL1        0.1106
     34 O           4.8523   -3.6395   18.1721 O.3     1  UNL1       -0.3845
     35 C           4.4242   -1.1264   17.6710 C.3     1  UNL1        0.0309
     36 C           3.7635    0.1739   18.0212 C.3     1  UNL1        0.0220
     37 H           5.3912   -3.5236   17.3739 H       1  UNL1        0.2103
@<TRIPOS>BOND
     1    26    27    2
     2    27    28   am
     3    30    28    1
     4    30    31    1
     5    31    32    1
     6    32    33    1
     7    33    34    1
     8    33    35    1
     9    35    36    1
    10    27     1    1
    11     1    20    1
    12    20    21    1
    13    21    22    1
    14    22    23    1
    15    23    24    1
    16    24    25    1
    17     1     2    1
    18     2     3   ar
    19     3    13    1
    20    13    14   ar
    21    14    15   ar
    22    15    16   ar
    23    16    17    1
    24    16    18   ar
    25    18    19   ar
    26     3     4   ar
    27     4     5   ar
    28     5     6   ar
    29     6     7   ar
    30     7     8    1
    31     7     9   ar
    32     9    10    1
    33     9    11   ar
    34    11    12   ar
    35    36    30    1
    36    25    20    1
    37    12     2   ar
    38    19    13   ar
    39    12     5   ar
    40    28    29    1
    41    34    37    1
@<TRIPOS>MOLECULE
*****
 37 41 0 0 0
SMALL
GASTEIGER

@<TRIPOS>ATOM
      1 C           0.0092    2.4853   21.1175 C.3     1  UNL1        0.1628
      2 N          -0.7930    2.8443   22.3330 N.ar    1  UNL1       -0.3047
      3 C          -2.0929    3.5928   22.3420 C.ar    1  UNL1        0.1441
      4 N          -2.5395    3.7290   23.7675 N.ar    1  UNL1       -0.2267
      5 C          -1.5156    3.0647   24.6395 C.ar    1  UNL1        0.1010
      6 C          -1.4267    2.8870   26.1263 C.ar    1  UNL1        0.0526
      7 C          -0.2584    2.1626   26.7264 C.ar    1  UNL1        0.1690
      8 F          -0.1694    1.9849   28.2133 F       1  UNL1       -0.2017
      9 C           0.8210    1.6158   25.8398 C.ar    1  UNL1        0.1689
     10 F           1.9893    0.8914   26.4401 F       1  UNL1       -0.2017
     11 C           0.7321    1.7935   24.3531 C.ar    1  UNL1        0.0507
     12 C          -0.4362    2.5179   23.7529 C.ar    1  UNL1        0.0816
     13 C          -2.8188    4.1137   21.1371 C.ar    1  UNL1        0.0342
     14 C          -2.6280    5.5369   20.7037 C.ar    1  UNL1        0.0039
     15 C          -3.3538    6.0578   19.4988 C.ar    1  UNL1        0.0115
     16 C          -4.2705    5.1554   18.7272 C.ar    1  UNL1        0.0577
     17 CL         -4.9964    5.6762   17.5223 Cl      1  UNL1       -0.0822
     18 C          -4.4613    3.7321   19.1606 C.ar    1  UNL1        0.0115
     19 C          -3.7355    3.2113   20.3656 C.ar    1  UNL1        0.0039
     20 C           0.1749    3.4802   20.0074 C.3     1  UNL1        0.0297
     21 C           0.9230    4.7575   20.2504 C.3     1  UNL1        0.0024
     22 C           1.0888    5.7526   19.1402 C.3     1  UNL1        0.0001
     23 C           0.5064    5.4703   17.7870 C.3     1  UNL1        0.0000
     24 C          -0.2417    4.1931   17.5440 C.3     1  UNL1        0.0001
     25 C          -0.4075    3.1981   18.6541 C.3     1  UNL1        0.0024
     26 O           0.1121   -0.2620   20.8561 O.2     1  UNL1       -0.2731
     27 C           0.6459    1.1311   21.0121 C.2     1  UNL1        0.2431
     28 N           2.1393    0.9987   21.0592 N.am    1  UNL1       -0.3044
     29 H           2.7017    1.8006   21.1593 H       1  UNL1        0.1494
     30 C           2.7758   -0.3554   20.9539 C.3     1  UNL1        0.0718
     31 C           2.9136   -1.0171   19.6148 C.3     1  UNL1        0.0220
     32 C           3.5502   -2.3713   19.5094 C.3     1  UNL1        0.0309
     33 C           4.0489   -3.0637   20.7430 C.3     1  UNL1        0.1106
     34 O           4.6854   -4.4179   20.6376 O.3     1  UNL1       -0.3845
     35 C           3.9110   -2.4019   22.0821 C.3     1  UNL1        0.0309
     36 C           3.2745   -1.0478   22.1875 C.3     1  UNL1        0.0220
     37 H           4.9496   -4.7205   21.5205 H       1  UNL1        0.2103
@<TRIPOS>BOND
     1    26    27    2
     2    27    28   am
     3    30    28    1
     4    30    31    1
     5    31    32    1
     6    32    33    1
     7    33    34    1
     8    33    35    1
     9    35    36    1
    10    27     1    1
    11     1    20    1
    12    20    21    1
    13    21    22    1
    14    22    23    1
    15    23    24    1
    16    24    25    1
    17     1     2    1
    18     2     3   ar
    19     3    13    1
    20    13    14   ar
    21    14    15   ar
    22    15    16   ar
    23    16    17    1
    24    16    18   ar
    25    18    19   ar
    26     3     4   ar
    27     4     5   ar
    28     5     6   ar
    29     6     7   ar
    30     7     8    1
    31     7     9   ar
    32     9    10    1
    33     9    11   ar
    34    11    12   ar
    35    36    30    1
    36    25    20    1
    37    12     2   ar
    38    19    13   ar
    39    12     5   ar
    40    28    29    1
    41    34    37    1
@<TRIPOS>MOLECULE
*****
 37 41 0 0 0
SMALL
GASTEIGER

@<TRIPOS>ATOM
      1 C           6.3327   -3.0166   24.1083 C.3     1  UNL1        0.1628
      2 N           7.1404   -4.1986   23.6605 N.ar    1  UNL1       -0.3047
      3 C           7.6233   -4.4586   22.2644 C.ar    1  UNL1        0.1441
      4 N           8.3883   -5.7488   22.2713 N.ar    1  UNL1       -0.2267
      5 C           8.3782   -6.2862   23.6717 C.ar    1  UNL1        0.1010
      6 C           8.9717   -7.5242   24.2760 C.ar    1  UNL1        0.0526
      7 C           8.7939   -7.8040   25.7388 C.ar    1  UNL1        0.1690
      8 F           9.3874   -9.0420   26.3432 F       1  UNL1       -0.2017
      9 C           8.0227   -6.8459   26.5974 C.ar    1  UNL1        0.1689
     10 F           7.8449   -7.1258   28.0604 F       1  UNL1       -0.2017
     11 C           7.4292   -5.6079   25.9932 C.ar    1  UNL1        0.0507
     12 C           7.6070   -5.3281   24.5303 C.ar    1  UNL1        0.0816
     13 C           7.3833   -3.5822   21.0709 C.ar    1  UNL1        0.0342
     14 C           8.2876   -2.4160   20.8027 C.ar    1  UNL1        0.0039
     15 C           8.0476   -1.5396   19.6092 C.ar    1  UNL1        0.0115
     16 C           6.9032   -1.8296   18.6839 C.ar    1  UNL1        0.0577
     17 CL          6.6632   -0.9532   17.4904 Cl      1  UNL1       -0.0822
     18 C           5.9989   -2.9959   18.9520 C.ar    1  UNL1        0.0115
     19 C           6.2389   -3.8722   20.1455 C.ar    1  UNL1        0.0039
     20 C           6.7804   -2.2058   25.2882 C.3     1  UNL1        0.0297
     21 C           8.1582   -1.6132   25.3117 C.3     1  UNL1        0.0024
     22 C           8.6059   -0.8024   26.4916 C.3     1  UNL1        0.0001
     23 C           7.6758   -0.5842   27.6480 C.3     1  UNL1        0.0000
     24 C           6.2981   -1.1769   27.6245 C.3     1  UNL1        0.0001
     25 C           5.8503   -1.9876   26.4446 C.3     1  UNL1        0.0024
     26 O           3.8820   -3.4163   22.8996 O.2     1  UNL1       -0.2731
     27 C           5.0772   -2.6453   23.3761 C.2     1  UNL1        0.2431
     28 N           4.8384   -1.2208   22.9714 N.am    1  UNL1       -0.3044
     29 H           5.5057   -0.5295   23.1862 H       1  UNL1        0.1494
     30 C           3.5830   -0.8496   22.2392 C.3     1  UNL1        0.0718
     31 C           2.5693    0.0420   22.8931 C.3     1  UNL1        0.0220
     32 C           1.3137    0.4132   22.1609 C.3     1  UNL1        0.0309
     33 C           1.0720   -0.1071   20.7750 C.3     1  UNL1        0.1106
     34 O          -0.1834    0.2641   20.0429 O.3     1  UNL1       -0.3845
     35 C           2.0858   -0.9986   20.1212 C.3     1  UNL1        0.0309
     36 C           3.3412   -1.3699   20.8533 C.3     1  UNL1        0.0220
     37 H          -0.1823   -0.1529   19.1671 H       1  UNL1        0.2103
@<TRIPOS>BOND
     1    26    27    2
     2    27    28   am
     3    30    28    1
     4    30    31    1
     5    31    32    1
     6    32    33    1
     7    33    34    1
     8    33    35    1
     9    35    36    1
    10    27     1    1
    11     1    20    1
    12    20    21    1
    13    21    22    1
    14    22    23    1
    15    23    24    1
    16    24    25    1
    17     1     2    1
    18     2     3   ar
    19     3    13    1
    20    13    14   ar
    21    14    15   ar
    22    15    16   ar
    23    16    17    1
    24    16    18   ar
    25    18    19   ar
    26     3     4   ar
    27     4     5   ar
    28     5     6   ar
    29     6     7   ar
    30     7     8    1
    31     7     9   ar
    32     9    10    1
    33     9    11   ar
    34    11    12   ar
    35    36    30    1
    36    25    20    1
    37    12     2   ar
    38    19    13   ar
    39    12     5   ar
    40    28    29    1
    41    34    37    1
@<TRIPOS>MOLECULE
*****
 37 41 0 0 0
SMALL
GASTEIGER

@<TRIPOS>ATOM
      1 C          -0.4336    2.8735   21.3938 C.3     1  UNL1        0.1628
      2 N          -0.8657    2.8765   22.8302 N.ar    1  UNL1       -0.3047
      3 C          -2.1472    3.4445   23.3642 C.ar    1  UNL1        0.1441
      4 N          -2.1656    3.2310   24.8489 N.ar    1  UNL1       -0.2267
      5 C          -0.8955    2.5311   25.2324 C.ar    1  UNL1        0.1010
      6 C          -0.3668    2.0650   26.5564 C.ar    1  UNL1        0.0526
      7 C           0.9653    1.3798   26.6328 C.ar    1  UNL1        0.1690
      8 F           1.4941    0.9136   27.9569 F       1  UNL1       -0.2017
      9 C           1.7687    1.1607   25.3852 C.ar    1  UNL1        0.1689
     10 F           3.1009    0.4754   25.4617 F       1  UNL1       -0.2017
     11 C           1.2400    1.6268   24.0612 C.ar    1  UNL1        0.0507
     12 C          -0.0921    2.3120   23.9847 C.ar    1  UNL1        0.0816
     13 C          -3.2216    4.1092   22.5557 C.ar    1  UNL1        0.0342
     14 C          -4.2521    3.2782   21.8505 C.ar    1  UNL1        0.0039
     15 C          -5.3265    3.9430   21.0419 C.ar    1  UNL1        0.0115
     16 C          -5.3703    5.4387   20.9385 C.ar    1  UNL1        0.0577
     17 CL         -6.4447    6.1035   20.1299 Cl      1  UNL1       -0.0822
     18 C          -4.3398    6.2697   21.6436 C.ar    1  UNL1        0.0115
     19 C          -3.2654    5.6050   22.4522 C.ar    1  UNL1        0.0039
     20 C          -0.6790    4.0780   20.5342 C.3     1  UNL1        0.0297
     21 C           0.0173    5.3713   20.8387 C.3     1  UNL1        0.0024
     22 C          -0.2281    6.5758   19.9792 C.3     1  UNL1        0.0001
     23 C          -1.1699    6.4871   18.8150 C.3     1  UNL1        0.0000
     24 C          -1.8662    5.1939   18.5105 C.3     1  UNL1        0.0001
     25 C          -1.6208    3.9894   19.3701 C.3     1  UNL1        0.0024
     26 O          -0.2117    0.2775   20.4784 O.2     1  UNL1       -0.2731
     27 C           0.2440    1.6660   20.8169 C.2     1  UNL1        0.2431
     28 N           1.6982    1.7239   20.4536 N.am    1  UNL1       -0.3044
     29 H           2.2079    2.5544   20.5938 H       1  UNL1        0.1494
     30 C           2.3757    0.5163   19.8768 C.3     1  UNL1        0.0718
     31 C           2.7188   -0.6453   20.7615 C.3     1  UNL1        0.0220
     32 C           3.3964   -1.8530   20.1847 C.3     1  UNL1        0.0309
     33 C           3.7308   -1.8989   18.7232 C.3     1  UNL1        0.1106
     34 O           4.4083   -3.1064   18.1463 O.3     1  UNL1       -0.3845
     35 C           3.3877   -0.7371   17.8385 C.3     1  UNL1        0.0309
     36 C           2.7102    0.4705   18.4152 C.3     1  UNL1        0.0220
     37 H           4.5513   -2.9739   17.1961 H       1  UNL1        0.2103
@<TRIPOS>BOND
     1    26    27    2
     2    27    28   am
     3    30    28    1
     4    30    31    1
     5    31    32    1
     6    32    33    1
     7    33    34    1
     8    33    35    1
     9    35    36    1
    10    27     1    1
    11     1    20    1
    12    20    21    1
    13    21    22    1
    14    22    23    1
    15    23    24    1
    16    24    25    1
    17     1     2    1
    18     2     3   ar
    19     3    13    1
    20    13    14   ar
    21    14    15   ar
    22    15    16   ar
    23    16    17    1
    24    16    18   ar
    25    18    19   ar
    26     3     4   ar
    27     4     5   ar
    28     5     6   ar
    29     6     7   ar
    30     7     8    1
    31     7     9   ar
    32     9    10    1
    33     9    11   ar
    34    11    12   ar
    35    36    30    1
    36    25    20    1
    37    12     2   ar
    38    19    13   ar
    39    12     5   ar
    40    28    29    1
    41    34    37    1
@<TRIPOS>MOLECULE
*****
 37 41 0 0 0
SMALL
GASTEIGER

@<TRIPOS>ATOM
      1 C          -0.2799    2.6236   22.4781 C.3     1  UNL1        0.1628
      2 N          -1.2834    3.6248   21.9876 N.ar    1  UNL1       -0.3047
      3 C          -1.1212    4.5265   20.8000 C.ar    1  UNL1        0.1441
      4 N          -2.3629    5.3590   20.6771 N.ar    1  UNL1       -0.2267
      5 C          -3.2925    4.9718   21.7887 C.ar    1  UNL1        0.1010
      6 C          -4.6603    5.4567   22.1681 C.ar    1  UNL1        0.0526
      7 C          -5.3610    4.8698   23.3574 C.ar    1  UNL1        0.1690
      8 F          -6.7288    5.3547   23.7369 F       1  UNL1       -0.2017
      9 C          -4.6938    3.7979   24.1674 C.ar    1  UNL1        0.1689
     10 F          -5.3945    3.2110   25.3568 F       1  UNL1       -0.2017
     11 C          -3.3260    3.3130   23.7881 C.ar    1  UNL1        0.0507
     12 C          -2.6254    3.9000   22.5987 C.ar    1  UNL1        0.0816
     13 C           0.0731    4.5854   19.8942 C.ar    1  UNL1        0.0342
     14 C          -0.0357    4.1050   18.4775 C.ar    1  UNL1        0.0039
     15 C           1.1585    4.1639   17.5717 C.ar    1  UNL1        0.0115
     16 C           2.4615    4.7032   18.0828 C.ar    1  UNL1        0.0577
     17 CL          3.6558    4.7621   17.1771 Cl      1  UNL1       -0.0822
     18 C           2.5703    5.1836   19.4996 C.ar    1  UNL1        0.0115
     19 C           1.3761    5.1247   20.4053 C.ar    1  UNL1        0.0039
     20 C           0.1076    2.5981   23.9269 C.3     1  UNL1        0.0297
     21 C          -0.1249    1.3616   24.7438 C.3     1  UNL1        0.0024
     22 C           0.2627    1.3360   26.1926 C.3     1  UNL1        0.0001
     23 C           0.8827    2.5469   26.8246 C.3     1  UNL1        0.0000
     24 C           1.1152    3.7833   26.0077 C.3     1  UNL1        0.0001
     25 C           0.7277    3.8089   24.5589 C.3     1  UNL1        0.0024
     26 O          -0.2143    0.5769   20.6251 O.2     1  UNL1       -0.2731
     27 C           0.3362    1.6478   21.5196 C.2     1  UNL1        0.2431
     28 N           1.8222    1.6332   21.3158 N.am    1  UNL1       -0.3044
     29 H           2.3932    2.2640   21.8111 H       1  UNL1        0.1494
     30 C           2.4381    0.6575   20.3574 C.3     1  UNL1        0.0718
     31 C           2.6992    1.0643   18.9375 C.3     1  UNL1        0.0220
     32 C           3.3152    0.0885   17.9789 C.3     1  UNL1        0.0309
     33 C           3.6700   -1.2939   18.4405 C.3     1  UNL1        0.1106
     34 O           4.2860   -2.2696   17.4821 O.3     1  UNL1       -0.3845
     35 C           3.4089   -1.7005   19.8605 C.3     1  UNL1        0.0309
     36 C           2.7929   -0.7249   20.8190 C.3     1  UNL1        0.0220
     37 H           4.4517   -3.1097   17.9378 H       1  UNL1        0.2103
@<TRIPOS>BOND
     1    26    27    2
     2    27    28   am
     3    30    28    1
     4    30    31    1
     5    31    32    1
     6    32    33    1
     7    33    34    1
     8    33    35    1
     9    35    36    1
    10    27     1    1
    11     1    20    1
    12    20    21    1
    13    21    22    1
    14    22    23    1
    15    23    24    1
    16    24    25    1
    17     1     2    1
    18     2     3   ar
    19     3    13    1
    20    13    14   ar
    21    14    15   ar
    22    15    16   ar
    23    16    17    1
    24    16    18   ar
    25    18    19   ar
    26     3     4   ar
    27     4     5   ar
    28     5     6   ar
    29     6     7   ar
    30     7     8    1
    31     7     9   ar
    32     9    10    1
    33     9    11   ar
    34    11    12   ar
    35    36    30    1
    36    25    20    1
    37    12     2   ar
    38    19    13   ar
    39    12     5   ar
    40    28    29    1
    41    34    37    1
