@<TRIPOS>MOLECULE
*****
 23 26 0 0 0
SMALL
GASTEIGER

@<TRIPOS>ATOM
      1 N          -9.3375  -17.5444   22.0552 N.pl3   1  UNL1       -0.3066
      2 C         -10.3958  -16.7589   21.3389 C.3     1  UNL1        0.1078
      3 C         -11.0637  -17.3336   20.1250 C.3     1  UNL1        0.0903
      4 N         -10.6733  -18.6938   19.6274 N.3     1  UNL1       -0.2947
      5 C          -9.6150  -19.4792   20.3437 C.3     1  UNL1        0.0885
      6 C          -8.9472  -18.9044   21.5577 C.3     1  UNL1        0.0885
      7 H         -10.3520  -18.5748   18.6666 H       1  UNL1        0.1233
      8 C          -9.3561  -17.0285   24.6015 C.2     1  UNL1        0.0155
      9 C          -8.6882  -16.4537   25.8155 C.2     1  UNL1        0.0184
     10 C          -7.3339  -15.8200   25.6969 C.2     1  UNL1        0.0900
     11 N          -6.4356  -15.1747   26.7102 N.2     1  UNL1       -0.1519
     12 N          -5.1940  -14.7168   26.0040 N.2     1  UNL1       -0.1507
     13 C          -5.3249  -15.0793   24.5543 C.2     1  UNL1        0.1058
     14 C          -6.6474  -15.7611   24.3645 C.3     1  UNL1        0.1083
     15 C          -7.3153  -16.3359   23.1507 C.2     1  UNL1        0.0001
     16 C          -8.6697  -16.9696   23.2692 C.2     1  UNL1        0.0443
     17 C          -7.8889  -19.6899   22.2740 C.3     1  UNL1        0.0213
     18 C          -6.4907  -19.7323   21.7325 C.3     1  UNL1        0.0067
     19 C          -6.1582  -20.6387   20.5845 C.3     1  UNL1        0.0322
     20 C          -4.7600  -20.6812   20.0430 C.3     1  UNL1        0.1422
     21 O          -3.6943  -19.8173   20.6494 O.3     1  UNL1       -0.3538
     22 C          -4.0268  -18.9108   21.7974 C.3     1  UNL1        0.1422
     23 C          -5.4249  -18.8683   22.3389 C.3     1  UNL1        0.0322
@<TRIPOS>BOND
     1     8     9    2
     2     9    10    1
     3    10    11    2
     4    11    12    1
     5    12    13    2
     6    13    14    1
     7    14    15    1
     8    15    16    2
     9    16     1    1
    10     1     2    1
    11     2     3    1
    12     3     4    1
    13     4     5    1
    14     5     6    1
    15     6    17    1
    16    17    18    1
    17    18    19    1
    18    19    20    1
    19    20    21    1
    20    21    22    1
    21    22    23    1
    22    16     8    1
    23     6     1    1
    24    23    18    1
    25    14    10    1
    26     4     7    1
@<TRIPOS>MOLECULE
*****
 23 26 0 0 0
SMALL
GASTEIGER

@<TRIPOS>ATOM
      1 N          -9.7842  -16.8380   21.9155 N.pl3   1  UNL1       -0.3066
      2 C         -10.8056  -15.8993   21.3449 C.3     1  UNL1        0.1078
      3 C         -11.6840  -16.3444   20.2135 C.3     1  UNL1        0.0903
      4 N         -11.5411  -17.7282   19.6526 N.3     1  UNL1       -0.2947
      5 C         -10.5197  -18.6669   20.2231 C.3     1  UNL1        0.0885
      6 C          -9.6412  -18.2218   21.3546 C.3     1  UNL1        0.0885
      7 H         -11.3235  -17.6233   18.6616 H       1  UNL1        0.1233
      8 C          -7.6903  -15.5589   22.7695 C.2     1  UNL1        0.0155
      9 C          -6.8118  -15.1137   23.9010 C.2     1  UNL1        0.0184
     10 C          -7.1490  -15.5025   25.3100 C.2     1  UNL1        0.0900
     11 N          -6.4761  -15.2139   26.6191 N.2     1  UNL1       -0.1519
     12 N          -7.2759  -15.8695   27.7057 N.2     1  UNL1       -0.1507
     13 C          -8.4429  -16.5633   27.0681 C.2     1  UNL1        0.1058
     14 C          -8.3645  -16.3365   25.5874 C.3     1  UNL1        0.1083
     15 C          -9.2429  -16.7817   24.4559 C.2     1  UNL1        0.0001
     16 C          -8.9057  -16.3928   23.0470 C.2     1  UNL1        0.0443
     17 C          -8.6199  -19.1605   21.9252 C.3     1  UNL1        0.0213
     18 C          -7.1804  -19.0383   21.5213 C.3     1  UNL1        0.0067
     19 C          -6.7892  -19.1982   20.0821 C.3     1  UNL1        0.0322
     20 C          -5.3497  -19.0761   19.6781 C.3     1  UNL1        0.1422
     21 O          -4.3016  -18.7940   20.7134 O.3     1  UNL1       -0.3538
     22 C          -4.6929  -18.6341   22.1526 C.3     1  UNL1        0.1422
     23 C          -6.1322  -18.7563   22.5566 C.3     1  UNL1        0.0322
@<TRIPOS>BOND
     1     8     9    2
     2     9    10    1
     3    10    11    2
     4    11    12    1
     5    12    13    2
     6    13    14    1
     7    14    15    1
     8    15    16    2
     9    16     1    1
    10     1     2    1
    11     2     3    1
    12     3     4    1
    13     4     5    1
    14     5     6    1
    15     6    17    1
    16    17    18    1
    17    18    19    1
    18    19    20    1
    19    20    21    1
    20    21    22    1
    21    22    23    1
    22    16     8    1
    23     6     1    1
    24    23    18    1
    25    14    10    1
    26     4     7    1
@<TRIPOS>MOLECULE
*****
 23 26 0 0 0
SMALL
GASTEIGER

@<TRIPOS>ATOM
      1 N          -5.3565  -16.5692   23.9257 N.pl3   1  UNL1       -0.3066
      2 C          -4.9080  -15.8153   25.1425 C.3     1  UNL1        0.1078
      3 C          -5.9123  -15.0880   25.9865 C.3     1  UNL1        0.0903
      4 N          -7.3650  -15.1145   25.6138 N.3     1  UNL1       -0.2947
      5 C          -7.8135  -15.8684   24.3970 C.3     1  UNL1        0.0885
      6 C          -6.8091  -16.5958   23.5530 C.3     1  UNL1        0.0885
      7 H          -7.6530  -14.1449   25.4822 H       1  UNL1        0.1233
      8 C          -4.4668  -18.7798   22.8905 C.2     1  UNL1        0.0155
      9 C          -3.4624  -19.5072   22.0465 C.2     1  UNL1        0.0184
     10 C          -2.3434  -18.7511   21.3937 C.2     1  UNL1        0.0900
     11 N          -1.2129  -19.1937   20.5127 N.2     1  UNL1       -0.1519
     12 N          -0.3996  -17.9838   20.1595 N.2     1  UNL1       -0.1507
     13 C          -1.0274  -16.7935   20.8221 C.2     1  UNL1        0.1058
     14 C          -2.2287  -17.2677   21.5849 C.3     1  UNL1        0.1083
     15 C          -3.2331  -16.5405   22.4289 C.2     1  UNL1        0.0001
     16 C          -4.3521  -17.2966   23.0817 C.2     1  UNL1        0.0443
     17 C          -7.2575  -17.3497   22.3363 C.3     1  UNL1        0.0213
     18 C          -8.5912  -18.0362   22.3284 C.3     1  UNL1        0.0067
     19 C          -9.7497  -17.4160   21.6051 C.3     1  UNL1        0.0322
     20 C         -11.0834  -18.1025   21.5972 C.3     1  UNL1        0.1422
     21 O         -11.2586  -19.4091   22.3127 O.3     1  UNL1       -0.3538
     22 C         -10.1001  -20.0292   23.0361 C.3     1  UNL1        0.1422
     23 C          -8.7665  -19.3428   23.0440 C.3     1  UNL1        0.0322
@<TRIPOS>BOND
     1     8     9    2
     2     9    10    1
     3    10    11    2
     4    11    12    1
     5    12    13    2
     6    13    14    1
     7    14    15    1
     8    15    16    2
     9    16     1    1
    10     1     2    1
    11     2     3    1
    12     3     4    1
    13     4     5    1
    14     5     6    1
    15     6    17    1
    16    17    18    1
    17    18    19    1
    18    19    20    1
    19    20    21    1
    20    21    22    1
    21    22    23    1
    22    16     8    1
    23     6     1    1
    24    23    18    1
    25    14    10    1
    26     4     7    1
@<TRIPOS>MOLECULE
*****
 23 26 0 0 0
SMALL
GASTEIGER

@<TRIPOS>ATOM
      1 N          -9.0447  -18.2707   22.0782 N.pl3   1  UNL1       -0.3066
      2 C         -10.1848  -19.2341   21.9298 C.3     1  UNL1        0.1078
      3 C         -11.5539  -18.8558   22.4119 C.3     1  UNL1        0.0903
      4 N         -11.7830  -17.5141   23.0423 N.3     1  UNL1       -0.2947
      5 C         -10.6429  -16.5507   23.1906 C.3     1  UNL1        0.0885
      6 C          -9.2737  -16.9291   22.7086 C.3     1  UNL1        0.0885
      7 H         -12.1460  -17.6873   23.9796 H       1  UNL1        0.1233
      8 C          -7.4637  -19.0261   20.1599 C.2     1  UNL1        0.0155
      9 C          -6.0945  -19.4045   19.6778 C.2     1  UNL1        0.0184
     10 C          -4.9373  -19.4059   20.6321 C.2     1  UNL1        0.0900
     11 N          -3.4846  -19.7309   20.4476 N.2     1  UNL1       -0.1519
     12 N          -2.7987  -19.5547   21.7699 N.2     1  UNL1       -0.1507
     13 C          -3.8274  -19.1209   22.7716 C.2     1  UNL1        0.1058
     14 C          -5.1492  -19.0289   22.0685 C.3     1  UNL1        0.1083
     15 C          -6.5183  -18.6505   22.5505 C.2     1  UNL1        0.0001
     16 C          -7.6755  -18.6491   21.5961 C.2     1  UNL1        0.0443
     17 C          -8.1336  -15.9657   22.8569 C.3     1  UNL1        0.0213
     18 C          -7.5272  -15.7233   24.2074 C.3     1  UNL1        0.0067
     19 C          -6.0546  -15.4678   24.3333 C.3     1  UNL1        0.0322
     20 C          -5.4481  -15.2254   25.6836 C.3     1  UNL1        0.1422
     21 O          -6.3144  -15.2386   26.9081 O.3     1  UNL1       -0.3538
     22 C          -7.7871  -15.4942   26.7822 C.3     1  UNL1        0.1422
     23 C          -8.3935  -15.7366   25.4319 C.3     1  UNL1        0.0322
@<TRIPOS>BOND
     1     8     9    2
     2     9    10    1
     3    10    11    2
     4    11    12    1
     5    12    13    2
     6    13    14    1
     7    14    15    1
     8    15    16    2
     9    16     1    1
    10     1     2    1
    11     2     3    1
    12     3     4    1
    13     4     5    1
    14     5     6    1
    15     6    17    1
    16    17    18    1
    17    18    19    1
    18    19    20    1
    19    20    21    1
    20    21    22    1
    21    22    23    1
    22    16     8    1
    23     6     1    1
    24    23    18    1
    25    14    10    1
    26     4     7    1
@<TRIPOS>MOLECULE
*****
 23 26 0 0 0
SMALL
GASTEIGER

@<TRIPOS>ATOM
      1 N          -7.7178  -18.7452   22.2587 N.pl3   1  UNL1       -0.3066
      2 C          -7.2036  -20.0837   21.8185 C.3     1  UNL1        0.1078
      3 C          -5.7280  -20.3529   21.8053 C.3     1  UNL1        0.0903
      4 N          -4.7667  -19.2836   22.2324 N.3     1  UNL1       -0.2947
      5 C          -5.2809  -17.9451   22.6727 C.3     1  UNL1        0.0885
      6 C          -6.7566  -17.6759   22.6859 C.3     1  UNL1        0.0885
      7 H          -4.1442  -19.1145   21.4423 H       1  UNL1        0.1233
      8 C          -9.8751  -17.9729   21.0342 C.2     1  UNL1        0.0155
      9 C         -11.3508  -17.7037   21.0473 C.2     1  UNL1        0.0184
     10 C         -12.1447  -17.9377   22.2983 C.2     1  UNL1        0.0900
     11 N         -13.6015  -17.7630   22.6099 N.2     1  UNL1       -0.1519
     12 N         -13.8201  -18.1581   24.0403 N.2     1  UNL1       -0.1507
     13 C         -12.4985  -18.5771   24.6127 C.2     1  UNL1        0.1058
     14 C         -11.4630  -18.4409   23.5361 C.3     1  UNL1        0.1083
     15 C          -9.9874  -18.7101   23.5229 C.2     1  UNL1        0.0001
     16 C          -9.1935  -18.4760   22.2719 C.2     1  UNL1        0.0443
     17 C          -7.2708  -16.3374   23.1261 C.3     1  UNL1        0.0213
     18 C          -7.1487  -15.9223   24.5624 C.3     1  UNL1        0.0067
     19 C          -8.3448  -15.9849   25.4654 C.3     1  UNL1        0.0322
     20 C          -8.2227  -15.5699   26.9017 C.3     1  UNL1        0.1422
     21 O          -6.9046  -15.0923   27.4350 O.3     1  UNL1       -0.3538
     22 C          -5.7085  -15.0297   26.5319 C.3     1  UNL1        0.1422
     23 C          -5.8306  -15.4447   25.0957 C.3     1  UNL1        0.0322
@<TRIPOS>BOND
     1     8     9    2
     2     9    10    1
     3    10    11    2
     4    11    12    1
     5    12    13    2
     6    13    14    1
     7    14    15    1
     8    15    16    2
     9    16     1    1
    10     1     2    1
    11     2     3    1
    12     3     4    1
    13     4     5    1
    14     5     6    1
    15     6    17    1
    16    17    18    1
    17    18    19    1
    18    19    20    1
    19    20    21    1
    20    21    22    1
    21    22    23    1
    22    16     8    1
    23     6     1    1
    24    23    18    1
    25    14    10    1
    26     4     7    1
@<TRIPOS>MOLECULE
*****
 23 26 0 0 0
SMALL
GASTEIGER

@<TRIPOS>ATOM
      1 N          -7.0182  -18.6194   22.4159 N.pl3   1  UNL1       -0.3066
      2 C          -6.4040  -19.9333   22.0335 C.3     1  UNL1        0.1078
      3 C          -4.9157  -20.1110   22.0929 C.3     1  UNL1        0.0903
      4 N          -4.0417  -18.9748   22.5347 N.3     1  UNL1       -0.2947
      5 C          -4.6560  -17.6608   22.9170 C.3     1  UNL1        0.0885
      6 C          -6.1443  -17.4832   22.8576 C.3     1  UNL1        0.0885
      7 H          -3.3951  -18.7857   21.7688 H       1  UNL1        0.1233
      8 C          -9.3799  -19.0776   23.3970 C.2     1  UNL1        0.0155
      9 C         -10.8682  -18.8999   23.3376 C.2     1  UNL1        0.0184
     10 C         -11.4830  -18.0863   22.2376 C.2     1  UNL1        0.0900
     11 N         -12.9077  -17.7386   21.9226 N.2     1  UNL1       -0.1519
     12 N         -12.9148  -16.8877   20.6873 N.2     1  UNL1       -0.1507
     13 C         -11.4945  -16.7096   20.2389 C.2     1  UNL1        0.1058
     14 C         -10.6096  -17.4504   21.1971 C.3     1  UNL1        0.1083
     15 C          -9.1214  -17.6281   21.2565 C.2     1  UNL1        0.0001
     16 C          -8.5066  -18.4417   22.3565 C.2     1  UNL1        0.0443
     17 C          -6.7586  -16.1692   23.2400 C.3     1  UNL1        0.0213
     18 C          -7.0048  -15.8484   24.6845 C.3     1  UNL1        0.0067
     19 C          -8.3909  -15.9474   25.2490 C.3     1  UNL1        0.0322
     20 C          -8.6372  -15.6265   26.6935 C.3     1  UNL1        0.1422
     21 O          -7.4973  -15.2067   27.5734 O.3     1  UNL1       -0.3538
     22 C          -6.1111  -15.1078   27.0088 C.3     1  UNL1        0.1422
     23 C          -5.8648  -15.4286   25.5645 C.3     1  UNL1        0.0322
@<TRIPOS>BOND
     1     8     9    2
     2     9    10    1
     3    10    11    2
     4    11    12    1
     5    12    13    2
     6    13    14    1
     7    14    15    1
     8    15    16    2
     9    16     1    1
    10     1     2    1
    11     2     3    1
    12     3     4    1
    13     4     5    1
    14     5     6    1
    15     6    17    1
    16    17    18    1
    17    18    19    1
    18    19    20    1
    19    20    21    1
    20    21    22    1
    21    22    23    1
    22    16     8    1
    23     6     1    1
    24    23    18    1
    25    14    10    1
    26     4     7    1
@<TRIPOS>MOLECULE
*****
 23 26 0 0 0
SMALL
GASTEIGER

@<TRIPOS>ATOM
      1 N          -9.0654  -18.5822   21.7504 N.pl3   1  UNL1       -0.3066
      2 C         -10.2704  -18.2574   20.9183 C.3     1  UNL1        0.1078
      3 C         -10.3709  -18.7693   19.5120 C.3     1  UNL1        0.0903
      4 N          -9.2664  -19.6061   18.9377 N.3     1  UNL1       -0.2947
      5 C          -8.0613  -19.9309   19.7697 C.3     1  UNL1        0.0885
      6 C          -7.9609  -19.4189   21.1761 C.3     1  UNL1        0.0885
      7 H          -8.9285  -19.1184   18.1079 H       1  UNL1        0.1233
      8 C          -9.7551  -18.7241   24.2512 C.2     1  UNL1        0.0155
      9 C          -9.6547  -18.2121   25.6576 C.2     1  UNL1        0.0184
     10 C          -8.7640  -17.0462   25.9694 C.2     1  UNL1        0.0900
     11 N          -8.4639  -16.3270   27.2511 N.2     1  UNL1       -0.1519
     12 N          -7.4882  -15.2286   26.9487 N.2     1  UNL1       -0.1507
     13 C          -7.1852  -15.2690   25.4801 C.2     1  UNL1        0.1058
     14 C          -7.9737  -16.3924   24.8749 C.3     1  UNL1        0.1083
     15 C          -8.0742  -16.9043   23.4686 C.2     1  UNL1        0.0001
     16 C          -8.9649  -18.0702   23.1568 C.2     1  UNL1        0.0443
     17 C          -6.7558  -19.7438   22.0082 C.3     1  UNL1        0.0213
     18 C          -5.4087  -19.2129   21.6166 C.3     1  UNL1        0.0067
     19 C          -4.8990  -19.4169   20.2207 C.3     1  UNL1        0.0322
     20 C          -3.5518  -18.8860   19.8291 C.3     1  UNL1        0.1422
     21 O          -2.7143  -18.1512   20.8333 O.3     1  UNL1       -0.3538
     22 C          -3.2241  -17.9472   22.2293 C.3     1  UNL1        0.1422
     23 C          -4.5712  -18.4780   22.6209 C.3     1  UNL1        0.0322
@<TRIPOS>BOND
     1     8     9    2
     2     9    10    1
     3    10    11    2
     4    11    12    1
     5    12    13    2
     6    13    14    1
     7    14    15    1
     8    15    16    2
     9    16     1    1
    10     1     2    1
    11     2     3    1
    12     3     4    1
    13     4     5    1
    14     5     6    1
    15     6    17    1
    16    17    18    1
    17    18    19    1
    18    19    20    1
    19    20    21    1
    20    21    22    1
    21    22    23    1
    22    16     8    1
    23     6     1    1
    24    23    18    1
    25    14    10    1
    26     4     7    1
@<TRIPOS>MOLECULE
*****
 23 26 0 0 0
SMALL
GASTEIGER

@<TRIPOS>ATOM
      1 N         -15.4355   -4.7283   18.4306 N.pl3   1  UNL1       -0.3066
      2 C         -16.4670   -3.8854   17.7410 C.3     1  UNL1        0.1078
      3 C         -16.4212   -2.3914   17.8673 C.3     1  UNL1        0.0903
      4 N         -15.3440   -1.7403   18.6831 N.3     1  UNL1       -0.2947
      5 C         -14.3124   -2.5832   19.3727 C.3     1  UNL1        0.0885
      6 C         -14.3583   -4.0773   19.2464 C.3     1  UNL1        0.0885
      7 H         -15.8118   -1.1960   19.4078 H       1  UNL1        0.1233
      8 C         -14.7755   -6.9009   17.1680 C.2     1  UNL1        0.0155
      9 C         -14.8213   -8.3949   17.0416 C.2     1  UNL1        0.0184
     10 C         -15.5730   -9.2102   18.0517 C.2     1  UNL1        0.0900
     11 N         -15.7927  -10.6880   18.1858 N.2     1  UNL1       -0.1519
     12 N         -16.6343  -10.9226   19.4051 N.2     1  UNL1       -0.1507
     13 C         -16.9347   -9.5899   20.0245 C.2     1  UNL1        0.1058
     14 C         -16.2787   -8.5316   19.1881 C.3     1  UNL1        0.1083
     15 C         -16.2329   -7.0376   19.3143 C.2     1  UNL1        0.0001
     16 C         -15.4813   -6.2223   18.3042 C.2     1  UNL1        0.0443
     17 C         -13.3268   -4.9201   19.9360 C.3     1  UNL1        0.0213
     18 C         -12.0410   -5.2522   19.2384 C.3     1  UNL1        0.0067
     19 C         -11.6936   -6.6819   18.9466 C.3     1  UNL1        0.0322
     20 C         -10.4078   -7.0140   18.2491 C.3     1  UNL1        0.1422
     21 O          -9.4695   -5.9164   17.8433 O.3     1  UNL1       -0.3538
     22 C          -9.8169   -4.4866   18.1352 C.3     1  UNL1        0.1422
     23 C         -11.1026   -4.1545   18.8327 C.3     1  UNL1        0.0322
@<TRIPOS>BOND
     1     8     9    2
     2     9    10    1
     3    10    11    2
     4    11    12    1
     5    12    13    2
     6    13    14    1
     7    14    15    1
     8    15    16    2
     9    16     1    1
    10     1     2    1
    11     2     3    1
    12     3     4    1
    13     4     5    1
    14     5     6    1
    15     6    17    1
    16    17    18    1
    17    18    19    1
    18    19    20    1
    19    20    21    1
    20    21    22    1
    21    22    23    1
    22    16     8    1
    23     6     1    1
    24    23    18    1
    25    14    10    1
    26     4     7    1
@<TRIPOS>MOLECULE
*****
 23 26 0 0 0
SMALL
GASTEIGER

@<TRIPOS>ATOM
      1 N         -15.1159   -6.6803   19.0058 N.pl3   1  UNL1       -0.3066
      2 C         -16.1179   -7.5367   19.7218 C.3     1  UNL1        0.1078
      3 C         -16.1281   -9.0207   19.5038 C.3     1  UNL1        0.0903
      4 N         -15.1362   -9.6484   18.5699 N.3     1  UNL1       -0.2947
      5 C         -14.1342   -8.7921   17.8539 C.3     1  UNL1        0.0885
      6 C         -14.1241   -7.3080   18.0720 C.3     1  UNL1        0.0885
      7 H         -15.6741  -10.1346   17.8525 H       1  UNL1        0.1233
      8 C         -14.3309   -4.6114   20.3671 C.2     1  UNL1        0.0155
      9 C         -14.3208   -3.1273   20.5851 C.2     1  UNL1        0.0184
     10 C         -15.0858   -2.2282   19.6597 C.2     1  UNL1        0.0900
     11 N         -15.2608   -0.7388   19.6246 N.2     1  UNL1       -0.1519
     12 N         -16.1440   -0.4033   18.4596 N.2     1  UNL1       -0.1507
     13 C         -16.5149   -1.6852   17.7747 C.2     1  UNL1        0.1058
     14 C         -15.8608   -2.8131   18.5164 C.3     1  UNL1        0.1083
     15 C         -15.8709   -4.2971   18.2985 C.2     1  UNL1        0.0001
     16 C         -15.1059   -5.1962   19.2238 C.2     1  UNL1        0.0443
     17 C         -13.1221   -6.4516   17.3560 C.3     1  UNL1        0.0213
     18 C         -11.8282   -6.0926   18.0247 C.3     1  UNL1        0.0067
     19 C         -10.8828   -7.1735   18.4580 C.3     1  UNL1        0.0322
     20 C          -9.5890   -6.8146   19.1266 C.3     1  UNL1        0.1422
     21 O          -9.2405   -5.3748   19.3620 O.3     1  UNL1       -0.3538
     22 C         -10.1860   -4.2938   18.9286 C.3     1  UNL1        0.1422
     23 C         -11.4798   -4.6527   18.2600 C.3     1  UNL1        0.0322
@<TRIPOS>BOND
     1     8     9    2
     2     9    10    1
     3    10    11    2
     4    11    12    1
     5    12    13    2
     6    13    14    1
     7    14    15    1
     8    15    16    2
     9    16     1    1
    10     1     2    1
    11     2     3    1
    12     3     4    1
    13     4     5    1
    14     5     6    1
    15     6    17    1
    16    17    18    1
    17    18    19    1
    18    19    20    1
    19    20    21    1
    20    21    22    1
    21    22    23    1
    22    16     8    1
    23     6     1    1
    24    23    18    1
    25    14    10    1
    26     4     7    1
