@<TRIPOS>MOLECULE
*****
 26 27 0 0 0
SMALL
GASTEIGER

@<TRIPOS>ATOM
      1 C          -5.5132  -19.5068   20.9173 C.ar    1  UNL1        0.0422
      2 C          -4.2647  -20.1567   20.3988 C.ar    1  UNL1        0.0012
      3 C          -2.9448  -19.8742   21.0532 C.ar    1  UNL1        0.0030
      4 C          -2.8734  -18.9418   22.2259 C.ar    1  UNL1        0.0369
      5 C          -4.1219  -18.2919   22.7444 C.ar    1  UNL1        0.1389
      6 C          -5.4418  -18.5744   22.0901 C.ar    1  UNL1        0.0379
      7 C          -6.8330  -19.7893   20.2630 C.3     1  UNL1        0.2969
      8 F          -7.3146  -18.4206   20.6434 F       1  UNL1       -0.1981
      9 F          -6.3515  -21.1580   19.8826 F       1  UNL1       -0.1981
     10 C          -8.1529  -20.0718   19.6087 C.3     1  UNL1        0.1409
     11 N          -9.0984  -18.9462   19.3106 N.3     1  UNL1       -0.2850
     12 H          -8.6811  -18.1005   19.6991 H       1  UNL1        0.1239
     13 C         -10.5114  -19.0012   19.8110 C.3     1  UNL1        0.1553
     14 C         -11.5090  -16.2324   22.4735 C.3     1  UNL1        0.1149
     15 N         -10.8820  -17.4502   21.8622 N.am    1  UNL1       -0.2749
     16 C          -9.9984  -18.3351   22.6908 C.3     1  UNL1        0.1149
     17 C         -11.1385  -17.7833   20.4223 C.2     1  UNL1        0.2419
     18 O         -12.0220  -16.8986   19.5938 O.2     1  UNL1       -0.2734
     19 O          -4.0506  -17.3594   23.9172 O.3     1  UNL1       -0.4706
     20 C          -4.8082  -16.0650   23.8934 C.3     1  UNL1        0.2320
     21 C          -5.9596  -15.8526   24.8311 C.ar    1  UNL1        0.0212
     22 C          -7.3665  -15.8937   24.3126 C.ar    1  UNL1       -0.0007
     23 C          -8.5179  -15.6813   25.2502 C.ar    1  UNL1       -0.0002
     24 C          -8.2623  -15.4277   26.7064 C.ar    1  UNL1       -0.0000
     25 C          -6.8554  -15.3866   27.2249 C.ar    1  UNL1       -0.0002
     26 C          -5.7041  -15.5990   26.2872 C.ar    1  UNL1       -0.0007
@<TRIPOS>BOND
     1    14    15    1
     2    15    16    1
     3    15    17   am
     4    17    18    2
     5    17    13    1
     6    13    11    1
     7    11    10    1
     8    10     7    1
     9     7     8    1
    10     7     9    1
    11     7     1    1
    12     1     2   ar
    13     2     3   ar
    14     3     4   ar
    15     4     5   ar
    16     5    19    1
    17    19    20    1
    18    20    21    1
    19    21    22   ar
    20    22    23   ar
    21    23    24   ar
    22    24    25   ar
    23    25    26   ar
    24     5     6   ar
    25     6     1   ar
    26    26    21   ar
    27    11    12    1
@<TRIPOS>MOLECULE
*****
 26 27 0 0 0
SMALL
GASTEIGER

@<TRIPOS>ATOM
      1 C          -8.2835  -19.2481   20.7641 C.ar    1  UNL1        0.0422
      2 C          -9.3574  -19.4678   19.7401 C.ar    1  UNL1        0.0012
      3 C         -10.5749  -18.5917   19.7303 C.ar    1  UNL1        0.0030
      4 C         -10.7186  -17.4959   20.7444 C.ar    1  UNL1        0.0369
      5 C          -9.6447  -17.2762   21.7684 C.ar    1  UNL1        0.1389
      6 C          -8.4272  -18.1523   21.7782 C.ar    1  UNL1        0.0379
      7 C          -7.0660  -20.1242   20.7739 C.3     1  UNL1        0.2969
      8 F          -6.7669  -19.6927   22.1790 F       1  UNL1       -0.1981
      9 F          -7.3652  -20.5557   19.3688 F       1  UNL1       -0.1981
     10 C          -5.8485  -21.0003   20.7837 C.3     1  UNL1        0.1409
     11 N          -4.6363  -20.6087   19.9919 N.3     1  UNL1       -0.2850
     12 H          -3.9243  -21.3160   20.1742 H       1  UNL1        0.1239
     13 C          -3.9899  -19.2746   20.2205 C.3     1  UNL1        0.1553
     14 C          -0.2067  -18.1243   19.8820 C.3     1  UNL1        0.1149
     15 N          -1.6871  -18.2116   19.6570 N.am    1  UNL1       -0.2749
     16 C          -2.3454  -17.3233   18.6432 C.3     1  UNL1        0.1149
     17 C          -2.5094  -19.1873   20.4456 C.2     1  UNL1        0.2419
     18 O          -1.8512  -20.0756   21.4594 O.2     1  UNL1       -0.2734
     19 O          -9.7883  -16.1803   22.7826 O.3     1  UNL1       -0.4706
     20 C          -9.6021  -16.4788   24.2407 C.3     1  UNL1        0.2320
     21 C          -8.3334  -16.0764   24.9326 C.ar    1  UNL1        0.0212
     22 C          -7.1161  -15.7326   24.1265 C.ar    1  UNL1       -0.0007
     23 C          -5.8475  -15.3303   24.8184 C.ar    1  UNL1       -0.0002
     24 C          -5.7963  -15.2718   26.3164 C.ar    1  UNL1       -0.0000
     25 C          -7.0136  -15.6156   27.1225 C.ar    1  UNL1       -0.0002
     26 C          -8.2822  -16.0179   26.4306 C.ar    1  UNL1       -0.0007
@<TRIPOS>BOND
     1    14    15    1
     2    15    16    1
     3    15    17   am
     4    17    18    2
     5    17    13    1
     6    13    11    1
     7    11    10    1
     8    10     7    1
     9     7     8    1
    10     7     9    1
    11     7     1    1
    12     1     2   ar
    13     2     3   ar
    14     3     4   ar
    15     4     5   ar
    16     5    19    1
    17    19    20    1
    18    20    21    1
    19    21    22   ar
    20    22    23   ar
    21    23    24   ar
    22    24    25   ar
    23    25    26   ar
    24     5     6   ar
    25     6     1   ar
    26    26    21   ar
    27    11    12    1
@<TRIPOS>MOLECULE
*****
 26 27 0 0 0
SMALL
GASTEIGER

@<TRIPOS>ATOM
      1 C          -8.1410  -19.1974   20.6419 C.ar    1  UNL1        0.0422
      2 C          -9.2590  -19.5099   19.6919 C.ar    1  UNL1        0.0012
      3 C         -10.5379  -18.7285   19.7557 C.ar    1  UNL1        0.0030
      4 C         -10.6987  -17.6347   20.7694 C.ar    1  UNL1        0.0369
      5 C          -9.5807  -17.3223   21.7194 C.ar    1  UNL1        0.1389
      6 C          -8.3019  -18.1037   21.6556 C.ar    1  UNL1        0.0379
      7 C          -6.8622  -19.9788   20.5781 C.3     1  UNL1        0.2969
      8 F          -7.3586  -20.6914   19.3551 F       1  UNL1       -0.1981
      9 F          -6.3658  -19.2662   21.8011 F       1  UNL1       -0.1981
     10 C          -5.5834  -20.7602   20.5143 C.3     1  UNL1        0.1409
     11 N          -4.3425  -20.1240   19.9618 N.3     1  UNL1       -0.2850
     12 H          -4.0311  -20.7100   19.1872 H       1  UNL1        0.1239
     13 C          -3.1516  -19.9088   20.8480 C.3     1  UNL1        0.1553
     14 C          -2.0943  -16.1967   21.7711 C.3     1  UNL1        0.1149
     15 N          -2.2406  -17.4811   21.0104 N.am    1  UNL1       -0.2749
     16 C          -1.6224  -17.6223   19.6510 C.3     1  UNL1        0.1149
     17 C          -3.0053  -18.6244   21.6089 C.2     1  UNL1        0.2419
     18 O          -3.6235  -18.4832   22.9682 O.2     1  UNL1       -0.2734
     19 O          -9.7415  -16.2284   22.7332 O.3     1  UNL1       -0.4706
     20 C          -9.5951  -16.5329   24.1946 C.3     1  UNL1        0.2320
     21 C          -8.3489  -16.1269   24.9242 C.ar    1  UNL1        0.0212
     22 C          -8.3310  -16.1060   26.4239 C.ar    1  UNL1       -0.0007
     23 C          -7.0848  -15.7000   27.1534 C.ar    1  UNL1       -0.0002
     24 C          -5.8566  -15.3149   26.3832 C.ar    1  UNL1       -0.0000
     25 C          -5.8745  -15.3359   24.8835 C.ar    1  UNL1       -0.0002
     26 C          -7.1207  -15.7419   24.1540 C.ar    1  UNL1       -0.0007
@<TRIPOS>BOND
     1    14    15    1
     2    15    16    1
     3    15    17   am
     4    17    18    2
     5    17    13    1
     6    13    11    1
     7    11    10    1
     8    10     7    1
     9     7     8    1
    10     7     9    1
    11     7     1    1
    12     1     2   ar
    13     2     3   ar
    14     3     4   ar
    15     4     5   ar
    16     5    19    1
    17    19    20    1
    18    20    21    1
    19    21    22   ar
    20    22    23   ar
    21    23    24   ar
    22    24    25   ar
    23    25    26   ar
    24     5     6   ar
    25     6     1   ar
    26    26    21   ar
    27    11    12    1
@<TRIPOS>MOLECULE
*****
 26 27 0 0 0
SMALL
GASTEIGER

@<TRIPOS>ATOM
      1 C          -5.5067  -15.9727   24.5794 C.ar    1  UNL1        0.0422
      2 C          -5.2761  -15.6680   26.0298 C.ar    1  UNL1        0.0012
      3 C          -6.4438  -15.4363   26.9424 C.ar    1  UNL1        0.0030
      4 C          -7.8421  -15.5093   26.4045 C.ar    1  UNL1        0.0369
      5 C          -8.0727  -15.8140   24.9540 C.ar    1  UNL1        0.1389
      6 C          -6.9050  -16.0457   24.0414 C.ar    1  UNL1        0.0379
      7 C          -4.3390  -16.2044   23.6668 C.3     1  UNL1        0.2969
      8 F          -4.5441  -14.8480   23.0600 F       1  UNL1       -0.1981
      9 F          -4.1339  -17.5607   24.2736 F       1  UNL1       -0.1981
     10 C          -3.1712  -16.4360   22.7543 C.3     1  UNL1        0.1409
     11 N          -2.2833  -17.6273   22.9602 N.3     1  UNL1       -0.2850
     12 H          -1.3343  -17.2710   23.0740 H       1  UNL1        0.1239
     13 C          -2.2193  -18.7042   21.9180 C.3     1  UNL1        0.1553
     14 C          -1.9171  -17.6190   18.1126 C.3     1  UNL1        0.1149
     15 N          -1.5445  -17.9265   19.5326 N.am    1  UNL1       -0.2749
     16 C          -0.1243  -17.7640   19.9874 C.3     1  UNL1        0.1149
     17 C          -2.5920  -18.3966   20.4979 C.2     1  UNL1        0.2419
     18 O          -4.0121  -18.5592   20.0431 O.2     1  UNL1       -0.2734
     19 O          -9.4710  -15.8870   24.4160 O.3     1  UNL1       -0.4706
     20 C          -9.7018  -16.1966   22.9666 C.3     1  UNL1        0.2320
     21 C         -10.1499  -17.5676   22.5546 C.ar    1  UNL1        0.0212
     22 C         -10.5709  -17.8250   21.1381 C.ar    1  UNL1       -0.0007
     23 C         -11.0190  -19.1959   20.7262 C.ar    1  UNL1       -0.0002
     24 C         -11.0461  -20.3095   21.7308 C.ar    1  UNL1       -0.0000
     25 C         -10.6251  -20.0521   23.1473 C.ar    1  UNL1       -0.0002
     26 C         -10.1770  -18.6812   23.5592 C.ar    1  UNL1       -0.0007
@<TRIPOS>BOND
     1    14    15    1
     2    15    16    1
     3    15    17   am
     4    17    18    2
     5    17    13    1
     6    13    11    1
     7    11    10    1
     8    10     7    1
     9     7     8    1
    10     7     9    1
    11     7     1    1
    12     1     2   ar
    13     2     3   ar
    14     3     4   ar
    15     4     5   ar
    16     5    19    1
    17    19    20    1
    18    20    21    1
    19    21    22   ar
    20    22    23   ar
    21    23    24   ar
    22    24    25   ar
    23    25    26   ar
    24     5     6   ar
    25     6     1   ar
    26    26    21   ar
    27    11    12    1
@<TRIPOS>MOLECULE
*****
 26 27 0 0 0
SMALL
GASTEIGER

@<TRIPOS>ATOM
      1 C          -7.2643  -19.3210   22.0330 C.ar    1  UNL1        0.0422
      2 C          -6.4022  -20.2403   21.2196 C.ar    1  UNL1        0.0012
      3 C          -4.9260  -19.9930   21.1218 C.ar    1  UNL1        0.0030
      4 C          -4.3118  -18.8266   21.8374 C.ar    1  UNL1        0.0369
      5 C          -5.1739  -17.9074   22.6509 C.ar    1  UNL1        0.1389
      6 C          -6.6502  -18.1546   22.7487 C.ar    1  UNL1        0.0379
      7 C          -8.7406  -19.5682   22.1308 C.3     1  UNL1        0.2969
      8 F          -8.9366  -18.9289   20.7881 F       1  UNL1       -0.1981
      9 F          -8.5446  -20.2076   23.4735 F       1  UNL1       -0.1981
     10 C         -10.2168  -19.8154   22.2286 C.3     1  UNL1        0.1409
     11 N         -11.0213  -19.1390   23.2987 N.3     1  UNL1       -0.2850
     12 H         -11.8664  -19.6953   23.4277 H       1  UNL1        0.1239
     13 C         -11.4624  -17.7166   23.1192 C.3     1  UNL1        0.1553
     14 C         -11.4589  -15.8178   19.6343 C.3     1  UNL1        0.1149
     15 N         -11.0214  -16.3027   20.9846 N.am    1  UNL1       -0.2749
     16 C          -9.7052  -15.8585   21.5508 C.3     1  UNL1        0.1149
     17 C         -11.8999  -17.2317   21.7688 C.2     1  UNL1        0.2419
     18 O         -13.2160  -17.6759   21.2027 O.2     1  UNL1       -0.2734
     19 O          -4.5598  -16.7409   23.3666 O.3     1  UNL1       -0.4706
     20 C          -5.3813  -15.5185   23.6511 C.3     1  UNL1        0.2320
     21 C          -6.2914  -15.4873   24.8432 C.ar    1  UNL1        0.0212
     22 C          -5.7181  -15.5690   26.2268 C.ar    1  UNL1       -0.0007
     23 C          -6.6281  -15.5378   27.4188 C.ar    1  UNL1       -0.0002
     24 C          -8.1115  -15.4247   27.2270 C.ar    1  UNL1       -0.0000
     25 C          -8.6848  -15.3430   25.8433 C.ar    1  UNL1       -0.0002
     26 C          -7.7748  -15.3743   24.6514 C.ar    1  UNL1       -0.0007
@<TRIPOS>BOND
     1    14    15    1
     2    15    16    1
     3    15    17   am
     4    17    18    2
     5    17    13    1
     6    13    11    1
     7    11    10    1
     8    10     7    1
     9     7     8    1
    10     7     9    1
    11     7     1    1
    12     1     2   ar
    13     2     3   ar
    14     3     4   ar
    15     4     5   ar
    16     5    19    1
    17    19    20    1
    18    20    21    1
    19    21    22   ar
    20    22    23   ar
    21    23    24   ar
    22    24    25   ar
    23    25    26   ar
    24     5     6   ar
    25     6     1   ar
    26    26    21   ar
    27    11    12    1
@<TRIPOS>MOLECULE
*****
 26 27 0 0 0
SMALL
GASTEIGER

@<TRIPOS>ATOM
      1 C          -5.3612  -16.0091   24.4231 C.ar    1  UNL1        0.0422
      2 C          -5.1680  -15.6333   25.8623 C.ar    1  UNL1        0.0012
      3 C          -6.3596  -15.4057   26.7445 C.ar    1  UNL1        0.0030
      4 C          -7.7444  -15.5538   26.1874 C.ar    1  UNL1        0.0369
      5 C          -7.9376  -15.9296   24.7482 C.ar    1  UNL1        0.1389
      6 C          -6.7460  -16.1572   23.8660 C.ar    1  UNL1        0.0379
      7 C          -4.1696  -16.2368   23.5409 C.3     1  UNL1        0.2969
      8 F          -3.9385  -17.5661   24.1962 F       1  UNL1       -0.1981
      9 F          -4.4007  -14.9074   22.8857 F       1  UNL1       -0.1981
     10 C          -2.9780  -16.4644   22.6587 C.3     1  UNL1        0.1409
     11 N          -2.2548  -17.7779   22.6993 N.3     1  UNL1       -0.2850
     12 H          -1.2588  -17.5642   22.7511 H       1  UNL1        0.1239
     13 C          -2.4285  -18.7645   21.5828 C.3     1  UNL1        0.1553
     14 C          -6.0616  -19.0295   20.0080 C.3     1  UNL1        0.1149
     15 N          -4.9189  -19.1772   20.9683 N.am    1  UNL1       -0.2749
     16 C          -5.1238  -19.8854   22.2747 C.3     1  UNL1        0.1149
     17 C          -3.5712  -18.6167   20.6224 C.2     1  UNL1        0.2419
     18 O          -3.3663  -17.9086   19.3161 O.2     1  UNL1       -0.2734
     19 O          -9.3225  -16.0777   24.1911 O.3     1  UNL1       -0.4706
     20 C         -10.0086  -17.4109   24.2318 C.3     1  UNL1        0.2320
     21 C         -10.2685  -18.1599   22.9584 C.ar    1  UNL1        0.0212
     22 C          -9.9791  -17.5140   21.6359 C.ar    1  UNL1       -0.0007
     23 C         -10.2390  -18.2630   20.3626 C.ar    1  UNL1       -0.0002
     24 C         -10.7883  -19.6579   20.4117 C.ar    1  UNL1       -0.0000
     25 C         -11.0778  -20.3039   21.7342 C.ar    1  UNL1       -0.0002
     26 C         -10.8179  -19.5549   23.0075 C.ar    1  UNL1       -0.0007
@<TRIPOS>BOND
     1    14    15    1
     2    15    16    1
     3    15    17   am
     4    17    18    2
     5    17    13    1
     6    13    11    1
     7    11    10    1
     8    10     7    1
     9     7     8    1
    10     7     9    1
    11     7     1    1
    12     1     2   ar
    13     2     3   ar
    14     3     4   ar
    15     4     5   ar
    16     5    19    1
    17    19    20    1
    18    20    21    1
    19    21    22   ar
    20    22    23   ar
    21    23    24   ar
    22    24    25   ar
    23    25    26   ar
    24     5     6   ar
    25     6     1   ar
    26    26    21   ar
    27    11    12    1
@<TRIPOS>MOLECULE
*****
 26 27 0 0 0
SMALL
GASTEIGER

@<TRIPOS>ATOM
      1 C          -6.4822  -16.7317   23.8244 C.ar    1  UNL1        0.0422
      2 C          -6.0426  -15.8960   24.9899 C.ar    1  UNL1        0.0012
      3 C          -7.0581  -15.1478   25.8017 C.ar    1  UNL1        0.0030
      4 C          -8.5131  -15.2351   25.4479 C.ar    1  UNL1        0.0369
      5 C          -8.9527  -16.0708   24.2824 C.ar    1  UNL1        0.1389
      6 C          -7.9372  -16.8190   23.4706 C.ar    1  UNL1        0.0379
      7 C          -5.4667  -17.4799   23.0127 C.3     1  UNL1        0.2969
      8 F          -6.5406  -18.4052   22.5221 F       1  UNL1       -0.1981
      9 F          -4.3928  -16.5547   23.5033 F       1  UNL1       -0.1981
     10 C          -4.4512  -18.2282   22.2010 C.3     1  UNL1        0.1409
     11 N          -4.8559  -18.8858   20.9150 N.3     1  UNL1       -0.2850
     12 H          -5.5342  -19.6088   21.1548 H       1  UNL1        0.1239
     13 C          -3.8198  -19.5352   20.0462 C.3     1  UNL1        0.1553
     14 C          -0.1241  -18.0937   19.9256 C.3     1  UNL1        0.1149
     15 N          -1.5813  -18.2852   19.6257 N.am    1  UNL1       -0.2749
     16 C          -2.2573  -17.4180   18.6054 C.3     1  UNL1        0.1149
     17 C          -2.3625  -19.3438   20.3461 C.2     1  UNL1        0.2419
     18 O          -1.6866  -20.2110   21.3664 O.2     1  UNL1       -0.2734
     19 O         -10.4078  -16.1582   23.9285 O.3     1  UNL1       -0.4706
     20 C         -11.0268  -17.4900   23.6238 C.3     1  UNL1        0.2320
     21 C         -10.9455  -18.0552   22.2367 C.ar    1  UNL1        0.0212
     22 C         -11.1682  -17.1652   21.0500 C.ar    1  UNL1       -0.0007
     23 C         -11.0868  -17.7304   19.6629 C.ar    1  UNL1       -0.0002
     24 C         -10.7827  -19.1856   19.4626 C.ar    1  UNL1       -0.0000
     25 C         -10.5600  -20.0755   20.6494 C.ar    1  UNL1       -0.0002
     26 C         -10.6413  -19.5103   22.0364 C.ar    1  UNL1       -0.0007
@<TRIPOS>BOND
     1    14    15    1
     2    15    16    1
     3    15    17   am
     4    17    18    2
     5    17    13    1
     6    13    11    1
     7    11    10    1
     8    10     7    1
     9     7     8    1
    10     7     9    1
    11     7     1    1
    12     1     2   ar
    13     2     3   ar
    14     3     4   ar
    15     4     5   ar
    16     5    19    1
    17    19    20    1
    18    20    21    1
    19    21    22   ar
    20    22    23   ar
    21    23    24   ar
    22    24    25   ar
    23    25    26   ar
    24     5     6   ar
    25     6     1   ar
    26    26    21   ar
    27    11    12    1
@<TRIPOS>MOLECULE
*****
 26 27 0 0 0
SMALL
GASTEIGER

@<TRIPOS>ATOM
      1 C          -7.8760  -19.6221   20.7942 C.ar    1  UNL1        0.0422
      2 C          -8.2447  -19.9342   19.3742 C.ar    1  UNL1        0.0012
      3 C          -9.6771  -19.8536   18.9362 C.ar    1  UNL1        0.0030
      4 C         -10.7407  -19.4610   19.9183 C.ar    1  UNL1        0.0369
      5 C         -10.3719  -19.1489   21.3383 C.ar    1  UNL1        0.1389
      6 C          -8.9396  -19.2294   21.7763 C.ar    1  UNL1        0.0379
      7 C          -6.4436  -19.7026   21.2322 C.3     1  UNL1        0.2969
      8 F          -6.8304  -20.6587   22.3214 F       1  UNL1       -0.1981
      9 F          -6.0568  -18.7466   20.1430 F       1  UNL1       -0.1981
     10 C          -5.0112  -19.7832   21.6702 C.3     1  UNL1        0.1409
     11 N          -4.4547  -18.7535   22.6083 N.3     1  UNL1       -0.2850
     12 H          -4.7648  -17.8444   22.2651 H       1  UNL1        0.1239
     13 C          -2.9730  -18.6542   22.8195 C.3     1  UNL1        0.1553
     14 C          -0.5238  -17.8931   19.7910 C.3     1  UNL1        0.1149
     15 N          -1.4613  -17.6831   20.9428 N.am    1  UNL1       -0.2749
     16 C          -1.8247  -16.2919   21.3701 C.3     1  UNL1        0.1149
     17 C          -2.0354  -18.8643   21.6676 C.2     1  UNL1        0.2419
     18 O          -1.6720  -20.2554   21.2404 O.2     1  UNL1       -0.2734
     19 O         -11.4356  -18.7562   22.3204 O.3     1  UNL1       -0.4706
     20 C         -11.4409  -17.3764   22.9085 C.3     1  UNL1        0.2320
     21 C         -10.1450  -16.6673   23.1696 C.ar    1  UNL1        0.0212
     22 C          -9.5321  -16.7048   24.5381 C.ar    1  UNL1       -0.0007
     23 C          -8.2363  -15.9958   24.7991 C.ar    1  UNL1       -0.0002
     24 C          -7.5534  -15.2494   23.6917 C.ar    1  UNL1       -0.0000
     25 C          -8.1663  -15.2120   22.3231 C.ar    1  UNL1       -0.0002
     26 C          -9.4621  -15.9209   22.0621 C.ar    1  UNL1       -0.0007
@<TRIPOS>BOND
     1    14    15    1
     2    15    16    1
     3    15    17   am
     4    17    18    2
     5    17    13    1
     6    13    11    1
     7    11    10    1
     8    10     7    1
     9     7     8    1
    10     7     9    1
    11     7     1    1
    12     1     2   ar
    13     2     3   ar
    14     3     4   ar
    15     4     5   ar
    16     5    19    1
    17    19    20    1
    18    20    21    1
    19    21    22   ar
    20    22    23   ar
    21    23    24   ar
    22    24    25   ar
    23    25    26   ar
    24     5     6   ar
    25     6     1   ar
    26    26    21   ar
    27    11    12    1
@<TRIPOS>MOLECULE
*****
 26 27 0 0 0
SMALL
GASTEIGER

@<TRIPOS>ATOM
      1 C          -6.2767  -16.4873   23.7731 C.ar    1  UNL1        0.0422
      2 C          -6.4260  -15.2227   24.5656 C.ar    1  UNL1        0.0012
      3 C          -7.7867  -14.7683   25.0038 C.ar    1  UNL1        0.0030
      4 C          -8.9981  -15.5787   24.6494 C.ar    1  UNL1        0.0369
      5 C          -8.8489  -16.8434   23.8568 C.ar    1  UNL1        0.1389
      6 C          -7.4881  -17.2977   23.4187 C.ar    1  UNL1        0.0379
      7 C          -4.9159  -16.9417   23.3349 C.3     1  UNL1        0.2969
      8 F          -4.3214  -15.6694   23.8620 F       1  UNL1       -0.1981
      9 F          -5.5105  -18.2139   22.8078 F       1  UNL1       -0.1981
     10 C          -3.5552  -17.3960   22.8967 C.3     1  UNL1        0.1409
     11 N          -3.2746  -18.8585   22.7172 N.3     1  UNL1       -0.2850
     12 H          -2.6432  -19.1318   23.4703 H       1  UNL1        0.1239
     13 C          -2.6645  -19.3538   21.4396 C.3     1  UNL1        0.1553
     14 C          -2.1682  -17.3410   18.0554 C.3     1  UNL1        0.1149
     15 N          -1.8628  -18.0338   19.3503 N.am    1  UNL1       -0.2749
     16 C          -0.4503  -18.0993   19.8510 C.3     1  UNL1        0.1149
     17 C          -2.9699  -18.6610   20.1446 C.2     1  UNL1        0.2419
     18 O          -4.3824  -18.5955   19.6440 O.2     1  UNL1       -0.2734
     19 O         -10.0603  -17.6538   23.5024 O.3     1  UNL1       -0.4706
     20 C          -9.9046  -19.0710   23.0364 C.3     1  UNL1        0.2320
     21 C          -9.5619  -19.3563   21.6042 C.ar    1  UNL1        0.0212
     22 C         -10.6550  -19.5314   20.5920 C.ar    1  UNL1       -0.0007
     23 C         -10.3123  -19.8166   19.1599 C.ar    1  UNL1       -0.0002
     24 C          -8.8765  -19.9268   18.7398 C.ar    1  UNL1       -0.0000
     25 C          -7.7834  -19.7517   19.7520 C.ar    1  UNL1       -0.0002
     26 C          -8.1261  -19.4665   21.1842 C.ar    1  UNL1       -0.0007
@<TRIPOS>BOND
     1    14    15    1
     2    15    16    1
     3    15    17   am
     4    17    18    2
     5    17    13    1
     6    13    11    1
     7    11    10    1
     8    10     7    1
     9     7     8    1
    10     7     9    1
    11     7     1    1
    12     1     2   ar
    13     2     3   ar
    14     3     4   ar
    15     4     5   ar
    16     5    19    1
    17    19    20    1
    18    20    21    1
    19    21    22   ar
    20    22    23   ar
    21    23    24   ar
    22    24    25   ar
    23    25    26   ar
    24     5     6   ar
    25     6     1   ar
    26    26    21   ar
    27    11    12    1
