@<TRIPOS>MOLECULE
*****
 28 31 0 0 0
SMALL
GASTEIGER

@<TRIPOS>ATOM
      1 C           2.3941    4.9717   18.6320 C.3     1  UNL1        0.0311
      2 C           2.7231    3.5144   18.4976 C.ar    1  UNL1       -0.0204
      3 C           4.1390    3.0849   18.2510 C.ar    1  UNL1       -0.0041
      4 C           4.4680    1.6276   18.1166 C.ar    1  UNL1        0.0042
      5 C           3.3813    0.5999   18.2288 C.ar    1  UNL1        0.0534
      6 C           1.9654    1.0294   18.4755 C.ar    1  UNL1        0.0057
      7 C           1.6364    2.4867   18.6099 C.ar    1  UNL1        0.0138
      8 C           0.2204    2.9162   18.8565 C.ar    1  UNL1        0.0810
      9 C          -0.5870    3.5136   17.7424 C.ar    1  UNL1        0.0193
     10 C          -2.0028    3.9431   17.9890 C.ar    1  UNL1        0.0076
     11 C          -2.6113    3.7752   19.3497 C.ar    1  UNL1        0.0725
     12 C          -1.8039    3.1779   20.4639 C.ar    1  UNL1        0.1033
     13 N          -0.3880    2.7484   20.2172 N.ar    1  UNL1       -0.2437
     14 C          -4.0272    4.2047   19.5963 C.2     1  UNL1        0.2474
     15 O          -4.7407    5.0523   18.5852 O.2     1  UNL1       -0.2701
     16 N          -4.7295    3.7867   20.8541 N.am    1  UNL1       -0.3008
     17 H          -4.2612    3.2304   21.5178 H       1  UNL1        0.1497
     18 C          -6.1454    4.2162   21.1007 C.3     1  UNL1        0.0896
     19 C          -6.6598    4.3335   22.5048 C.3     1  UNL1        0.0196
     20 C          -7.8060    4.4920   23.4593 C.3     1  UNL1        0.0017
     21 C          -6.4047    4.3781   23.9822 C.3     1  UNL1        0.0017
     22 C           3.7103   -0.8574   18.0944 C.2     1  UNL1        0.2458
     23 O           4.3477   -1.3695   16.8369 O.2     1  UNL1       -0.2701
     24 N           3.4020   -1.8026   19.2176 N.am    1  UNL1       -0.3025
     25 H           2.9837   -1.4665   20.0430 H       1  UNL1        0.1497
     26 C           3.7311   -3.2598   19.0832 C.3     1  UNL1        0.0720
     27 C           3.3348   -4.6995   19.2254 C.3     1  UNL1        0.0213
     28 C           4.6973   -4.3442   18.7082 C.3     1  UNL1        0.0213
@<TRIPOS>BOND
     1     1     2    1
     2     2     3   ar
     3     3     4   ar
     4     4     5   ar
     5     5    22    1
     6    22    23    2
     7    22    24   am
     8    24    26    1
     9    26    27    1
    10    27    28    1
    11     5     6   ar
    12     6     7   ar
    13     7     8    1
    14     8     9   ar
    15     9    10   ar
    16    10    11   ar
    17    11    14    1
    18    14    15    2
    19    14    16   am
    20    16    18    1
    21    18    19    1
    22    19    20    1
    23    20    21    1
    24    11    12   ar
    25    12    13   ar
    26     7     2   ar
    27    13     8   ar
    28    28    26    1
    29    21    19    1
    30    24    25    1
    31    16    17    1
@<TRIPOS>MOLECULE
*****
 28 31 0 0 0
SMALL
GASTEIGER

@<TRIPOS>ATOM
      1 C           3.5348   -0.7327   17.3534 C.3     1  UNL1        0.0311
      2 C           4.2130   -1.4757   18.4660 C.ar    1  UNL1       -0.0204
      3 C           5.3004   -2.4614   18.1561 C.ar    1  UNL1       -0.0041
      4 C           5.9786   -3.2044   19.2688 C.ar    1  UNL1        0.0042
      5 C           5.5694   -2.9618   20.6913 C.ar    1  UNL1        0.0534
      6 C           4.4820   -1.9761   21.0012 C.ar    1  UNL1        0.0057
      7 C           3.8038   -1.2331   19.8886 C.ar    1  UNL1        0.0138
      8 C           2.7164   -0.2475   20.1985 C.ar    1  UNL1        0.0810
      9 C           1.2856   -0.6963   20.2355 C.ar    1  UNL1        0.0193
     10 C           0.1981    0.2893   20.5454 C.ar    1  UNL1        0.0076
     11 C           0.5415    1.7238   20.8185 C.ar    1  UNL1        0.0725
     12 C           1.9723    2.1726   20.7815 C.ar    1  UNL1        0.1033
     13 N           3.0598    1.1869   20.4716 N.ar    1  UNL1       -0.2437
     14 C          -0.5459    2.7094   21.1284 C.2     1  UNL1        0.2474
     15 O          -0.2540    3.9018   21.9902 O.2     1  UNL1       -0.2701
     16 N          -1.9253    2.5025   20.5765 N.am    1  UNL1       -0.3008
     17 H          -2.1169    1.7199   20.0108 H       1  UNL1        0.1497
     18 C          -3.0127    3.4881   20.8864 C.3     1  UNL1        0.0896
     19 C          -3.7228    3.4309   22.2065 C.3     1  UNL1        0.0196
     20 C          -3.7024    3.5719   23.6997 C.3     1  UNL1        0.0017
     21 C          -4.9731    3.1910   22.9996 C.3     1  UNL1        0.0017
     22 C           6.2476   -3.7048   21.8039 C.2     1  UNL1        0.2458
     23 O           7.2891   -4.7377   21.4904 O.2     1  UNL1       -0.2701
     24 N           5.8844   -3.4148   23.2301 N.am    1  UNL1       -0.3025
     25 H           5.2008   -2.7369   23.4359 H       1  UNL1        0.1497
     26 C           6.5626   -4.1579   24.3427 C.3     1  UNL1        0.0720
     27 C           7.3444   -5.3433   24.8258 C.3     1  UNL1        0.0213
     28 C           6.9554   -4.2593   25.7868 C.3     1  UNL1        0.0213
@<TRIPOS>BOND
     1     1     2    1
     2     2     3   ar
     3     3     4   ar
     4     4     5   ar
     5     5    22    1
     6    22    23    2
     7    22    24   am
     8    24    26    1
     9    26    27    1
    10    27    28    1
    11     5     6   ar
    12     6     7   ar
    13     7     8    1
    14     8     9   ar
    15     9    10   ar
    16    10    11   ar
    17    11    14    1
    18    14    15    2
    19    14    16   am
    20    16    18    1
    21    18    19    1
    22    19    20    1
    23    20    21    1
    24    11    12   ar
    25    12    13   ar
    26     7     2   ar
    27    13     8   ar
    28    28    26    1
    29    21    19    1
    30    24    25    1
    31    16    17    1
@<TRIPOS>MOLECULE
*****
 28 31 0 0 0
SMALL
GASTEIGER

@<TRIPOS>ATOM
      1 C           7.1744   -4.3892   31.5938 C.3     1  UNL1        0.0311
      2 C           6.6392   -3.6082   30.4304 C.ar    1  UNL1       -0.0204
      3 C           6.8022   -4.1343   29.0352 C.ar    1  UNL1       -0.0041
      4 C           6.2671   -3.3532   27.8718 C.ar    1  UNL1        0.0042
      5 C           5.5688   -2.0461   28.1036 C.ar    1  UNL1        0.0534
      6 C           5.4058   -1.5200   29.4988 C.ar    1  UNL1        0.0057
      7 C           5.9410   -2.3010   30.6622 C.ar    1  UNL1        0.0138
      8 C           5.7779   -1.7749   32.0574 C.ar    1  UNL1        0.0810
      9 C           6.8679   -0.9552   32.6820 C.ar    1  UNL1        0.0193
     10 C           6.7049   -0.4291   34.0772 C.ar    1  UNL1        0.0076
     11 C           5.4518   -0.7225   34.8478 C.ar    1  UNL1        0.0725
     12 C           4.3618   -1.5421   34.2232 C.ar    1  UNL1        0.1033
     13 N           4.5249   -2.0683   32.8280 N.ar    1  UNL1       -0.2437
     14 C           5.2888   -0.1963   36.2430 C.2     1  UNL1        0.2474
     15 O           6.4256   -0.2893   37.2172 O.2     1  UNL1       -0.2701
     16 N           3.9891    0.4228   36.6640 N.am    1  UNL1       -0.3008
     17 H           3.2429    0.4838   36.0246 H       1  UNL1        0.1497
     18 C           3.8260    0.9490   38.0591 C.3     1  UNL1        0.0896
     19 C           2.4650    0.9986   38.6878 C.3     1  UNL1        0.0196
     20 C           1.2831    1.7886   39.1660 C.3     1  UNL1        0.0017
     21 C           1.2897    0.2945   39.2983 C.3     1  UNL1        0.0017
     22 C           5.0336   -1.2650   26.9402 C.2     1  UNL1        0.2458
     23 O           5.3482    0.1957   26.8091 O.2     1  UNL1       -0.2701
     24 N           4.1838   -1.9447   25.9078 N.am    1  UNL1       -0.3025
     25 H           3.9773   -2.9035   25.9938 H       1  UNL1        0.1497
     26 C           3.6486   -1.1637   24.7444 C.3     1  UNL1        0.0720
     27 C           3.6286   -0.8750   23.2726 C.3     1  UNL1        0.0213
     28 C           2.7418   -0.0995   24.2012 C.3     1  UNL1        0.0213
@<TRIPOS>BOND
     1     1     2    1
     2     2     3   ar
     3     3     4   ar
     4     4     5   ar
     5     5    22    1
     6    22    23    2
     7    22    24   am
     8    24    26    1
     9    26    27    1
    10    27    28    1
    11     5     6   ar
    12     6     7   ar
    13     7     8    1
    14     8     9   ar
    15     9    10   ar
    16    10    11   ar
    17    11    14    1
    18    14    15    2
    19    14    16   am
    20    16    18    1
    21    18    19    1
    22    19    20    1
    23    20    21    1
    24    11    12   ar
    25    12    13   ar
    26     7     2   ar
    27    13     8   ar
    28    28    26    1
    29    21    19    1
    30    24    25    1
    31    16    17    1
@<TRIPOS>MOLECULE
*****
 28 31 0 0 0
SMALL
GASTEIGER

@<TRIPOS>ATOM
      1 C           4.9344    0.3611   37.0473 C.3     1  UNL1        0.0311
      2 C           4.0214    1.2433   36.2485 C.ar    1  UNL1       -0.0204
      3 C           3.2566    2.3410   36.9266 C.ar    1  UNL1       -0.0041
      4 C           2.3436    3.2232   36.1278 C.ar    1  UNL1        0.0042
      5 C           2.1954    3.0077   34.6508 C.ar    1  UNL1        0.0534
      6 C           2.9602    1.9100   33.9727 C.ar    1  UNL1        0.0057
      7 C           3.8733    1.0278   34.7715 C.ar    1  UNL1        0.0138
      8 C           4.6381   -0.0700   34.0932 C.ar    1  UNL1        0.0810
      9 C           6.0481    0.1677   33.6398 C.ar    1  UNL1        0.0193
     10 C           6.8130   -0.9300   32.9616 C.ar    1  UNL1        0.0076
     11 C           6.1679   -2.2655   32.7368 C.ar    1  UNL1        0.0725
     12 C           4.7580   -2.5032   33.1902 C.ar    1  UNL1        0.1033
     13 N           3.9931   -1.4054   33.8684 N.ar    1  UNL1       -0.2437
     14 C           6.9328   -3.3631   32.0586 C.2     1  UNL1        0.2474
     15 O           8.1739   -3.0420   31.2800 O.2     1  UNL1       -0.2701
     16 N           6.4565   -4.7820   32.1590 N.am    1  UNL1       -0.3008
     17 H           5.6418   -4.9927   32.6700 H       1  UNL1        0.1497
     18 C           7.2213   -5.8796   31.4808 C.3     1  UNL1        0.0896
     19 C           7.2822   -5.9367   29.9831 C.3     1  UNL1        0.0196
     20 C           6.7933   -5.4692   28.6444 C.3     1  UNL1        0.0017
     21 C           7.8767   -6.5032   28.7278 C.3     1  UNL1        0.0017
     22 C           1.2824    3.8899   33.8520 C.2     1  UNL1        0.2458
     23 O           0.9024    3.5050   32.4529 O.2     1  UNL1       -0.2701
     24 N           0.7493    5.1569   34.4523 N.am    1  UNL1       -0.3025
     25 H           0.9987    5.4095   35.3705 H       1  UNL1        0.1497
     26 C          -0.1637    6.0391   33.6534 C.3     1  UNL1        0.0720
     27 C          -1.5320    6.3536   33.1254 C.3     1  UNL1        0.0213
     28 C          -0.3768    7.2526   32.7979 C.3     1  UNL1        0.0213
@<TRIPOS>BOND
     1     1     2    1
     2     2     3   ar
     3     3     4   ar
     4     4     5   ar
     5     5    22    1
     6    22    23    2
     7    22    24   am
     8    24    26    1
     9    26    27    1
    10    27    28    1
    11     5     6   ar
    12     6     7   ar
    13     7     8    1
    14     8     9   ar
    15     9    10   ar
    16    10    11   ar
    17    11    14    1
    18    14    15    2
    19    14    16   am
    20    16    18    1
    21    18    19    1
    22    19    20    1
    23    20    21    1
    24    11    12   ar
    25    12    13   ar
    26     7     2   ar
    27    13     8   ar
    28    28    26    1
    29    21    19    1
    30    24    25    1
    31    16    17    1
@<TRIPOS>MOLECULE
*****
 28 31 0 0 0
SMALL
GASTEIGER

@<TRIPOS>ATOM
      1 C           8.8209   -7.3380   22.1895 C.3     1  UNL1        0.0311
      2 C           8.5900   -6.8202   23.5782 C.ar    1  UNL1       -0.0204
      3 C           9.0529   -7.6164   24.7621 C.ar    1  UNL1       -0.0041
      4 C           8.8219   -7.0986   26.1509 C.ar    1  UNL1        0.0042
      5 C           8.1280   -5.7847   26.3557 C.ar    1  UNL1        0.0534
      6 C           7.6651   -4.9885   25.1717 C.ar    1  UNL1        0.0057
      7 C           7.8961   -5.5063   23.7830 C.ar    1  UNL1        0.0138
      8 C           7.4331   -4.7100   22.5990 C.ar    1  UNL1        0.0810
      9 C           8.4339   -4.1688   21.6214 C.ar    1  UNL1        0.0193
     10 C           7.9710   -3.3726   20.4375 C.ar    1  UNL1        0.0076
     11 C           6.5072   -3.1175   20.2311 C.ar    1  UNL1        0.0725
     12 C           5.5065   -3.6587   21.2087 C.ar    1  UNL1        0.1033
     13 N           5.9695   -4.4549   22.3927 N.ar    1  UNL1       -0.2437
     14 C           6.0443   -2.3213   19.0472 C.2     1  UNL1        0.2474
     15 O           6.8728   -2.2853   17.7973 O.2     1  UNL1       -0.2701
     16 N           4.7529   -1.5611   19.1132 N.am    1  UNL1       -0.3008
     17 H           4.2092   -1.5847   19.9336 H       1  UNL1        0.1497
     18 C           4.2900   -0.7648   17.9293 C.3     1  UNL1        0.0896
     19 C           3.2959    0.3433   18.1130 C.3     1  UNL1        0.0196
     20 C           1.8753    0.8245   18.1295 C.3     1  UNL1        0.0017
     21 C           2.9947    1.7814   18.4147 C.3     1  UNL1        0.0017
     22 C           7.8971   -5.2669   27.7444 C.2     1  UNL1        0.2458
     23 O           8.1575   -3.8238   28.0597 O.2     1  UNL1       -0.2701
     24 N           7.4057   -6.1923   28.8178 N.am    1  UNL1       -0.3025
     25 H           7.2348   -7.1395   28.6108 H       1  UNL1        0.1497
     26 C           7.1747   -5.6745   30.2065 C.3     1  UNL1        0.0720
     27 C           7.0312   -5.9237   31.6786 C.3     1  UNL1        0.0213
     28 C           6.9183   -4.5285   31.1396 C.3     1  UNL1        0.0213
@<TRIPOS>BOND
     1     1     2    1
     2     2     3   ar
     3     3     4   ar
     4     4     5   ar
     5     5    22    1
     6    22    23    2
     7    22    24   am
     8    24    26    1
     9    26    27    1
    10    27    28    1
    11     5     6   ar
    12     6     7   ar
    13     7     8    1
    14     8     9   ar
    15     9    10   ar
    16    10    11   ar
    17    11    14    1
    18    14    15    2
    19    14    16   am
    20    16    18    1
    21    18    19    1
    22    19    20    1
    23    20    21    1
    24    11    12   ar
    25    12    13   ar
    26     7     2   ar
    27    13     8   ar
    28    28    26    1
    29    21    19    1
    30    24    25    1
    31    16    17    1
@<TRIPOS>MOLECULE
*****
 28 31 0 0 0
SMALL
GASTEIGER

@<TRIPOS>ATOM
      1 C           0.3853    2.0592   24.7136 C.3     1  UNL1        0.0311
      2 C          -0.9423    2.6832   25.0272 C.ar    1  UNL1       -0.0204
      3 C          -1.7947    3.2289   23.9202 C.ar    1  UNL1       -0.0041
      4 C          -3.1222    3.8529   24.2338 C.ar    1  UNL1        0.0042
      5 C          -3.5973    3.9311   25.6544 C.ar    1  UNL1        0.0534
      6 C          -2.7449    3.3854   26.7614 C.ar    1  UNL1        0.0057
      7 C          -1.4174    2.7614   26.4478 C.ar    1  UNL1        0.0138
      8 C          -0.5649    2.2157   27.5549 C.ar    1  UNL1        0.0810
      9 C          -0.6984    0.7792   27.9658 C.ar    1  UNL1        0.0193
     10 C           0.1539    0.2334   29.0728 C.ar    1  UNL1        0.0076
     11 C           1.1399    1.1241   29.7690 C.ar    1  UNL1        0.0725
     12 C           1.2735    2.5605   29.3581 C.ar    1  UNL1        0.1033
     13 N           0.4210    3.1063   28.2510 N.ar    1  UNL1       -0.2437
     14 C           1.9923    0.5783   30.8760 C.2     1  UNL1        0.2474
     15 O           1.9283    1.1912   32.2435 O.2     1  UNL1       -0.2701
     16 N           2.9087   -0.5803   30.6154 N.am    1  UNL1       -0.3008
     17 H           2.9507   -0.9825   29.7178 H       1  UNL1        0.1497
     18 C           3.7611   -1.1260   31.7224 C.3     1  UNL1        0.0896
     19 C           5.1504   -1.6103   31.4302 C.3     1  UNL1        0.0196
     20 C           6.1529   -2.1783   30.4699 C.3     1  UNL1        0.0017
     21 C           6.5541   -1.8810   31.8844 C.3     1  UNL1        0.0017
     22 C          -4.9248    4.5551   25.9680 C.2     1  UNL1        0.2458
     23 O          -6.0672    4.4108   25.0067 O.2     1  UNL1       -0.2701
     24 N          -5.1100    5.3234   27.2429 N.am    1  UNL1       -0.3025
     25 H          -4.3602    5.4181   27.8739 H       1  UNL1        0.1497
     26 C          -6.4375    5.9473   27.5565 C.3     1  UNL1        0.0720
     27 C          -7.4690    6.3714   28.5596 C.3     1  UNL1        0.0213
     28 C          -7.7053    6.6040   27.0967 C.3     1  UNL1        0.0213
@<TRIPOS>BOND
     1     1     2    1
     2     2     3   ar
     3     3     4   ar
     4     4     5   ar
     5     5    22    1
     6    22    23    2
     7    22    24   am
     8    24    26    1
     9    26    27    1
    10    27    28    1
    11     5     6   ar
    12     6     7   ar
    13     7     8    1
    14     8     9   ar
    15     9    10   ar
    16    10    11   ar
    17    11    14    1
    18    14    15    2
    19    14    16   am
    20    16    18    1
    21    18    19    1
    22    19    20    1
    23    20    21    1
    24    11    12   ar
    25    12    13   ar
    26     7     2   ar
    27    13     8   ar
    28    28    26    1
    29    21    19    1
    30    24    25    1
    31    16    17    1
@<TRIPOS>MOLECULE
*****
 28 31 0 0 0
SMALL
GASTEIGER

@<TRIPOS>ATOM
      1 C           0.3723    2.0773   24.6826 C.3     1  UNL1        0.0311
      2 C          -0.9512    2.7089   24.9981 C.ar    1  UNL1       -0.0204
      3 C          -1.7960    3.2714   23.8937 C.ar    1  UNL1       -0.0041
      4 C          -3.1195    3.9030   24.2091 C.ar    1  UNL1        0.0042
      5 C          -3.5981    3.9722   25.6290 C.ar    1  UNL1        0.0534
      6 C          -2.7532    3.4097   26.7334 C.ar    1  UNL1        0.0057
      7 C          -1.4297    2.7781   26.4180 C.ar    1  UNL1        0.0138
      8 C          -0.5849    2.2156   27.5225 C.ar    1  UNL1        0.0810
      9 C           0.3427    3.1120   28.2880 C.ar    1  UNL1        0.0193
     10 C           1.1876    2.5496   29.3925 C.ar    1  UNL1        0.0076
     11 C           1.1049    1.0907   29.7314 C.ar    1  UNL1        0.0725
     12 C           0.1773    0.1943   28.9659 C.ar    1  UNL1        0.1033
     13 N          -0.6676    0.7568   27.8614 N.ar    1  UNL1       -0.2437
     14 C           1.9497    0.5283   30.8359 C.2     1  UNL1        0.2474
     15 O           2.3144   -0.9267   30.8345 O.2     1  UNL1       -0.2701
     16 N           2.4299    1.4208   31.9417 N.am    1  UNL1       -0.3008
     17 H           2.1905    2.3758   31.9426 H       1  UNL1        0.1497
     18 C           3.2747    0.8584   33.0462 C.3     1  UNL1        0.0896
     19 C           3.3428    1.5602   34.3701 C.3     1  UNL1        0.0196
     20 C           3.7252    1.5634   35.8205 C.3     1  UNL1        0.0017
     21 C           3.0781    2.7726   35.2128 C.3     1  UNL1        0.0017
     22 C          -4.9215    4.6038   25.9445 C.2     1  UNL1        0.2458
     23 O          -6.0495    4.5133   24.9599 O.2     1  UNL1       -0.2701
     24 N          -5.1170    5.3260   27.2446 N.am    1  UNL1       -0.3025
     25 H          -4.3767    5.3855   27.8908 H       1  UNL1        0.1497
     26 C          -6.4404    5.9577   27.5600 C.3     1  UNL1        0.0720
     27 C          -7.6825    6.6662   27.1072 C.3     1  UNL1        0.0213
     28 C          -7.4906    6.3431   28.5593 C.3     1  UNL1        0.0213
@<TRIPOS>BOND
     1     1     2    1
     2     2     3   ar
     3     3     4   ar
     4     4     5   ar
     5     5    22    1
     6    22    23    2
     7    22    24   am
     8    24    26    1
     9    26    27    1
    10    27    28    1
    11     5     6   ar
    12     6     7   ar
    13     7     8    1
    14     8     9   ar
    15     9    10   ar
    16    10    11   ar
    17    11    14    1
    18    14    15    2
    19    14    16   am
    20    16    18    1
    21    18    19    1
    22    19    20    1
    23    20    21    1
    24    11    12   ar
    25    12    13   ar
    26     7     2   ar
    27    13     8   ar
    28    28    26    1
    29    21    19    1
    30    24    25    1
    31    16    17    1
@<TRIPOS>MOLECULE
*****
 28 31 0 0 0
SMALL
GASTEIGER

@<TRIPOS>ATOM
      1 C           0.8028    4.9143   18.4005 C.3     1  UNL1        0.0311
      2 C          -0.4479    4.6839   19.1958 C.ar    1  UNL1       -0.0204
      3 C          -1.4951    5.7550   19.2738 C.ar    1  UNL1       -0.0041
      4 C          -2.7458    5.5246   20.0692 C.ar    1  UNL1        0.0042
      5 C          -2.9494    4.2231   20.7864 C.ar    1  UNL1        0.0534
      6 C          -1.9023    3.1519   20.7084 C.ar    1  UNL1        0.0057
      7 C          -0.6515    3.3823   19.9131 C.ar    1  UNL1        0.0138
      8 C           0.3956    2.3111   19.8351 C.ar    1  UNL1        0.0810
      9 C           1.3497    2.1106   20.9750 C.ar    1  UNL1        0.0193
     10 C           2.3969    1.0394   20.8971 C.ar    1  UNL1        0.0076
     11 C           2.4899    0.1688   19.6791 C.ar    1  UNL1        0.0725
     12 C           1.5358    0.3693   18.5391 C.ar    1  UNL1        0.1033
     13 N           0.4887    1.4405   18.6172 N.ar    1  UNL1       -0.2437
     14 C           3.5371   -0.9024   19.6011 C.2     1  UNL1        0.2474
     15 O           4.3008   -1.2954   20.8308 O.2     1  UNL1       -0.2701
     16 N           3.8204   -1.5805   18.2935 N.am    1  UNL1       -0.3008
     17 H           3.3191   -1.3225   17.4864 H       1  UNL1        0.1497
     18 C           4.8676   -2.6516   18.2155 C.3     1  UNL1        0.0896
     19 C           4.5597   -4.0380   18.6985 C.3     1  UNL1        0.0196
     20 C           3.7404   -4.9667   19.5446 C.3     1  UNL1        0.0017
     21 C           4.8459   -5.5103   18.6889 C.3     1  UNL1        0.0017
     22 C          -4.2002    3.9927   21.5818 C.2     1  UNL1        0.2458
     23 O          -4.7826    2.6140   21.6809 O.2     1  UNL1       -0.2701
     24 N          -4.8685    5.1410   22.2779 N.am    1  UNL1       -0.3025
     25 H          -4.4862    6.0459   22.2128 H       1  UNL1        0.1497
     26 C          -6.1193    4.9106   23.0732 C.3     1  UNL1        0.0720
     27 C          -6.8718    5.0057   24.3673 C.3     1  UNL1        0.0213
     28 C          -7.5330    4.4165   23.1567 C.3     1  UNL1        0.0213
@<TRIPOS>BOND
     1     1     2    1
     2     2     3   ar
     3     3     4   ar
     4     4     5   ar
     5     5    22    1
     6    22    23    2
     7    22    24   am
     8    24    26    1
     9    26    27    1
    10    27    28    1
    11     5     6   ar
    12     6     7   ar
    13     7     8    1
    14     8     9   ar
    15     9    10   ar
    16    10    11   ar
    17    11    14    1
    18    14    15    2
    19    14    16   am
    20    16    18    1
    21    18    19    1
    22    19    20    1
    23    20    21    1
    24    11    12   ar
    25    12    13   ar
    26     7     2   ar
    27    13     8   ar
    28    28    26    1
    29    21    19    1
    30    24    25    1
    31    16    17    1
@<TRIPOS>MOLECULE
*****
 28 31 0 0 0
SMALL
GASTEIGER

@<TRIPOS>ATOM
      1 C          -1.0703    3.6214   17.6122 C.3     1  UNL1        0.0311
      2 C          -1.5624    3.9603   18.9881 C.ar    1  UNL1       -0.0204
      3 C          -2.6154    5.0130   19.1698 C.ar    1  UNL1       -0.0041
      4 C          -3.1076    5.3518   20.5457 C.ar    1  UNL1        0.0042
      5 C          -2.5467    4.6381   21.7398 C.ar    1  UNL1        0.0534
      6 C          -1.4937    3.5854   21.5580 C.ar    1  UNL1        0.0057
      7 C          -1.0016    3.2465   20.1822 C.ar    1  UNL1        0.0138
      8 C           0.0515    2.1938   20.0005 C.ar    1  UNL1        0.0810
      9 C           1.4015    2.5681   19.4644 C.ar    1  UNL1        0.0193
     10 C           2.4545    1.5155   19.2827 C.ar    1  UNL1        0.0076
     11 C           2.1576    0.0885   19.6371 C.ar    1  UNL1        0.0725
     12 C           0.8076   -0.2858   20.1732 C.ar    1  UNL1        0.1033
     13 N          -0.2455    0.7669   20.3549 N.ar    1  UNL1       -0.2437
     14 C           3.2106   -0.9641   19.4553 C.2     1  UNL1        0.2474
     15 O           3.8073   -1.2019   18.0999 O.2     1  UNL1       -0.2701
     16 N           3.6670   -1.7790   20.6291 N.am    1  UNL1       -0.3008
     17 H           3.2753   -1.6229   21.5188 H       1  UNL1        0.1497
     18 C           4.7200   -2.8316   20.4474 C.3     1  UNL1        0.0896
     19 C           4.3761   -4.1286   19.7770 C.3     1  UNL1        0.0196
     20 C           4.6750   -5.1782   18.7479 C.3     1  UNL1        0.0017
     21 C           3.4818   -5.3255   19.6449 C.3     1  UNL1        0.0017
     22 C          -3.0389    4.9769   23.1156 C.2     1  UNL1        0.2458
     23 O          -2.7739    6.3355   23.6935 O.2     1  UNL1       -0.2701
     24 N          -3.7960    3.9572   23.9136 N.am    1  UNL1       -0.3025
     25 H          -3.9700    3.0655   23.5344 H       1  UNL1        0.1497
     26 C          -4.2882    4.2961   25.2895 C.3     1  UNL1        0.0720
     27 C          -4.2700    4.0592   26.7705 C.3     1  UNL1        0.0213
     28 C          -5.1587    5.1199   26.1914 C.3     1  UNL1        0.0213
@<TRIPOS>BOND
     1     1     2    1
     2     2     3   ar
     3     3     4   ar
     4     4     5   ar
     5     5    22    1
     6    22    23    2
     7    22    24   am
     8    24    26    1
     9    26    27    1
    10    27    28    1
    11     5     6   ar
    12     6     7   ar
    13     7     8    1
    14     8     9   ar
    15     9    10   ar
    16    10    11   ar
    17    11    14    1
    18    14    15    2
    19    14    16   am
    20    16    18    1
    21    18    19    1
    22    19    20    1
    23    20    21    1
    24    11    12   ar
    25    12    13   ar
    26     7     2   ar
    27    13     8   ar
    28    28    26    1
    29    21    19    1
    30    24    25    1
    31    16    17    1
