@<TRIPOS>MOLECULE
*****
 18 20 0 0 0
SMALL
GASTEIGER

@<TRIPOS>ATOM
      1 C          -8.7195  -15.9169   24.4945 C.3     1  UNL1        0.0268
      2 C          -9.1427  -16.7459   23.3182 C.2     1  UNL1       -0.0366
      3 C         -10.5289  -16.8291   22.7512 C.2     1  UNL1        0.0335
      4 C         -10.4969  -17.7720   21.5850 C.2     1  UNL1        0.1908
      5 O         -11.6657  -18.1490   20.7237 O.2     1  UNL1       -0.2869
      6 C          -9.0910  -18.2716   21.4313 C.2     1  UNL1        0.0127
      7 C          -8.6696  -19.2387   20.3651 C.2     1  UNL1       -0.0406
      8 C          -9.7540  -19.6942   19.4341 C.3     1  UNL1        0.0263
      9 C          -7.3072  -19.8107   20.1065 C.3     1  UNL1        0.0698
     10 C          -6.0297  -19.5568   20.8505 C.3     1  UNL1        0.1914
     11 O          -4.7219  -20.1964   20.4893 O.3     1  UNL1       -0.4449
     12 C          -3.6831  -19.7032   21.4522 C.2     1  UNL1        0.3369
     13 O          -2.2330  -20.0870   21.4579 O.2     1  UNL1       -0.2453
     14 C          -4.3488  -18.7586   22.4086 C.2     1  UNL1        0.0492
     15 C          -3.6814  -18.0321   23.5385 C.3     1  UNL1        0.0373
     16 C          -5.7991  -18.6682   22.0367 C.2     1  UNL1       -0.0017
     17 C          -6.7890  -17.8140   22.7720 C.3     1  UNL1        0.0339
     18 C          -8.2540  -17.6375   22.5025 C.3     1  UNL1        0.0473
@<TRIPOS>BOND
     1     1     2    1
     2     2     3    2
     3     3     4    1
     4     4     5    2
     5     4     6    1
     6     6     7    2
     7     7     8    1
     8     7     9    1
     9    10     9    1
    10    10    11    1
    11    11    12    1
    12    12    13    2
    13    12    14    1
    14    14    15    1
    15    14    16    2
    16    16    17    1
    17    18    17    1
    18    18     2    1
    19    18     6    1
    20    16    10    1
@<TRIPOS>MOLECULE
*****
 18 20 0 0 0
SMALL
GASTEIGER

@<TRIPOS>ATOM
      1 C          -9.7917  -18.9204   21.4962 C.3     1  UNL1        0.0268
      2 C          -9.0775  -17.9615   22.4020 C.2     1  UNL1       -0.0366
      3 C          -9.7222  -16.9196   23.2673 C.2     1  UNL1        0.0335
      4 C          -8.6365  -16.1902   24.0016 C.2     1  UNL1        0.1908
      5 O          -8.8321  -15.0670   24.9763 O.2     1  UNL1       -0.2869
      6 C          -7.3207  -16.7814   23.5901 C.2     1  UNL1        0.0127
      7 C          -5.9999  -16.3068   24.1193 C.2     1  UNL1       -0.0406
      8 C          -6.0617  -15.1804   25.1080 C.3     1  UNL1        0.0263
      9 C          -4.6254  -16.8096   23.7907 C.3     1  UNL1        0.0698
     10 C          -4.2323  -17.9112   22.8516 C.3     1  UNL1        0.1914
     11 O          -2.8102  -18.3216   22.6084 O.3     1  UNL1       -0.4449
     12 C          -2.8155  -19.4461   21.6158 C.2     1  UNL1        0.3369
     13 O          -1.6076  -20.1607   21.0864 O.2     1  UNL1       -0.2453
     14 C          -4.2410  -19.7307   21.2455 C.2     1  UNL1        0.0492
     15 C          -4.7087  -20.7798   20.2808 C.3     1  UNL1        0.0373
     16 C          -5.1166  -18.7821   22.0092 C.2     1  UNL1       -0.0017
     17 C          -6.6124  -18.7665   21.8979 C.3     1  UNL1        0.0339
     18 C          -7.5933  -17.8760   22.6015 C.3     1  UNL1        0.0473
@<TRIPOS>BOND
     1     1     2    1
     2     2     3    2
     3     3     4    1
     4     4     5    2
     5     4     6    1
     6     6     7    2
     7     7     8    1
     8     7     9    1
     9    10     9    1
    10    10    11    1
    11    11    12    1
    12    12    13    2
    13    12    14    1
    14    14    15    1
    15    14    16    2
    16    16    17    1
    17    18    17    1
    18    18     2    1
    19    18     6    1
    20    16    10    1
@<TRIPOS>MOLECULE
*****
 18 20 0 0 0
SMALL
GASTEIGER

@<TRIPOS>ATOM
      1 C          -9.1856  -20.6605   18.2233 C.3     1  UNL1        0.0268
      2 C          -9.3724  -19.7518   19.4021 C.2     1  UNL1       -0.0366
      3 C         -10.6695  -19.1489   19.8538 C.2     1  UNL1        0.0335
      4 C         -10.3936  -18.3109   21.0669 C.2     1  UNL1        0.1908
      5 O         -11.4074  -17.5259   21.8453 O.2     1  UNL1       -0.2869
      6 C          -8.9260  -18.3959   21.3650 C.2     1  UNL1        0.0127
      7 C          -8.2734  -17.6844   22.5129 C.2     1  UNL1       -0.0406
      8 C          -9.1865  -16.8608   23.3719 C.3     1  UNL1        0.0263
      9 C          -6.8284  -17.6876   22.9155 C.3     1  UNL1        0.0698
     10 C          -5.6792  -18.4031   22.2695 C.3     1  UNL1        0.1914
     11 O          -4.2685  -18.3245   22.7732 O.3     1  UNL1       -0.4449
     12 C          -3.4086  -19.1649   21.8766 C.2     1  UNL1        0.3369
     13 O          -1.9292  -19.3711   22.0137 O.2     1  UNL1       -0.2453
     14 C          -4.2878  -19.7630   20.8186 C.2     1  UNL1        0.0492
     15 C          -3.8420  -20.6722   19.7120 C.3     1  UNL1        0.0373
     16 C          -5.6910  -19.2922   21.0615 C.2     1  UNL1       -0.0017
     17 C          -6.8551  -19.6853   20.2009 C.3     1  UNL1        0.0339
     18 C          -8.2949  -19.2864   20.3361 C.3     1  UNL1        0.0473
@<TRIPOS>BOND
     1     1     2    1
     2     2     3    2
     3     3     4    1
     4     4     5    2
     5     4     6    1
     6     6     7    2
     7     7     8    1
     8     7     9    1
     9    10     9    1
    10    10    11    1
    11    11    12    1
    12    12    13    2
    13    12    14    1
    14    14    15    1
    15    14    16    2
    16    16    17    1
    17    18    17    1
    18    18     2    1
    19    18     6    1
    20    16    10    1
@<TRIPOS>MOLECULE
*****
 18 20 0 0 0
SMALL
GASTEIGER

@<TRIPOS>ATOM
      1 C          -7.6322  -19.7711   19.8056 C.3     1  UNL1        0.0268
      2 C          -8.8078  -19.0552   20.4019 C.2     1  UNL1       -0.0366
      3 C         -10.2402  -19.2133   19.9858 C.2     1  UNL1        0.0335
      4 C         -11.0750  -18.3112   20.8457 C.2     1  UNL1        0.1908
      5 O         -12.5647  -18.1527   20.7712 O.2     1  UNL1       -0.2869
      6 C         -10.1585  -17.5956   21.7933 C.2     1  UNL1        0.0127
      7 C         -10.6346  -16.6039   22.8129 C.2     1  UNL1       -0.0406
      8 C         -12.1138  -16.3563   22.8388 C.3     1  UNL1        0.0263
      9 C          -9.8272  -15.8269   23.8101 C.3     1  UNL1        0.0698
     10 C          -8.3441  -15.8499   24.0340 C.3     1  UNL1        0.1914
     11 O          -7.6522  -15.0179   25.0728 O.3     1  UNL1       -0.4449
     12 C          -6.1828  -15.3092   24.9967 C.2     1  UNL1        0.3369
     13 O          -5.1168  -14.6962   25.8556 O.2     1  UNL1       -0.2453
     14 C          -5.9665  -16.3212   23.9109 C.2     1  UNL1        0.0492
     15 C          -4.6463  -16.8979   23.4934 C.3     1  UNL1        0.0373
     16 C          -7.3023  -16.6553   23.3159 C.2     1  UNL1       -0.0017
     17 C          -7.4861  -17.6369   22.1966 C.3     1  UNL1        0.0339
     18 C          -8.7573  -18.0554   21.5190 C.3     1  UNL1        0.0473
@<TRIPOS>BOND
     1     1     2    1
     2     2     3    2
     3     3     4    1
     4     4     5    2
     5     4     6    1
     6     6     7    2
     7     7     8    1
     8     7     9    1
     9    10     9    1
    10    10    11    1
    11    11    12    1
    12    12    13    2
    13    12    14    1
    14    14    15    1
    15    14    16    2
    16    16    17    1
    17    18    17    1
    18    18     2    1
    19    18     6    1
    20    16    10    1
@<TRIPOS>MOLECULE
*****
 18 20 0 0 0
SMALL
GASTEIGER

@<TRIPOS>ATOM
      1 C         -12.6030  -17.8740   23.4082 C.3     1  UNL1        0.0268
      2 C         -11.5204  -18.3362   22.4785 C.2     1  UNL1       -0.0366
      3 C         -11.7036  -19.2260   21.2849 C.2     1  UNL1        0.0335
      4 C         -10.3609  -19.4294   20.6479 C.2     1  UNL1        0.1908
      5 O         -10.0806  -20.2524   19.4256 O.2     1  UNL1       -0.2869
      6 C          -9.3478  -18.6653   21.4478 C.2     1  UNL1        0.0127
      7 C          -7.8863  -18.6301   21.1126 C.2     1  UNL1       -0.0406
      8 C          -7.4764  -19.4188   19.9043 C.3     1  UNL1        0.0263
      9 C          -6.7802  -17.9105   21.8260 C.3     1  UNL1        0.0698
     10 C          -6.8626  -17.0485   23.0507 C.3     1  UNL1        0.1914
     11 O          -5.6725  -16.3792   23.6718 O.3     1  UNL1       -0.4449
     12 C          -6.1457  -15.6101   24.8695 C.2     1  UNL1        0.3369
     13 O          -5.2872  -14.7909   25.7869 O.2     1  UNL1       -0.2453
     14 C          -7.6284  -15.8041   24.9887 C.2     1  UNL1        0.0492
     15 C          -8.5127  -15.2130   26.0462 C.3     1  UNL1        0.0373
     16 C          -8.0714  -16.6930   23.8646 C.2     1  UNL1       -0.0017
     17 C          -9.4964  -17.1119   23.6548 C.3     1  UNL1        0.0339
     18 C         -10.0644  -17.9897   22.5792 C.3     1  UNL1        0.0473
@<TRIPOS>BOND
     1     1     2    1
     2     2     3    2
     3     3     4    1
     4     4     5    2
     5     4     6    1
     6     6     7    2
     7     7     8    1
     8     7     9    1
     9    10     9    1
    10    10    11    1
    11    11    12    1
    12    12    13    2
    13    12    14    1
    14    14    15    1
    15    14    16    2
    16    16    17    1
    17    18    17    1
    18    18     2    1
    19    18     6    1
    20    16    10    1
@<TRIPOS>MOLECULE
*****
 18 20 0 0 0
SMALL
GASTEIGER

@<TRIPOS>ATOM
      1 C         -14.8413   -2.4132   20.1103 C.3     1  UNL1        0.0268
      2 C         -13.6652   -3.2144   19.6362 C.2     1  UNL1       -0.0366
      3 C         -12.2809   -2.6897   19.3941 C.2     1  UNL1        0.0335
      4 C         -11.4270   -3.8319   18.9292 C.2     1  UNL1        0.1908
      5 O          -9.9720   -3.7567   18.5723 O.2     1  UNL1       -0.2869
      6 C         -12.2834   -5.0625   18.8839 C.2     1  UNL1        0.0127
      7 C         -11.7737   -6.4090   18.4633 C.2     1  UNL1       -0.0406
      8 C         -10.3247   -6.4656   18.0795 C.3     1  UNL1        0.0263
      9 C         -12.5213   -7.7065   18.3757 C.3     1  UNL1        0.0698
     10 C         -13.9633   -7.9779   18.6871 C.3     1  UNL1        0.1914
     11 O         -14.5960   -9.3318   18.5579 O.3     1  UNL1       -0.4449
     12 C         -16.0375   -9.2095   18.9539 C.2     1  UNL1        0.3369
     13 O         -17.0442  -10.3214   18.9727 O.2     1  UNL1       -0.2453
     14 C         -16.2958   -7.7800   19.3279 C.2     1  UNL1        0.0492
     15 C         -17.6060   -7.2114   19.7863 C.3     1  UNL1        0.0373
     16 C         -15.0139   -7.0189   19.1630 C.2     1  UNL1       -0.0017
     17 C         -14.8819   -5.5515   19.4451 C.3     1  UNL1        0.0339
     18 C         -13.6667   -4.6808   19.3209 C.3     1  UNL1        0.0473
@<TRIPOS>BOND
     1     1     2    1
     2     2     3    2
     3     3     4    1
     4     4     5    2
     5     4     6    1
     6     6     7    2
     7     7     8    1
     8     7     9    1
     9    10     9    1
    10    10    11    1
    11    11    12    1
    12    12    13    2
    13    12    14    1
    14    14    15    1
    15    14    16    2
    16    16    17    1
    17    18    17    1
    18    18     2    1
    19    18     6    1
    20    16    10    1
@<TRIPOS>MOLECULE
*****
 18 20 0 0 0
SMALL
GASTEIGER

@<TRIPOS>ATOM
      1 C         -15.3347   -4.3009   20.3551 C.3     1  UNL1        0.0268
      2 C         -14.0024   -4.6428   19.7566 C.2     1  UNL1       -0.0366
      3 C         -13.3689   -6.0023   19.7336 C.2     1  UNL1        0.0335
      4 C         -12.0448   -5.8850   19.0387 C.2     1  UNL1        0.1908
      5 O         -11.0757   -7.0033   18.7935 O.2     1  UNL1       -0.2869
      6 C         -11.8599   -4.4530   18.6322 C.2     1  UNL1        0.0127
      7 C         -10.6462   -3.9496   17.9088 C.2     1  UNL1       -0.0406
      8 C          -9.5974   -4.9775   17.6034 C.3     1  UNL1        0.0263
      9 C         -10.3426   -2.5540   17.4502 C.3     1  UNL1        0.0698
     10 C         -11.1777   -1.3172   17.6019 C.3     1  UNL1        0.1914
     11 O         -10.7580    0.0307   17.0951 O.3     1  UNL1       -0.4449
     12 C         -11.8434    1.0104   17.4295 C.2     1  UNL1        0.3369
     13 O         -11.8390    2.4753   17.1071 O.2     1  UNL1       -0.2453
     14 C         -12.9341    0.2679   18.1431 C.2     1  UNL1        0.0492
     15 C         -14.2119    0.8600   18.6594 C.3     1  UNL1        0.0373
     16 C         -12.5227   -1.1705   18.2496 C.2     1  UNL1       -0.0017
     17 C         -13.3648   -2.2245   18.9056 C.3     1  UNL1        0.0339
     18 C         -13.0698   -3.6853   19.0759 C.3     1  UNL1        0.0473
@<TRIPOS>BOND
     1     1     2    1
     2     2     3    2
     3     3     4    1
     4     4     5    2
     5     4     6    1
     6     6     7    2
     7     7     8    1
     8     7     9    1
     9    10     9    1
    10    10    11    1
    11    11    12    1
    12    12    13    2
    13    12    14    1
    14    14    15    1
    15    14    16    2
    16    16    17    1
    17    18    17    1
    18    18     2    1
    19    18     6    1
    20    16    10    1
@<TRIPOS>MOLECULE
*****
 18 20 0 0 0
SMALL
GASTEIGER

@<TRIPOS>ATOM
      1 C         -15.2908   -9.9433   18.2217 C.3     1  UNL1        0.0268
      2 C         -15.8749   -8.6256   18.6369 C.2     1  UNL1       -0.0366
      3 C         -17.3285   -8.3405   18.8726 C.2     1  UNL1        0.0335
      4 C         -17.4599   -6.9003   19.2706 C.2     1  UNL1        0.1908
      5 O         -18.7392   -6.1899   19.6004 O.2     1  UNL1       -0.2869
      6 C         -16.0874   -6.2952   19.2809 C.2     1  UNL1        0.0127
      7 C         -15.8188   -4.8621   19.6331 C.2     1  UNL1       -0.0406
      8 C         -17.0241   -4.0412   19.9842 C.3     1  UNL1        0.0263
      9 C         -14.5042   -4.1413   19.6806 C.3     1  UNL1        0.0698
     10 C         -13.1335   -4.6756   19.3876 C.3     1  UNL1        0.1914
     11 O         -11.8874   -3.8449   19.4718 O.3     1  UNL1       -0.4449
     12 C         -10.7227   -4.7185   19.1112 C.2     1  UNL1        0.3369
     13 O          -9.2842   -4.2958   19.0656 O.2     1  UNL1       -0.2453
     14 C         -11.2490   -6.0892   18.8040 C.2     1  UNL1        0.0492
     15 C         -10.4292   -7.2777   18.3973 C.3     1  UNL1        0.0373
     16 C         -12.7389   -6.0626   18.9748 C.2     1  UNL1       -0.0017
     17 C         -13.6176   -7.2580   18.7530 C.3     1  UNL1        0.0339
     18 C         -15.1078   -7.3615   18.8893 C.3     1  UNL1        0.0473
@<TRIPOS>BOND
     1     1     2    1
     2     2     3    2
     3     3     4    1
     4     4     5    2
     5     4     6    1
     6     6     7    2
     7     7     8    1
     8     7     9    1
     9    10     9    1
    10    10    11    1
    11    11    12    1
    12    12    13    2
    13    12    14    1
    14    14    15    1
    15    14    16    2
    16    16    17    1
    17    18    17    1
    18    18     2    1
    19    18     6    1
    20    16    10    1
@<TRIPOS>MOLECULE
*****
 18 20 0 0 0
SMALL
GASTEIGER

@<TRIPOS>ATOM
      1 C         -10.1193   -8.0488   17.8999 C.3     1  UNL1        0.0268
      2 C         -10.5769   -6.6729   18.2841 C.2     1  UNL1       -0.0366
      3 C          -9.7137   -5.4493   18.3727 C.2     1  UNL1        0.0335
      4 C         -10.5813   -4.2992   18.7905 C.2     1  UNL1        0.1908
      5 O         -10.1289   -2.8848   19.0016 O.2     1  UNL1       -0.2869
      6 C         -11.9807   -4.8120   18.9601 C.2     1  UNL1        0.0127
      7 C         -13.1334   -3.9462   19.3741 C.2     1  UNL1       -0.0406
      8 C         -12.8085   -2.5021   19.6169 C.3     1  UNL1        0.0263
      9 C         -14.5683   -4.3335   19.5774 C.3     1  UNL1        0.0698
     10 C         -15.2046   -5.6823   19.4169 C.3     1  UNL1        0.1914
     11 O         -16.6633   -5.9412   19.6524 O.3     1  UNL1       -0.4449
     12 C         -16.9235   -7.3957   19.3944 C.2     1  UNL1        0.3369
     13 O         -18.2488   -8.0885   19.5109 O.2     1  UNL1       -0.2453
     14 C         -15.6257   -8.0358   18.9995 C.2     1  UNL1        0.0492
     15 C         -15.4253   -9.4811   18.6518 C.3     1  UNL1        0.0373
     16 C         -14.5634   -6.9769   19.0135 C.2     1  UNL1       -0.0017
     17 C         -13.1274   -7.2425   18.6708 C.3     1  UNL1        0.0339
     18 C         -11.9779   -6.2790   18.6471 C.3     1  UNL1        0.0473
@<TRIPOS>BOND
     1     1     2    1
     2     2     3    2
     3     3     4    1
     4     4     5    2
     5     4     6    1
     6     6     7    2
     7     7     8    1
     8     7     9    1
     9    10     9    1
    10    10    11    1
    11    11    12    1
    12    12    13    2
    13    12    14    1
    14    14    15    1
    15    14    16    2
    16    16    17    1
    17    18    17    1
    18    18     2    1
    19    18     6    1
    20    16    10    1
