@<TRIPOS>MOLECULE
*****
 37 40 0 0 0
SMALL
GASTEIGER

@<TRIPOS>ATOM
      1 C          -8.8936  -19.4400   23.1280 C.2     1  UNL1        0.2665
      2 O          -9.6834  -20.7006   23.3207 O.2     1  UNL1       -0.2710
      3 N          -9.4430  -18.1298   23.6091 N.am    1  UNL1       -0.2714
      4 C         -10.7822  -18.0801   24.2829 C.3     1  UNL1        0.1153
      5 C          -3.4644  -19.3128   19.6477 C.ar    1  UNL1       -0.0049
      6 C          -2.8833  -19.9910   20.8528 C.ar    1  UNL1        0.0002
      7 C          -3.7525  -20.2871   22.0389 C.ar    1  UNL1        0.0363
      8 C          -5.2029  -19.9051   22.0199 C.ar    1  UNL1        0.1352
      9 C          -5.7840  -19.2269   20.8148 C.ar    1  UNL1        0.0157
     10 C          -4.9148  -18.9308   19.6287 C.ar    1  UNL1       -0.0040
     11 C          -7.2374  -18.9701   21.0832 C.3     1  UNL1        0.0825
     12 C          -7.5543  -19.4896   22.4542 C.3     1  UNL1        0.2456
     13 O          -6.2970  -20.0674   23.0331 O.3     1  UNL1       -0.4699
     14 C          -2.5952  -19.0167   18.4616 C.3     1  UNL1        0.1173
     15 N          -1.4148  -18.1026   18.6064 N.3     1  UNL1       -0.1788
     16 H          -0.5806  -18.6848   18.5319 H       1  UNL1        0.1488
     17 S          -1.2554  -17.2742   19.8467 S.O2    1  UNL1        0.0410
     18 O          -2.4626  -16.4699   19.4647 O.2     1  UNL1       -0.1575
     19 O          -0.0482  -18.0784   20.2287 O.2     1  UNL1       -0.1575
     20 C          -1.0960  -16.4458   21.0870 C.3     1  UNL1        0.1688
     21 C          -2.9061  -17.0478   22.8508 C.3     1  UNL1        0.0019
     22 C          -2.3014  -16.0637   21.8938 C.3     1  UNL1        0.0270
     23 C          -8.6532  -16.8692   23.4163 C.3     1  UNL1        0.1139
     24 C          -7.8235  -16.3246   24.5411 C.ar    1  UNL1       -0.0029
     25 C          -6.3978  -15.9273   24.2972 C.ar    1  UNL1       -0.0026
     26 C          -5.5680  -15.3828   25.4219 C.ar    1  UNL1       -0.0003
     27 C          -6.1640  -15.2356   26.7905 C.ar    1  UNL1       -0.0000
     28 C          -7.5897  -15.6329   27.0345 C.ar    1  UNL1       -0.0003
     29 C          -8.4195  -16.1774   25.9097 C.ar    1  UNL1       -0.0026
     30 C          -8.6931  -16.1531   22.0989 C.3     1  UNL1        0.0968
     31 N          -9.8371  -16.3811   21.1557 N.3     1  UNL1       -0.2689
     32 C         -10.2965  -17.7093   20.6318 C.3     1  UNL1        0.0748
     33 C         -11.4658  -17.4699   19.7232 C.3     1  UNL1        0.0480
     34 C         -11.7290  -15.9937   19.6856 C.3     1  UNL1        0.1278
     35 O         -12.8091  -15.3104   18.9005 O.3     1  UNL1       -0.3830
     36 C         -10.7223  -15.3206   20.5710 C.3     1  UNL1        0.1017
     37 H         -12.7618  -14.3532   19.0507 H       1  UNL1        0.2104
@<TRIPOS>BOND
     1    21    22    1
     2    22    20    1
     3    20    17    1
     4    17    18    2
     5    17    19    2
     6    17    15    1
     7    15    14    1
     8    14     5    1
     9     5     6   ar
    10     6     7   ar
    11     7     8   ar
    12     8     9   ar
    13     9    10   ar
    14     9    11    1
    15    11    12    1
    16    12     1    1
    17     1     2    2
    18     1     3   am
    19     3     4    1
    20     3    23    1
    21    23    30    1
    22    30    31    1
    23    31    32    1
    24    32    33    1
    25    33    34    1
    26    34    35    1
    27    34    36    1
    28    23    24    1
    29    24    25   ar
    30    25    26   ar
    31    26    27   ar
    32    27    28   ar
    33    28    29   ar
    34    12    13    1
    35    10     5   ar
    36    36    31    1
    37    29    24   ar
    38    13     8    1
    39    15    16    1
    40    35    37    1
@<TRIPOS>MOLECULE
*****
 37 40 0 0 0
SMALL
GASTEIGER

@<TRIPOS>ATOM
      1 C         -10.5464  -16.8890   20.7478 C.2     1  UNL1        0.2665
      2 O         -11.1570  -16.5120   19.4306 O.2     1  UNL1       -0.2710
      3 N         -11.2135  -16.4811   22.0279 N.am    1  UNL1       -0.2714
      4 C         -12.4912  -15.6962   21.9908 C.3     1  UNL1        0.1153
      5 C          -4.8184  -19.7755   21.4278 C.ar    1  UNL1       -0.0049
      6 C          -5.3605  -20.7073   20.3848 C.ar    1  UNL1        0.0002
      7 C          -6.7381  -20.4934   19.8312 C.ar    1  UNL1        0.0363
      8 C          -7.5736  -19.3478   20.3205 C.ar    1  UNL1        0.1352
      9 C          -7.0314  -18.4160   21.3635 C.ar    1  UNL1        0.0157
     10 C          -5.6538  -18.6298   21.9171 C.ar    1  UNL1       -0.0040
     11 C          -8.0791  -17.3815   21.6505 C.3     1  UNL1        0.0825
     12 C          -9.2687  -17.6739   20.7850 C.3     1  UNL1        0.2456
     13 O          -8.9562  -18.8892   19.9630 O.3     1  UNL1       -0.4699
     14 C          -3.4408  -19.9893   21.9814 C.3     1  UNL1        0.1173
     15 N          -2.5846  -18.8106   22.3382 N.3     1  UNL1       -0.1788
     16 H          -3.1906  -18.1379   22.8080 H       1  UNL1        0.1488
     17 S          -1.8559  -18.0600   21.2632 S.O2    1  UNL1        0.0410
     18 O          -2.4398  -16.7730   21.7660 O.2     1  UNL1       -0.1575
     19 O          -1.2721  -19.3470   20.7604 O.2     1  UNL1       -0.1575
     20 C          -1.1273  -17.3094   20.1881 C.3     1  UNL1        0.1688
     21 C          -2.8748  -17.3219   18.2656 C.3     1  UNL1        0.0019
     22 C          -1.4711  -17.5415   18.7467 C.3     1  UNL1        0.0270
     23 C         -10.6028  -16.8582   23.3451 C.3     1  UNL1        0.1139
     24 C         -10.4814  -18.3031   23.7293 C.ar    1  UNL1       -0.0029
     25 C          -9.8335  -18.6819   25.0280 C.ar    1  UNL1       -0.0026
     26 C          -9.7121  -20.1268   25.4122 C.ar    1  UNL1       -0.0003
     27 C         -10.2386  -21.1928   24.4977 C.ar    1  UNL1       -0.0000
     28 C         -10.8867  -20.8140   23.1990 C.ar    1  UNL1       -0.0003
     29 C         -11.0081  -19.3691   22.8148 C.ar    1  UNL1       -0.0026
     30 C         -10.1136  -15.7904   24.2781 C.3     1  UNL1        0.0968
     31 N          -8.6410  -15.5826   24.4739 N.3     1  UNL1       -0.2689
     32 C          -7.8913  -15.7461   25.7627 C.3     1  UNL1        0.0748
     33 C          -6.4465  -15.4394   25.5007 C.3     1  UNL1        0.0480
     34 C          -6.3034  -15.0863   24.0499 C.3     1  UNL1        0.1278
     35 O          -5.0279  -14.7107   23.3556 O.3     1  UNL1       -0.3830
     36 C          -7.6597  -15.1748   23.4152 C.3     1  UNL1        0.1017
     37 H          -5.2101  -14.5300   22.4201 H       1  UNL1        0.2104
@<TRIPOS>BOND
     1    21    22    1
     2    22    20    1
     3    20    17    1
     4    17    18    2
     5    17    19    2
     6    17    15    1
     7    15    14    1
     8    14     5    1
     9     5     6   ar
    10     6     7   ar
    11     7     8   ar
    12     8     9   ar
    13     9    10   ar
    14     9    11    1
    15    11    12    1
    16    12     1    1
    17     1     2    2
    18     1     3   am
    19     3     4    1
    20     3    23    1
    21    23    30    1
    22    30    31    1
    23    31    32    1
    24    32    33    1
    25    33    34    1
    26    34    35    1
    27    34    36    1
    28    23    24    1
    29    24    25   ar
    30    25    26   ar
    31    26    27   ar
    32    27    28   ar
    33    28    29   ar
    34    12    13    1
    35    10     5   ar
    36    36    31    1
    37    29    24   ar
    38    13     8    1
    39    15    16    1
    40    35    37    1
@<TRIPOS>MOLECULE
*****
 37 40 0 0 0
SMALL
GASTEIGER

@<TRIPOS>ATOM
      1 C           5.4093   -3.0548   20.7281 C.2     1  UNL1        0.2665
      2 O           5.7351   -4.5118   20.5839 O.2     1  UNL1       -0.2710
      3 N           5.1068   -2.2300   19.5122 N.am    1  UNL1       -0.2714
      4 C           5.1301   -2.8623   18.1522 C.3     1  UNL1        0.1153
      5 C           4.6237   -0.6325   26.6542 C.ar    1  UNL1       -0.0049
      6 C           5.9964   -0.0755   26.4187 C.ar    1  UNL1        0.0002
      7 C           6.7029   -0.3447   25.1232 C.ar    1  UNL1        0.0363
      8 C           6.0367   -1.1708   24.0632 C.ar    1  UNL1        0.1352
      9 C           4.6640   -1.7277   24.2987 C.ar    1  UNL1        0.0157
     10 C           3.9575   -1.4586   25.5942 C.ar    1  UNL1       -0.0040
     11 C           4.2619   -2.5013   23.0780 C.3     1  UNL1        0.0825
     12 C           5.3861   -2.4224   22.0881 C.3     1  UNL1        0.2456
     13 O           6.4830   -1.6001   22.6970 O.3     1  UNL1       -0.4699
     14 C           3.9172   -0.3633   27.9498 C.3     1  UNL1        0.1173
     15 N           2.5191   -0.8643   28.1598 N.3     1  UNL1       -0.1788
     16 H           2.1782   -1.1757   27.2503 H       1  UNL1        0.1488
     17 S           1.4721    0.0489   28.7253 S.O2    1  UNL1        0.0410
     18 O           1.5847   -0.6430   30.0514 O.2     1  UNL1       -0.1575
     19 O           1.3595    0.7409   27.3992 O.2     1  UNL1       -0.1575
     20 C           0.4251    0.9622   29.2907 C.3     1  UNL1        0.1688
     21 C          -1.4517   -0.7446   28.7301 C.3     1  UNL1        0.0019
     22 C          -1.0286    0.6466   29.0983 C.3     1  UNL1        0.0270
     23 C           4.7811   -0.7729   19.6564 C.3     1  UNL1        0.1139
     24 C           3.3503   -0.3268   19.7178 C.ar    1  UNL1       -0.0029
     25 C           2.6464    0.1095   18.4672 C.ar    1  UNL1       -0.0026
     26 C           1.2156    0.5556   18.5286 C.ar    1  UNL1       -0.0003
     27 C           0.4887    0.5654   19.8406 C.ar    1  UNL1       -0.0000
     28 C           1.1926    0.1292   21.0913 C.ar    1  UNL1       -0.0003
     29 C           2.6234   -0.3169   21.0299 C.ar    1  UNL1       -0.0026
     30 C           5.8861    0.2381   19.7392 C.3     1  UNL1        0.0968
     31 N           6.5780    0.6970   18.4899 N.3     1  UNL1       -0.2689
     32 C           6.0074    0.6637   17.1031 C.3     1  UNL1        0.0748
     33 C           7.0386    1.2159   16.1642 C.3     1  UNL1        0.0480
     34 C           8.2465    1.5905   16.9706 C.3     1  UNL1        0.1278
     35 O           9.5163    2.1820   16.4340 O.3     1  UNL1       -0.3830
     36 C           7.9619    1.2698   18.4081 C.3     1  UNL1        0.1017
     37 H          10.1379    2.3298   17.1638 H       1  UNL1        0.2104
@<TRIPOS>BOND
     1    21    22    1
     2    22    20    1
     3    20    17    1
     4    17    18    2
     5    17    19    2
     6    17    15    1
     7    15    14    1
     8    14     5    1
     9     5     6   ar
    10     6     7   ar
    11     7     8   ar
    12     8     9   ar
    13     9    10   ar
    14     9    11    1
    15    11    12    1
    16    12     1    1
    17     1     2    2
    18     1     3   am
    19     3     4    1
    20     3    23    1
    21    23    30    1
    22    30    31    1
    23    31    32    1
    24    32    33    1
    25    33    34    1
    26    34    35    1
    27    34    36    1
    28    23    24    1
    29    24    25   ar
    30    25    26   ar
    31    26    27   ar
    32    27    28   ar
    33    28    29   ar
    34    12    13    1
    35    10     5   ar
    36    36    31    1
    37    29    24   ar
    38    13     8    1
    39    15    16    1
    40    35    37    1
@<TRIPOS>MOLECULE
*****
 37 40 0 0 0
SMALL
GASTEIGER

@<TRIPOS>ATOM
      1 C           5.0164   -3.2765   20.5978 C.2     1  UNL1        0.2665
      2 O           4.5842   -4.6490   20.1743 O.2     1  UNL1       -0.2710
      3 N           5.3925   -2.2564   19.5644 N.am    1  UNL1       -0.2714
      4 C           5.3364   -2.6088   18.1075 C.3     1  UNL1        0.1153
      5 C           4.5839   -1.4433   26.7668 C.ar    1  UNL1       -0.0049
      6 C           5.9285   -2.0994   26.8737 C.ar    1  UNL1        0.0002
      7 C           6.5522   -2.7326   25.6654 C.ar    1  UNL1        0.0363
      8 C           5.8313   -2.7098   24.3503 C.ar    1  UNL1        0.1352
      9 C           4.4867   -2.0537   24.2434 C.ar    1  UNL1        0.0157
     10 C           3.8630   -1.4204   25.4517 C.ar    1  UNL1       -0.0040
     11 C           4.0177   -2.1861   22.8247 C.3     1  UNL1        0.0825
     12 C           5.0725   -2.9241   22.0548 C.3     1  UNL1        0.2456
     13 O           6.1934   -3.2477   22.9977 O.3     1  UNL1       -0.4699
     14 C           3.9602   -0.8100   27.9751 C.3     1  UNL1        0.1173
     15 N           2.5506   -1.1515   28.3576 N.3     1  UNL1       -0.1788
     16 H           2.1151   -1.5686   27.5349 H       1  UNL1        0.1488
     17 S           1.6229   -0.0762   28.8403 S.O2    1  UNL1        0.0410
     18 O           1.7473   -0.5978   30.2412 O.2     1  UNL1       -0.1575
     19 O           1.4985    0.4454   27.4394 O.2     1  UNL1       -0.1575
     20 C           0.6952    0.9992   29.3231 C.3     1  UNL1        0.1688
     21 C          -1.4623   -0.3836   28.8956 C.3     1  UNL1        0.0019
     22 C          -0.7637    0.9411   28.9794 C.3     1  UNL1        0.0270
     23 C           5.8247   -0.8838   19.9880 C.3     1  UNL1        0.1139
     24 C           6.9894   -0.7181   20.9185 C.ar    1  UNL1       -0.0029
     25 C           8.2733   -1.4459   20.6501 C.ar    1  UNL1       -0.0026
     26 C           9.4380   -1.2802   21.5807 C.ar    1  UNL1       -0.0003
     27 C           9.3189   -0.3867   22.7796 C.ar    1  UNL1       -0.0000
     28 C           8.0350    0.3411   23.0481 C.ar    1  UNL1       -0.0003
     29 C           6.8703    0.1754   22.1176 C.ar    1  UNL1       -0.0026
     30 C           5.0922    0.3229   19.4810 C.3     1  UNL1        0.0968
     31 N           3.6019    0.2809   19.3152 N.3     1  UNL1       -0.2689
     32 C           2.8482    0.5476   18.0461 C.3     1  UNL1        0.0748
     33 C           1.3842    0.3964   18.3359 C.3     1  UNL1        0.0480
     34 C           1.2332    0.0361   19.7841 C.3     1  UNL1        0.1278
     35 O          -0.0612   -0.2097   20.5012 O.3     1  UNL1       -0.3830
     36 C           2.6038   -0.0353   20.3894 C.3     1  UNL1        0.1017
     37 H           0.1194   -0.4253   21.4295 H       1  UNL1        0.2104
@<TRIPOS>BOND
     1    21    22    1
     2    22    20    1
     3    20    17    1
     4    17    18    2
     5    17    19    2
     6    17    15    1
     7    15    14    1
     8    14     5    1
     9     5     6   ar
    10     6     7   ar
    11     7     8   ar
    12     8     9   ar
    13     9    10   ar
    14     9    11    1
    15    11    12    1
    16    12     1    1
    17     1     2    2
    18     1     3   am
    19     3     4    1
    20     3    23    1
    21    23    30    1
    22    30    31    1
    23    31    32    1
    24    32    33    1
    25    33    34    1
    26    34    35    1
    27    34    36    1
    28    23    24    1
    29    24    25   ar
    30    25    26   ar
    31    26    27   ar
    32    27    28   ar
    33    28    29   ar
    34    12    13    1
    35    10     5   ar
    36    36    31    1
    37    29    24   ar
    38    13     8    1
    39    15    16    1
    40    35    37    1
@<TRIPOS>MOLECULE
*****
 37 40 0 0 0
SMALL
GASTEIGER

@<TRIPOS>ATOM
      1 C           5.6017   -3.2332   20.7407 C.2     1  UNL1        0.2665
      2 O           5.9233   -4.6764   20.4884 O.2     1  UNL1       -0.2710
      3 N           5.3065   -2.3182   19.5893 N.am    1  UNL1       -0.2714
      4 C           5.3328   -2.8464   18.1857 C.3     1  UNL1        0.1153
      5 C           4.7406   -1.0198   26.7377 C.ar    1  UNL1       -0.0049
      6 C           6.2381   -0.9343   26.7335 C.ar    1  UNL1        0.0002
      7 C           7.0097   -1.3489   25.5158 C.ar    1  UNL1        0.0363
      8 C           6.2837   -1.8492   24.3023 C.ar    1  UNL1        0.1352
      9 C           4.7862   -1.9348   24.3065 C.ar    1  UNL1        0.0157
     10 C           4.0146   -1.5201   25.5241 C.ar    1  UNL1       -0.0040
     11 C           4.3484   -2.4637   22.9728 C.3     1  UNL1        0.0825
     12 C           5.5754   -2.7049   22.1444 C.3     1  UNL1        0.2456
     13 O           6.7715   -2.3252   22.9661 O.3     1  UNL1       -0.4699
     14 C           3.9690   -0.6052   27.9553 C.3     1  UNL1        0.1173
     15 N           2.5248   -0.9860   28.0938 N.3     1  UNL1       -0.1788
     16 H           2.1995   -1.2500   27.1639 H       1  UNL1        0.1488
     17 S           1.5363    0.0048   28.6333 S.O2    1  UNL1        0.0410
     18 O           1.4058    0.6168   27.2701 O.2     1  UNL1       -0.1575
     19 O           1.6669   -0.6072   29.9966 O.2     1  UNL1       -0.1575
     20 C           0.5478    0.9957   29.1728 C.3     1  UNL1        0.1688
     21 C          -1.4892   -0.5547   28.7291 C.3     1  UNL1        0.0019
     22 C          -0.8481    0.5580   29.5043 C.3     1  UNL1        0.0270
     23 C           4.9849   -0.8749   19.8417 C.3     1  UNL1        0.1139
     24 C           3.5764   -0.3824   19.6881 C.ar    1  UNL1       -0.0029
     25 C           3.2924    0.8282   18.8493 C.ar    1  UNL1       -0.0026
     26 C           1.8839    1.3207   18.6957 C.ar    1  UNL1       -0.0003
     27 C           0.7594    0.6026   19.3810 C.ar    1  UNL1       -0.0000
     28 C           1.0433   -0.6081   20.2198 C.ar    1  UNL1       -0.0003
     29 C           2.4518   -1.1006   20.3734 C.ar    1  UNL1       -0.0026
     30 C           6.0718    0.0758   20.2476 C.3     1  UNL1        0.0968
     31 N           6.0142    0.7543   21.5842 N.3     1  UNL1       -0.2689
     32 C           4.7678    1.1348   22.3268 C.3     1  UNL1        0.0748
     33 C           5.1762    1.7871   23.6143 C.3     1  UNL1        0.0480
     34 C           6.6751    1.8096   23.6675 C.3     1  UNL1        0.1278
     35 O           7.5095    2.3717   24.7800 O.3     1  UNL1       -0.3830
     36 C           7.1931    1.1713   22.4127 C.3     1  UNL1        0.1017
     37 H           8.4493    2.2608   24.5671 H       1  UNL1        0.2104
@<TRIPOS>BOND
     1    21    22    1
     2    22    20    1
     3    20    17    1
     4    17    18    2
     5    17    19    2
     6    17    15    1
     7    15    14    1
     8    14     5    1
     9     5     6   ar
    10     6     7   ar
    11     7     8   ar
    12     8     9   ar
    13     9    10   ar
    14     9    11    1
    15    11    12    1
    16    12     1    1
    17     1     2    2
    18     1     3   am
    19     3     4    1
    20     3    23    1
    21    23    30    1
    22    30    31    1
    23    31    32    1
    24    32    33    1
    25    33    34    1
    26    34    35    1
    27    34    36    1
    28    23    24    1
    29    24    25   ar
    30    25    26   ar
    31    26    27   ar
    32    27    28   ar
    33    28    29   ar
    34    12    13    1
    35    10     5   ar
    36    36    31    1
    37    29    24   ar
    38    13     8    1
    39    15    16    1
    40    35    37    1
@<TRIPOS>MOLECULE
*****
 37 40 0 0 0
SMALL
GASTEIGER

@<TRIPOS>ATOM
      1 C           4.0704   -2.7841   19.7900 C.2     1  UNL1        0.2665
      2 O           3.5572   -4.1650   19.5081 O.2     1  UNL1       -0.2710
      3 N           5.5270   -2.5693   20.0768 N.am    1  UNL1       -0.2714
      4 C           6.4704   -3.7355   20.0816 C.3     1  UNL1        0.1153
      5 C          -0.1235    2.0663   20.4892 C.ar    1  UNL1       -0.0049
      6 C           0.2067    2.3274   19.0495 C.ar    1  UNL1        0.0002
      7 C           1.1887    1.4480   18.3338 C.ar    1  UNL1        0.0363
      8 C           1.8406    0.3074   19.0578 C.ar    1  UNL1        0.1352
      9 C           1.5103    0.0464   20.4975 C.ar    1  UNL1        0.0157
     10 C           0.5283    0.9258   21.2132 C.ar    1  UNL1       -0.0040
     11 C           2.3055   -1.1435   20.9471 C.3     1  UNL1        0.0825
     12 C           3.1271   -1.6178   19.7852 C.3     1  UNL1        0.2456
     13 O           2.8397   -0.7210   18.6176 O.3     1  UNL1       -0.4699
     14 C          -1.1056    2.9458   21.2048 C.3     1  UNL1        0.1173
     15 N          -2.5756    2.7903   20.9506 N.3     1  UNL1       -0.1788
     16 H          -2.7266    2.9925   19.9624 H       1  UNL1        0.1488
     17 S          -3.5614    3.6206   21.7180 S.O2    1  UNL1        0.0410
     18 O          -4.6365    2.6171   21.4227 O.2     1  UNL1       -0.1575
     19 O          -2.4863    4.6240   22.0134 O.2     1  UNL1       -0.1575
     20 C          -4.5472    4.4508   22.4854 C.3     1  UNL1        0.1688
     21 C          -4.9129    3.5595   24.8982 C.3     1  UNL1        0.0019
     22 C          -5.4309    3.8073   23.5125 C.3     1  UNL1        0.0270
     23 C           6.0403   -1.1883   20.3587 C.3     1  UNL1        0.1139
     24 C           6.0815   -0.1652   19.2624 C.ar    1  UNL1       -0.0029
     25 C           6.6490   -0.5254   17.9215 C.ar    1  UNL1       -0.0026
     26 C           6.6903    0.4977   16.8253 C.ar    1  UNL1       -0.0003
     27 C           6.1641    1.8808   17.0700 C.ar    1  UNL1       -0.0000
     28 C           5.5966    2.2410   18.4110 C.ar    1  UNL1       -0.0003
     29 C           5.5553    1.2180   19.5072 C.ar    1  UNL1       -0.0026
     30 C           6.5122   -0.8303   21.7367 C.3     1  UNL1        0.0968
     31 N           5.5193   -0.6534   22.8472 N.3     1  UNL1       -0.2689
     32 C           4.6425    0.5442   23.0632 C.3     1  UNL1        0.0748
     33 C           3.8102    0.2949   24.2860 C.3     1  UNL1        0.0480
     34 C           4.1728   -1.0569   24.8257 C.3     1  UNL1        0.1278
     35 O           3.5826   -1.7083   26.0412 O.3     1  UNL1       -0.3830
     36 C           5.2291   -1.6430   23.9364 C.3     1  UNL1        0.1017
     37 H           3.9900   -2.5789   26.1714 H       1  UNL1        0.2104
@<TRIPOS>BOND
     1    21    22    1
     2    22    20    1
     3    20    17    1
     4    17    18    2
     5    17    19    2
     6    17    15    1
     7    15    14    1
     8    14     5    1
     9     5     6   ar
    10     6     7   ar
    11     7     8   ar
    12     8     9   ar
    13     9    10   ar
    14     9    11    1
    15    11    12    1
    16    12     1    1
    17     1     2    2
    18     1     3   am
    19     3     4    1
    20     3    23    1
    21    23    30    1
    22    30    31    1
    23    31    32    1
    24    32    33    1
    25    33    34    1
    26    34    35    1
    27    34    36    1
    28    23    24    1
    29    24    25   ar
    30    25    26   ar
    31    26    27   ar
    32    27    28   ar
    33    28    29   ar
    34    12    13    1
    35    10     5   ar
    36    36    31    1
    37    29    24   ar
    38    13     8    1
    39    15    16    1
    40    35    37    1
@<TRIPOS>MOLECULE
*****
 37 40 0 0 0
SMALL
GASTEIGER

@<TRIPOS>ATOM
      1 C           3.6743   -2.6531   19.6240 C.2     1  UNL1        0.2665
      2 O           3.1752   -3.9138   18.9825 O.2     1  UNL1       -0.2710
      3 N           4.9827   -2.6520   20.3576 N.am    1  UNL1       -0.2714
      4 C           5.7920   -3.9115   20.4497 C.3     1  UNL1        0.1153
      5 C          -0.2375    2.4734   19.7702 C.ar    1  UNL1       -0.0049
      6 C           0.6734    2.9798   18.6915 C.ar    1  UNL1        0.0002
      7 C           1.8298    2.1421   18.2318 C.ar    1  UNL1        0.0363
      8 C           2.0751    0.7981   18.8509 C.ar    1  UNL1        0.1352
      9 C           1.1642    0.2917   19.9296 C.ar    1  UNL1        0.0157
     10 C           0.0078    1.1293   20.3892 C.ar    1  UNL1       -0.0040
     11 C           1.6523   -1.0628   20.3506 C.3     1  UNL1        0.0825
     12 C           2.8650   -1.3935   19.5320 C.3     1  UNL1        0.2456
     13 O           3.1263   -0.2434   18.6051 O.3     1  UNL1       -0.4699
     14 C          -1.3939    3.3110   20.2298 C.3     1  UNL1        0.1173
     15 N          -2.5895    2.6587   20.8582 N.3     1  UNL1       -0.1788
     16 H          -2.6211    1.7015   20.5073 H       1  UNL1        0.1488
     17 S          -3.9564    3.2408   20.6519 S.O2    1  UNL1        0.0410
     18 O          -3.5738    3.6456   19.2591 O.2     1  UNL1       -0.1575
     19 O          -4.3391    2.8360   22.0446 O.2     1  UNL1       -0.1575
     20 C          -5.3234    3.8230   20.4455 C.3     1  UNL1        0.1688
     21 C          -7.0448    4.3998   18.5870 C.3     1  UNL1        0.0019
     22 C          -6.1447    3.4072   19.2613 C.3     1  UNL1        0.0270
     23 C           5.4817   -1.3912   20.9991 C.3     1  UNL1        0.1139
     24 C           4.8250   -0.8724   22.2440 C.ar    1  UNL1       -0.0029
     25 C           4.4660   -1.8174   23.3521 C.ar    1  UNL1       -0.0026
     26 C           3.8093   -1.2986   24.5970 C.ar    1  UNL1       -0.0003
     27 C           3.5117    0.1652   24.7337 C.ar    1  UNL1       -0.0000
     28 C           3.8708    1.1103   23.6255 C.ar    1  UNL1       -0.0003
     29 C           4.5274    0.5914   22.3806 C.ar    1  UNL1       -0.0026
     30 C           6.6374   -0.6494   20.3958 C.3     1  UNL1        0.0968
     31 N           6.4614    0.0890   19.1020 N.3     1  UNL1       -0.2689
     32 C           6.5358   -0.5091   17.7285 C.3     1  UNL1        0.0748
     33 C           6.3006    0.5873   16.7321 C.3     1  UNL1        0.0480
     34 C           6.0809    1.8629   17.4899 C.3     1  UNL1        0.1278
     35 O           5.8094    3.2101   16.8886 O.3     1  UNL1       -0.3830
     36 C           6.1803    1.5550   18.9547 C.3     1  UNL1        0.1017
     37 H           5.7055    3.8651   17.5965 H       1  UNL1        0.2104
@<TRIPOS>BOND
     1    21    22    1
     2    22    20    1
     3    20    17    1
     4    17    18    2
     5    17    19    2
     6    17    15    1
     7    15    14    1
     8    14     5    1
     9     5     6   ar
    10     6     7   ar
    11     7     8   ar
    12     8     9   ar
    13     9    10   ar
    14     9    11    1
    15    11    12    1
    16    12     1    1
    17     1     2    2
    18     1     3   am
    19     3     4    1
    20     3    23    1
    21    23    30    1
    22    30    31    1
    23    31    32    1
    24    32    33    1
    25    33    34    1
    26    34    35    1
    27    34    36    1
    28    23    24    1
    29    24    25   ar
    30    25    26   ar
    31    26    27   ar
    32    27    28   ar
    33    28    29   ar
    34    12    13    1
    35    10     5   ar
    36    36    31    1
    37    29    24   ar
    38    13     8    1
    39    15    16    1
    40    35    37    1
@<TRIPOS>MOLECULE
*****
 37 40 0 0 0
SMALL
GASTEIGER

@<TRIPOS>ATOM
      1 C           3.8097   -2.6975   19.6603 C.2     1  UNL1        0.2665
      2 O           3.2544   -4.0526   19.3363 O.2     1  UNL1       -0.2710
      3 N           5.2604   -2.5453   20.0098 N.am    1  UNL1       -0.2714
      4 C           6.1559   -3.7484   20.0353 C.3     1  UNL1        0.1153
      5 C          -0.2707    2.2649   20.2343 C.ar    1  UNL1       -0.0049
      6 C           0.2412    2.6171   18.8690 C.ar    1  UNL1        0.0002
      7 C           1.2727    1.7512   18.2085 C.ar    1  UNL1        0.0363
      8 C           1.7922    0.5332   18.9131 C.ar    1  UNL1        0.1352
      9 C           1.2802    0.1811   20.2783 C.ar    1  UNL1        0.0157
     10 C           0.2488    1.0469   20.9389 C.ar    1  UNL1       -0.0040
     11 C           1.9737   -1.0720   20.7245 C.3     1  UNL1        0.0825
     12 C           2.9142   -1.4943   19.6349 C.3     1  UNL1        0.2456
     13 O           2.8020   -0.5022   18.5154 O.3     1  UNL1       -0.4699
     14 C          -1.3022    3.1308   20.8948 C.3     1  UNL1        0.1173
     15 N          -2.7422    2.7109   20.8997 N.3     1  UNL1       -0.1788
     16 H          -2.8153    1.9024   20.2822 H       1  UNL1        0.1488
     17 S          -3.8069    3.6782   20.4746 S.O2    1  UNL1        0.0410
     18 O          -4.4333    3.5864   21.8344 O.2     1  UNL1       -0.1575
     19 O          -3.1805    3.7700   19.1147 O.2     1  UNL1       -0.1575
     20 C          -4.8717    4.6455   20.0494 C.3     1  UNL1        0.1688
     21 C          -6.7536    3.4096   18.7529 C.3     1  UNL1        0.0019
     22 C          -5.6359    4.4096   18.7805 C.3     1  UNL1        0.0270
     23 C           5.8157   -1.1900   20.3339 C.3     1  UNL1        0.1139
     24 C           5.9083   -0.1422   19.2646 C.ar    1  UNL1       -0.0029
     25 C           6.4173   -0.5051   17.9010 C.ar    1  UNL1       -0.0026
     26 C           6.5099    0.5428   16.8317 C.ar    1  UNL1       -0.0003
     27 C           6.0936    1.9534   17.1259 C.ar    1  UNL1       -0.0000
     28 C           5.5846    2.3164   18.4895 C.ar    1  UNL1       -0.0003
     29 C           5.4920    1.2686   19.5588 C.ar    1  UNL1       -0.0026
     30 C           6.2783   -0.8826   21.7273 C.3     1  UNL1        0.0968
     31 N           5.2778   -0.7439   22.8363 N.3     1  UNL1       -0.2689
     32 C           4.2377    0.3302   22.9561 C.3     1  UNL1        0.0748
     33 C           3.4588    0.0830   24.2139 C.3     1  UNL1        0.0480
     34 C           4.0176   -1.1439   24.8716 C.3     1  UNL1        0.1278
     35 O           3.5366   -1.7528   26.1553 O.3     1  UNL1       -0.3830
     36 C           5.1418   -1.6550   24.0201 C.3     1  UNL1        0.1017
     37 H           4.0671   -2.5389   26.3589 H       1  UNL1        0.2104
@<TRIPOS>BOND
     1    21    22    1
     2    22    20    1
     3    20    17    1
     4    17    18    2
     5    17    19    2
     6    17    15    1
     7    15    14    1
     8    14     5    1
     9     5     6   ar
    10     6     7   ar
    11     7     8   ar
    12     8     9   ar
    13     9    10   ar
    14     9    11    1
    15    11    12    1
    16    12     1    1
    17     1     2    2
    18     1     3   am
    19     3     4    1
    20     3    23    1
    21    23    30    1
    22    30    31    1
    23    31    32    1
    24    32    33    1
    25    33    34    1
    26    34    35    1
    27    34    36    1
    28    23    24    1
    29    24    25   ar
    30    25    26   ar
    31    26    27   ar
    32    27    28   ar
    33    28    29   ar
    34    12    13    1
    35    10     5   ar
    36    36    31    1
    37    29    24   ar
    38    13     8    1
    39    15    16    1
    40    35    37    1
@<TRIPOS>MOLECULE
*****
 37 40 0 0 0
SMALL
GASTEIGER

@<TRIPOS>ATOM
      1 C           7.6109   -0.2159   21.8377 C.2     1  UNL1        0.2665
      2 O           8.8776    0.5838   21.7606 O.2     1  UNL1       -0.2710
      3 N           6.3613    0.2934   21.1825 N.am    1  UNL1       -0.2714
      4 C           6.3785    1.6023   20.4501 C.3     1  UNL1        0.1153
      5 C           7.2509   -5.4653   25.5685 C.ar    1  UNL1       -0.0049
      6 C           7.8242   -6.1477   24.3620 C.ar    1  UNL1        0.0002
      7 C           8.1257   -5.3553   23.1246 C.ar    1  UNL1        0.0363
      8 C           7.8539   -3.8805   23.0936 C.ar    1  UNL1        0.1352
      9 C           7.2806   -3.1981   24.3001 C.ar    1  UNL1        0.0157
     10 C           6.9791   -3.9905   25.5375 C.ar    1  UNL1       -0.0040
     11 C           7.1198   -1.7422   23.9765 C.3     1  UNL1        0.0825
     12 C           7.5937   -1.5249   22.5700 C.3     1  UNL1        0.2456
     13 O           8.0474   -2.8465   22.0244 O.3     1  UNL1       -0.4699
     14 C           6.9493   -6.2577   26.8059 C.3     1  UNL1        0.1173
     15 N           7.9251   -6.2698   27.9450 N.3     1  UNL1       -0.1788
     16 H           8.3359   -7.2030   27.9709 H       1  UNL1        0.1488
     17 S           7.4568   -5.9642   29.3369 S.O2    1  UNL1        0.0410
     18 O           6.1754   -5.4134   28.7849 O.2     1  UNL1       -0.1575
     19 O           8.7382   -6.5149   29.8889 O.2     1  UNL1       -0.1575
     20 C           6.9886   -5.6585   30.7288 C.3     1  UNL1        0.1688
     21 C           6.5019   -3.6375   32.2872 C.3     1  UNL1        0.0019
     22 C           7.4503   -4.4088   31.4180 C.3     1  UNL1        0.0270
     23 C           5.0946   -0.5064   21.2596 C.3     1  UNL1        0.1139
     24 C           4.9712   -1.7913   20.4955 C.ar    1  UNL1       -0.0029
     25 C           4.3950   -3.0065   21.1597 C.ar    1  UNL1       -0.0026
     26 C           4.2716   -4.2914   20.3957 C.ar    1  UNL1       -0.0003
     27 C           4.7245   -4.3611   18.9674 C.ar    1  UNL1       -0.0000
     28 C           5.3008   -3.1459   18.3031 C.ar    1  UNL1       -0.0003
     29 C           5.4242   -1.8610   19.0672 C.ar    1  UNL1       -0.0026
     30 C           3.9514   -0.0212   22.1007 C.3     1  UNL1        0.0968
     31 N           4.0096   -0.1537   23.5938 N.3     1  UNL1       -0.2689
     32 C           4.5514    0.8679   24.5491 C.3     1  UNL1        0.0748
     33 C           4.4129    0.3219   25.9393 C.3     1  UNL1        0.0480
     34 C           3.7855   -1.0371   25.8432 C.3     1  UNL1        0.1278
     35 O           3.4638   -1.9432   26.9946 O.3     1  UNL1       -0.3830
     36 C           3.5362   -1.3312   24.3935 C.3     1  UNL1        0.1017
     37 H           3.0641   -2.7613   26.6603 H       1  UNL1        0.2104
@<TRIPOS>BOND
     1    21    22    1
     2    22    20    1
     3    20    17    1
     4    17    18    2
     5    17    19    2
     6    17    15    1
     7    15    14    1
     8    14     5    1
     9     5     6   ar
    10     6     7   ar
    11     7     8   ar
    12     8     9   ar
    13     9    10   ar
    14     9    11    1
    15    11    12    1
    16    12     1    1
    17     1     2    2
    18     1     3   am
    19     3     4    1
    20     3    23    1
    21    23    30    1
    22    30    31    1
    23    31    32    1
    24    32    33    1
    25    33    34    1
    26    34    35    1
    27    34    36    1
    28    23    24    1
    29    24    25   ar
    30    25    26   ar
    31    26    27   ar
    32    27    28   ar
    33    28    29   ar
    34    12    13    1
    35    10     5   ar
    36    36    31    1
    37    29    24   ar
    38    13     8    1
    39    15    16    1
    40    35    37    1
