@<TRIPOS>MOLECULE
*****
 11 12 0 0 0
SMALL
GASTEIGER

@<TRIPOS>ATOM
      1 C          -7.0573  -15.6738   27.2789 C.ar    1  UNL1        0.0207
      2 C          -6.0052  -15.0041   26.4455 C.ar    1  UNL1        0.0989
      3 N          -6.1272  -14.9932   24.9505 N.ar    1  UNL1       -0.2423
      4 C          -7.3011  -15.6520   24.2889 C.ar    1  UNL1        0.0989
      5 C          -8.3532  -16.3217   25.1223 C.ar    1  UNL1        0.0197
      6 C          -8.2312  -16.3326   26.6173 C.ar    1  UNL1        0.0032
      7 C          -9.5272  -16.9806   24.4607 C.ar    1  UNL1        0.0085
      8 C         -10.1128  -18.3122   24.8269 C.ar    1  UNL1        0.0075
      9 C         -11.2692  -18.5781   23.9094 C.ar    1  UNL1        0.0355
     10 S         -11.3984  -17.4108   22.9762 S.2     1  UNL1       -0.0859
     11 C         -10.3218  -16.4235   23.3170 C.ar    1  UNL1        0.0355
@<TRIPOS>BOND
     1     1     2   ar
     2     2     3   ar
     3     3     4   ar
     4     4     5   ar
     5     5     7    1
     6     7     8   ar
     7     8     9   ar
     8     9    10   ar
     9    10    11   ar
    10     5     6   ar
    11     6     1   ar
    12    11     7   ar
@<TRIPOS>MOLECULE
*****
 11 12 0 0 0
SMALL
GASTEIGER

@<TRIPOS>ATOM
      1 C          -7.2776  -15.5301   25.7094 C.ar    1  UNL1        0.0207
      2 C          -6.2851  -15.2224   24.6277 C.ar    1  UNL1        0.0989
      3 N          -6.6372  -15.4773   23.1921 N.ar    1  UNL1       -0.2423
      4 C          -7.9818  -16.0399   22.8382 C.ar    1  UNL1        0.0989
      5 C          -8.9743  -16.3477   23.9199 C.ar    1  UNL1        0.0197
      6 C          -8.6222  -16.0928   25.3555 C.ar    1  UNL1        0.0032
      7 C         -10.3191  -16.9104   23.5660 C.ar    1  UNL1        0.0085
      8 C         -10.9219  -18.1679   24.1188 C.ar    1  UNL1        0.0075
      9 C         -12.2724  -18.3491   23.4917 C.ar    1  UNL1        0.0355
     10 S         -12.5042  -17.2037   22.5513 S.2     1  UNL1       -0.0859
     11 C         -11.2970  -16.3145   22.5973 C.ar    1  UNL1        0.0355
@<TRIPOS>BOND
     1     1     2   ar
     2     2     3   ar
     3     3     4   ar
     4     4     5   ar
     5     5     7    1
     6     7     8   ar
     7     8     9   ar
     8     9    10   ar
     9    10    11   ar
    10     5     6   ar
    11     6     1   ar
    12    11     7   ar
@<TRIPOS>MOLECULE
*****
 11 12 0 0 0
SMALL
GASTEIGER

@<TRIPOS>ATOM
      1 C         -12.3757  -18.1464   22.8527 C.ar    1  UNL1        0.0207
      2 C         -12.7185  -17.6079   21.4954 C.ar    1  UNL1        0.0989
      3 N         -11.8275  -16.5917   20.8447 N.ar    1  UNL1       -0.2423
      4 C         -10.5938  -16.1138   21.5515 C.ar    1  UNL1        0.0989
      5 C         -10.2510  -16.6523   22.9089 C.ar    1  UNL1        0.0197
      6 C         -11.1420  -17.6686   23.5595 C.ar    1  UNL1        0.0032
      7 C          -9.0172  -16.1745   23.6157 C.ar    1  UNL1        0.0085
      8 C          -8.8691  -15.9778   25.0954 C.ar    1  UNL1        0.0075
      9 C          -7.4754  -15.4913   25.3611 C.ar    1  UNL1        0.0355
     10 S          -6.7620  -15.3872   24.0457 S.2     1  UNL1       -0.0859
     11 C          -7.7150  -15.8094   22.9670 C.ar    1  UNL1        0.0355
@<TRIPOS>BOND
     1     1     2   ar
     2     2     3   ar
     3     3     4   ar
     4     4     5   ar
     5     5     7    1
     6     7     8   ar
     7     8     9   ar
     8     9    10   ar
     9    10    11   ar
    10     5     6   ar
    11     6     1   ar
    12    11     7   ar
@<TRIPOS>MOLECULE
*****
 11 12 0 0 0
SMALL
GASTEIGER

@<TRIPOS>ATOM
      1 C          -1.3967  -16.6508   21.3229 C.ar    1  UNL1        0.0207
      2 C          -0.5491  -16.9418   20.1200 C.ar    1  UNL1        0.0989
      3 N          -0.9502  -18.0261   19.1644 N.ar    1  UNL1       -0.2423
      4 C          -2.1989  -18.8195   19.4115 C.ar    1  UNL1        0.0989
      5 C          -3.0466  -18.5286   20.6143 C.ar    1  UNL1        0.0197
      6 C          -2.6455  -17.4442   21.5700 C.ar    1  UNL1        0.0032
      7 C          -4.2954  -19.3220   20.8615 C.ar    1  UNL1        0.0085
      8 C          -4.7522  -20.5149   20.0751 C.ar    1  UNL1        0.0075
      9 C          -6.0457  -20.9920   20.6661 C.ar    1  UNL1        0.0355
     10 S          -6.3883  -20.0940   21.8177 S.2     1  UNL1       -0.0859
     11 C          -5.3065  -19.0619   21.9385 C.ar    1  UNL1        0.0355
@<TRIPOS>BOND
     1     1     2   ar
     2     2     3   ar
     3     3     4   ar
     4     4     5   ar
     5     5     7    1
     6     7     8   ar
     7     8     9   ar
     8     9    10   ar
     9    10    11   ar
    10     5     6   ar
    11     6     1   ar
    12    11     7   ar
@<TRIPOS>MOLECULE
*****
 11 12 0 0 0
SMALL
GASTEIGER

@<TRIPOS>ATOM
      1 C         -12.1693  -18.2508   22.7703 C.ar    1  UNL1        0.0207
      2 C         -12.7919  -17.5943   21.5739 C.ar    1  UNL1        0.0989
      3 N         -12.0268  -17.4999   20.2872 N.ar    1  UNL1       -0.2423
      4 C         -10.6391  -18.0620   20.1968 C.ar    1  UNL1        0.0989
      5 C         -10.0165  -18.7185   21.3931 C.ar    1  UNL1        0.0197
      6 C         -10.7816  -18.8129   22.6799 C.ar    1  UNL1        0.0032
      7 C          -8.6287  -19.2807   21.3028 C.ar    1  UNL1        0.0085
      8 C          -7.7978  -19.7669   22.4531 C.ar    1  UNL1        0.0075
      9 C          -6.4837  -20.2420   21.9076 C.ar    1  UNL1        0.0355
     10 S          -6.5025  -20.0494   20.4201 S.2     1  UNL1       -0.0859
     11 C          -7.8282  -19.4552   20.0464 C.ar    1  UNL1        0.0355
@<TRIPOS>BOND
     1     1     2   ar
     2     2     3   ar
     3     3     4   ar
     4     4     5   ar
     5     5     7    1
     6     7     8   ar
     7     8     9   ar
     8     9    10   ar
     9    10    11   ar
    10     5     6   ar
    11     6     1   ar
    12    11     7   ar
@<TRIPOS>MOLECULE
*****
 11 12 0 0 0
SMALL
GASTEIGER

@<TRIPOS>ATOM
      1 C          -6.0921  -15.4007   24.3881 C.ar    1  UNL1        0.0207
      2 C          -5.9784  -15.1639   25.8649 C.ar    1  UNL1        0.0989
      3 N          -7.1087  -15.5443   26.7747 N.ar    1  UNL1       -0.2423
      4 C          -8.3527  -16.1614   26.2077 C.ar    1  UNL1        0.0989
      5 C          -8.4664  -16.3982   24.7309 C.ar    1  UNL1        0.0197
      6 C          -7.3361  -16.0178   23.8211 C.ar    1  UNL1        0.0032
      7 C          -9.7105  -17.0153   24.1638 C.ar    1  UNL1        0.0085
      8 C         -10.3362  -18.3044   24.6073 C.ar    1  UNL1        0.0075
      9 C         -11.5597  -18.5376   23.7714 C.ar    1  UNL1        0.0355
     10 S         -11.6901  -17.3925   22.8112 S.2     1  UNL1       -0.0859
     11 C         -10.5472  -16.4517   23.0538 C.ar    1  UNL1        0.0355
@<TRIPOS>BOND
     1     1     2   ar
     2     2     3   ar
     3     3     4   ar
     4     4     5   ar
     5     5     7    1
     6     7     8   ar
     7     8     9   ar
     8     9    10   ar
     9    10    11   ar
    10     5     6   ar
    11     6     1   ar
    12    11     7   ar
@<TRIPOS>MOLECULE
*****
 11 12 0 0 0
SMALL
GASTEIGER

@<TRIPOS>ATOM
      1 C          -3.3943  -18.8010   22.4747 C.ar    1  UNL1        0.0207
      2 C          -2.5851  -19.7136   21.6017 C.ar    1  UNL1        0.0989
      3 N          -3.2608  -20.5300   20.5401 N.ar    1  UNL1       -0.2423
      4 C          -4.7457  -20.4337   20.3515 C.ar    1  UNL1        0.0989
      5 C          -5.5550  -19.5210   21.2245 C.ar    1  UNL1        0.0197
      6 C          -4.8793  -18.7047   22.2861 C.ar    1  UNL1        0.0032
      7 C          -7.0400  -19.4247   21.0358 C.ar    1  UNL1        0.0085
      8 C          -7.7680  -19.4829   19.7256 C.ar    1  UNL1        0.0075
      9 C          -9.2356  -19.3475   20.0043 C.ar    1  UNL1        0.0355
     10 S          -9.4147  -19.2055   21.4868 S.2     1  UNL1       -0.0859
     11 C          -8.0577  -19.2532   22.1243 C.ar    1  UNL1        0.0355
@<TRIPOS>BOND
     1     1     2   ar
     2     2     3   ar
     3     3     4   ar
     4     4     5   ar
     5     5     7    1
     6     7     8   ar
     7     8     9   ar
     8     9    10   ar
     9    10    11   ar
    10     5     6   ar
    11     6     1   ar
    12    11     7   ar
@<TRIPOS>MOLECULE
*****
 11 12 0 0 0
SMALL
GASTEIGER

@<TRIPOS>ATOM
      1 C          -8.3007  -15.5362   25.3395 C.ar    1  UNL1        0.0207
      2 C          -6.9835  -15.1617   24.7274 C.ar    1  UNL1        0.0989
      3 N          -6.5464  -15.7976   23.4411 N.ar    1  UNL1       -0.2423
      4 C          -7.4264  -16.8079   22.7669 C.ar    1  UNL1        0.0989
      5 C          -8.7436  -17.1824   23.3789 C.ar    1  UNL1        0.0197
      6 C          -9.1808  -16.5466   24.6652 C.ar    1  UNL1        0.0032
      7 C          -9.6238  -18.1929   22.7047 C.ar    1  UNL1        0.0085
      8 C         -10.1170  -19.4746   23.3078 C.ar    1  UNL1        0.0075
      9 C         -10.9632  -20.1728   22.2849 C.ar    1  UNL1        0.0355
     10 S         -10.9930  -19.3225   21.0495 S.2     1  UNL1       -0.0859
     11 C         -10.1651  -18.0989   21.3090 C.ar    1  UNL1        0.0355
@<TRIPOS>BOND
     1     1     2   ar
     2     2     3   ar
     3     3     4   ar
     4     4     5   ar
     5     5     7    1
     6     7     8   ar
     7     8     9   ar
     8     9    10   ar
     9    10    11   ar
    10     5     6   ar
    11     6     1   ar
    12    11     7   ar
@<TRIPOS>MOLECULE
*****
 11 12 0 0 0
SMALL
GASTEIGER

@<TRIPOS>ATOM
      1 C          -6.5913  -19.8431   21.9834 C.ar    1  UNL1        0.0207
      2 C          -5.6905  -18.6950   22.3302 C.ar    1  UNL1        0.0989
      3 N          -6.2771  -17.3540   22.6585 N.ar    1  UNL1       -0.2423
      4 C          -7.7645  -17.1612   22.6400 C.ar    1  UNL1        0.0989
      5 C          -8.6653  -18.3093   22.2931 C.ar    1  UNL1        0.0197
      6 C          -8.0787  -19.6502   21.9648 C.ar    1  UNL1        0.0032
      7 C         -10.1528  -18.1165   22.2746 C.ar    1  UNL1        0.0085
      8 C         -11.0203  -18.0670   21.0518 C.ar    1  UNL1        0.0075
      9 C         -12.4375  -17.8592   21.4970 C.ar    1  UNL1        0.0355
     10 S         -12.4460  -17.7803   22.9949 S.2     1  UNL1       -0.0859
     11 C         -11.0340  -17.9393   23.4755 C.ar    1  UNL1        0.0355
@<TRIPOS>BOND
     1     1     2   ar
     2     2     3   ar
     3     3     4   ar
     4     4     5   ar
     5     5     7    1
     6     7     8   ar
     7     8     9   ar
     8     9    10   ar
     9    10    11   ar
    10     5     6   ar
    11     6     1   ar
    12    11     7   ar
