@<TRIPOS>MOLECULE
*****
 36 39 0 0 0
SMALL
GASTEIGER

@<TRIPOS>ATOM
      1 C           6.8890   -4.2807   31.1161 C.3     1  UNL1        0.0334
      2 C           7.0300   -4.5732   29.6517 C.ar    1  UNL1        0.0071
      3 C           6.5429   -3.5804   28.6383 C.ar    1  UNL1        0.0156
      4 C           6.6839   -3.8728   27.1738 C.ar    1  UNL1        0.0673
      5 C           7.3121   -5.1580   26.7228 C.ar    1  UNL1        0.0295
      6 C           7.7993   -6.1508   27.7362 C.ar    1  UNL1        0.0315
      7 C           7.6582   -5.8584   29.2006 C.ar    1  UNL1        0.1363
      8 F           8.1454   -6.8513   30.2140 F       1  UNL1       -0.2045
      9 C           7.3162   -5.1706   25.2229 C.ar    1  UNL1        0.0875
     10 C           6.6905   -3.8931   24.7469 C.ar    1  UNL1        0.0939
     11 N           6.2997   -3.0910   25.9526 N.ar    1  UNL1       -0.2745
     12 C           6.4906   -3.4888   23.3162 C.ar    1  UNL1        0.0982
     13 C           5.1432   -3.6411   22.6750 C.ar    1  UNL1        0.0220
     14 C           4.9435   -3.2367   21.2445 C.ar    1  UNL1        0.0231
     15 C           6.0911   -2.6801   20.4551 C.ar    1  UNL1        0.1410
     16 C           7.4385   -2.5278   21.0963 C.ar    1  UNL1        0.1187
     17 N           7.6383   -2.9321   22.5269 N.ar    1  UNL1       -0.2409
     18 S           5.8913   -2.2758   19.0245 S.O2    1  UNL1        0.0619
     19 O           7.2013   -1.5454   19.0479 O.2     1  UNL1       -0.1529
     20 O           4.5813   -3.0061   19.0011 O.2     1  UNL1       -0.1529
     21 N           5.6914   -1.8715   17.5939 N.3     1  UNL1       -0.1723
     22 H           5.0514   -2.5509   17.1826 H       1  UNL1        0.1491
     23 C           5.1480   -0.5120   17.2677 C.3     1  UNL1        0.1701
     24 C           6.0560    0.5454   16.7132 C.3     1  UNL1        0.0278
     25 C           3.6966   -0.2098   17.4958 C.3     1  UNL1        0.4118
     26 F           2.2451    0.0923   17.7239 F       1  UNL1       -0.1685
     27 F           3.3364   -1.0337   16.2951 F       1  UNL1       -0.1685
     28 F           4.0568    0.6139   18.6964 F       1  UNL1       -0.1685
     29 C           5.6405   -1.7437   25.9396 C.ar    1  UNL1        0.2369
     30 N           4.1783   -1.6272   25.6261 N.ar    1  UNL1       -0.2095
     31 C           3.5190   -0.2800   25.6130 C.ar    1  UNL1        0.1037
     32 C           4.3220    0.9508   25.9134 C.ar    1  UNL1        0.0415
     33 C           5.7842    0.8344   26.2269 C.ar    1  UNL1        0.1037
     34 N           6.4435   -0.5129   26.2400 N.ar    1  UNL1       -0.2095
     35 C           7.8519   -6.2680   24.3519 C.1     1  UNL1        0.1020
     36 N           8.3876   -7.3655   23.4808 N.1     1  UNL1       -0.1908
@<TRIPOS>BOND
     1     1     2    1
     2     2     3   ar
     3     3     4   ar
     4     4     5   ar
     5     5     6   ar
     6     6     7   ar
     7     7     8    1
     8     5     9   ar
     9     9    35    1
    10    35    36    3
    11     9    10   ar
    12    10    12    1
    13    12    13   ar
    14    13    14   ar
    15    14    15   ar
    16    15    18    1
    17    18    19    2
    18    18    20    2
    19    18    21    1
    20    21    23    1
    21    23    24    1
    22    23    25    1
    23    25    26    1
    24    25    27    1
    25    25    28    1
    26    15    16   ar
    27    16    17   ar
    28    10    11   ar
    29    11    29    1
    30    29    30   ar
    31    30    31   ar
    32    31    32   ar
    33    32    33   ar
    34    33    34   ar
    35     7     2   ar
    36    17    12   ar
    37    34    29   ar
    38    11     4   ar
    39    21    22    1
@<TRIPOS>MOLECULE
*****
 36 39 0 0 0
SMALL
GASTEIGER

@<TRIPOS>ATOM
      1 C          -0.9493    5.9469   32.8971 C.3     1  UNL1        0.0334
      2 C           0.0955    4.9797   33.3692 C.ar    1  UNL1        0.0071
      3 C           0.6007    3.9114   32.4454 C.ar    1  UNL1        0.0156
      4 C           1.6455    2.9441   32.9175 C.ar    1  UNL1        0.0673
      5 C           2.1851    3.0452   34.3134 C.ar    1  UNL1        0.0295
      6 C           1.6799    4.1135   35.2372 C.ar    1  UNL1        0.0315
      7 C           0.6352    5.0807   34.7651 C.ar    1  UNL1        0.1363
      8 F           0.1300    6.1491   35.6890 F       1  UNL1       -0.2045
      9 C           3.2029    1.9587   34.4966 C.ar    1  UNL1        0.0875
     10 C           3.2923    1.1861   33.2140 C.ar    1  UNL1        0.0939
     11 N           2.3298    1.7951   32.2380 N.ar    1  UNL1       -0.2745
     12 C           4.1872    0.0108   32.9532 C.ar    1  UNL1        0.0982
     13 C           5.5690    0.2261   32.4106 C.ar    1  UNL1        0.0220
     14 C           6.4638   -0.9492   32.1499 C.ar    1  UNL1        0.0231
     15 C           5.9768   -2.3397   32.4316 C.ar    1  UNL1        0.1410
     16 C           4.5951   -2.5549   32.9742 C.ar    1  UNL1        0.1187
     17 N           3.7003   -1.3797   33.2349 N.ar    1  UNL1       -0.2409
     18 S           6.8717   -3.5150   32.1708 S.O2    1  UNL1        0.0619
     19 O           5.8616   -4.4248   32.8047 O.2     1  UNL1       -0.1529
     20 O           7.8819   -2.6051   31.5370 O.2     1  UNL1       -0.1529
     21 N           7.7666   -4.6901   31.9100 N.3     1  UNL1       -0.1723
     22 H           7.5776   -5.3728   32.6439 H       1  UNL1        0.1491
     23 C           7.6805   -5.4232   30.6042 C.3     1  UNL1        0.1701
     24 C           6.6702   -5.0080   29.5762 C.3     1  UNL1        0.0278
     25 C           8.6047   -6.5715   30.3263 C.3     1  UNL1        0.4118
     26 F           9.5290   -7.7198   30.0484 F       1  UNL1       -0.1685
     27 F           8.5102   -6.2916   28.8556 F       1  UNL1       -0.1685
     28 F           8.6992   -6.8513   31.7969 F       1  UNL1       -0.1685
     29 C           2.0931    1.3358   30.8298 C.ar    1  UNL1        0.2369
     30 N           0.7759    0.7262   30.4512 N.ar    1  UNL1       -0.2095
     31 C           0.5391    0.2669   29.0430 C.ar    1  UNL1        0.1037
     32 C           1.6195    0.4173   28.0135 C.ar    1  UNL1        0.0415
     33 C           2.9367    1.0269   28.3921 C.ar    1  UNL1        0.1037
     34 N           3.1735    1.4862   29.8002 N.ar    1  UNL1       -0.2095
     35 C           3.9926    1.6917   35.7436 C.1     1  UNL1        0.1020
     36 N           4.7824    1.4247   36.9907 N.1     1  UNL1       -0.1908
@<TRIPOS>BOND
     1     1     2    1
     2     2     3   ar
     3     3     4   ar
     4     4     5   ar
     5     5     6   ar
     6     6     7   ar
     7     7     8    1
     8     5     9   ar
     9     9    35    1
    10    35    36    3
    11     9    10   ar
    12    10    12    1
    13    12    13   ar
    14    13    14   ar
    15    14    15   ar
    16    15    18    1
    17    18    19    2
    18    18    20    2
    19    18    21    1
    20    21    23    1
    21    23    24    1
    22    23    25    1
    23    25    26    1
    24    25    27    1
    25    25    28    1
    26    15    16   ar
    27    16    17   ar
    28    10    11   ar
    29    11    29    1
    30    29    30   ar
    31    30    31   ar
    32    31    32   ar
    33    32    33   ar
    34    33    34   ar
    35     7     2   ar
    36    17    12   ar
    37    34    29   ar
    38    11     4   ar
    39    21    22    1
@<TRIPOS>MOLECULE
*****
 36 39 0 0 0
SMALL
GASTEIGER

@<TRIPOS>ATOM
      1 C           1.2846   -0.1395   19.2656 C.3     1  UNL1        0.0334
      2 C           2.0871   -0.5649   20.4594 C.ar    1  UNL1        0.0071
      3 C           1.8767    0.1084   21.7831 C.ar    1  UNL1        0.0156
      4 C           2.6792   -0.3170   22.9769 C.ar    1  UNL1        0.0673
      5 C           3.6921   -1.4157   22.8469 C.ar    1  UNL1        0.0295
      6 C           3.9025   -2.0889   21.5231 C.ar    1  UNL1        0.0315
      7 C           3.1000   -1.6635   20.3293 C.ar    1  UNL1        0.1363
      8 F           3.3105   -2.3368   19.0055 F       1  UNL1       -0.2045
      9 C           4.3301   -1.6190   24.1891 C.ar    1  UNL1        0.0875
     10 C           3.7116   -0.6461   25.1486 C.ar    1  UNL1        0.0939
     11 N           2.6912    0.1586   24.3995 N.ar    1  UNL1       -0.2745
     12 C           4.0534   -0.5030   26.6022 C.ar    1  UNL1        0.0982
     13 C           5.3522    0.1277   27.0086 C.ar    1  UNL1        0.0220
     14 C           5.6940    0.2707   28.4621 C.ar    1  UNL1        0.0231
     15 C           4.7370   -0.2169   29.5092 C.ar    1  UNL1        0.1410
     16 C           3.4381   -0.8476   29.1027 C.ar    1  UNL1        0.1187
     17 N           3.0964   -0.9907   27.6492 N.ar    1  UNL1       -0.2409
     18 S           5.0788   -0.0738   30.9627 S.O2    1  UNL1        0.0619
     19 O           3.6209   -0.1302   31.3111 O.2     1  UNL1       -0.1529
     20 O           6.5366   -0.0174   30.6143 O.2     1  UNL1       -0.1529
     21 N           5.4207    0.0693   32.4162 N.3     1  UNL1       -0.1723
     22 H           4.8652    0.8462   32.7742 H       1  UNL1        0.1491
     23 C           5.2089   -1.0826   33.3534 C.3     1  UNL1        0.1701
     24 C           4.6036   -0.8478   34.7056 C.3     1  UNL1        0.0278
     25 C           5.6023   -2.4693   32.9384 C.3     1  UNL1        0.4118
     26 F           5.9958   -3.8560   32.5234 F       1  UNL1       -0.1685
     27 F           7.0481   -2.0720   32.9818 F       1  UNL1       -0.1685
     28 F           4.1566   -2.8665   32.8951 F       1  UNL1       -0.1685
     29 C           1.8334    1.2477   24.9723 C.ar    1  UNL1        0.2369
     30 N           2.4662    2.5001   25.5024 N.ar    1  UNL1       -0.2095
     31 C           1.6085    3.5893   26.0753 C.ar    1  UNL1        0.1037
     32 C           0.1180    3.4259   26.1179 C.ar    1  UNL1        0.0415
     33 C          -0.5147    2.1735   25.5877 C.ar    1  UNL1        0.1037
     34 N           0.3430    1.0844   25.0149 N.ar    1  UNL1       -0.2095
     35 C           5.3991   -2.6197   24.5145 C.1     1  UNL1        0.1020
     36 N           6.4682   -3.6204   24.8399 N.1     1  UNL1       -0.1908
@<TRIPOS>BOND
     1     1     2    1
     2     2     3   ar
     3     3     4   ar
     4     4     5   ar
     5     5     6   ar
     6     6     7   ar
     7     7     8    1
     8     5     9   ar
     9     9    35    1
    10    35    36    3
    11     9    10   ar
    12    10    12    1
    13    12    13   ar
    14    13    14   ar
    15    14    15   ar
    16    15    18    1
    17    18    19    2
    18    18    20    2
    19    18    21    1
    20    21    23    1
    21    23    24    1
    22    23    25    1
    23    25    26    1
    24    25    27    1
    25    25    28    1
    26    15    16   ar
    27    16    17   ar
    28    10    11   ar
    29    11    29    1
    30    29    30   ar
    31    30    31   ar
    32    31    32   ar
    33    32    33   ar
    34    33    34   ar
    35     7     2   ar
    36    17    12   ar
    37    34    29   ar
    38    11     4   ar
    39    21    22    1
@<TRIPOS>MOLECULE
*****
 36 39 0 0 0
SMALL
GASTEIGER

@<TRIPOS>ATOM
      1 C           1.5246    4.6839   35.2443 C.3     1  UNL1        0.0334
      2 C           1.8155    3.6279   34.2195 C.ar    1  UNL1        0.0071
      3 C           2.9997    2.7232   34.3902 C.ar    1  UNL1        0.0156
      4 C           3.2907    1.6672   33.3654 C.ar    1  UNL1        0.0673
      5 C           2.3974    1.5158   32.1699 C.ar    1  UNL1        0.0295
      6 C           1.2132    2.4205   31.9993 C.ar    1  UNL1        0.0315
      7 C           0.9223    3.4765   33.0240 C.ar    1  UNL1        0.1363
      8 F          -0.2620    4.3812   32.8533 F       1  UNL1       -0.2045
      9 C           2.9314    0.3925   31.3316 C.ar    1  UNL1        0.0875
     10 C           4.1547   -0.1505   32.0089 C.ar    1  UNL1        0.0939
     11 N           4.3768    0.6373   33.2659 N.ar    1  UNL1       -0.2745
     12 C           5.0064   -1.2826   31.5158 C.ar    1  UNL1        0.0982
     13 C           5.3614   -2.4110   32.4380 C.ar    1  UNL1        0.0220
     14 C           6.2131   -3.5430   31.9448 C.ar    1  UNL1        0.0231
     15 C           6.7097   -3.5465   30.5294 C.ar    1  UNL1        0.1410
     16 C           6.3547   -2.4181   29.6072 C.ar    1  UNL1        0.1187
     17 N           5.5031   -1.2861   30.1004 N.ar    1  UNL1       -0.2409
     18 S           7.5615   -4.6786   30.0363 S.O2    1  UNL1        0.0619
     19 O           8.5094   -3.6952   29.4161 O.2     1  UNL1       -0.1529
     20 O           6.6135   -5.6618   30.6564 O.2     1  UNL1       -0.1529
     21 N           8.4131   -5.8106   29.5432 N.3     1  UNL1       -0.1723
     22 H           8.4930   -6.4757   30.3124 H       1  UNL1        0.1491
     23 C           7.9930   -6.5942   28.3351 C.3     1  UNL1        0.1701
     24 C           7.0494   -5.9882   27.3389 C.3     1  UNL1        0.0278
     25 C           8.5165   -7.9837   28.1231 C.3     1  UNL1        0.4118
     26 F           9.0401   -9.3734   27.9112 F       1  UNL1       -0.1685
     27 F           9.2492   -7.9070   29.4298 F       1  UNL1       -0.1685
     28 F           7.7838   -8.0605   26.8165 F       1  UNL1       -0.1685
     29 C           5.4895    0.4314   34.2505 C.ar    1  UNL1        0.2369
     30 N           5.1772    0.0349   35.6630 N.ar    1  UNL1       -0.2095
     31 C           6.2899   -0.1710   36.6477 C.ar    1  UNL1        0.1037
     32 C           7.7148    0.0197   36.2197 C.ar    1  UNL1        0.0415
     33 C           8.0271    0.4162   34.8072 C.ar    1  UNL1        0.1037
     34 N           6.9145    0.6221   33.8226 N.ar    1  UNL1       -0.2095
     35 C           2.3450   -0.1012   30.0422 C.1     1  UNL1        0.1020
     36 N           1.7586   -0.5950   28.7529 N.1     1  UNL1       -0.1908
@<TRIPOS>BOND
     1     1     2    1
     2     2     3   ar
     3     3     4   ar
     4     4     5   ar
     5     5     6   ar
     6     6     7   ar
     7     7     8    1
     8     5     9   ar
     9     9    35    1
    10    35    36    3
    11     9    10   ar
    12    10    12    1
    13    12    13   ar
    14    13    14   ar
    15    14    15   ar
    16    15    18    1
    17    18    19    2
    18    18    20    2
    19    18    21    1
    20    21    23    1
    21    23    24    1
    22    23    25    1
    23    25    26    1
    24    25    27    1
    25    25    28    1
    26    15    16   ar
    27    16    17   ar
    28    10    11   ar
    29    11    29    1
    30    29    30   ar
    31    30    31   ar
    32    31    32   ar
    33    32    33   ar
    34    33    34   ar
    35     7     2   ar
    36    17    12   ar
    37    34    29   ar
    38    11     4   ar
    39    21    22    1
@<TRIPOS>MOLECULE
*****
 36 39 0 0 0
SMALL
GASTEIGER

@<TRIPOS>ATOM
      1 C           4.7791    1.9738   38.5306 C.3     1  UNL1        0.0334
      2 C           3.9549    2.3337   37.3301 C.ar    1  UNL1        0.0071
      3 C           4.1043    1.5549   36.0569 C.ar    1  UNL1        0.0156
      4 C           3.2800    1.9148   34.8565 C.ar    1  UNL1        0.0673
      5 C           2.3064    3.0535   34.9292 C.ar    1  UNL1        0.0295
      6 C           2.1570    3.8323   36.2024 C.ar    1  UNL1        0.0315
      7 C           2.9812    3.4724   37.4028 C.ar    1  UNL1        0.1363
      8 F           2.8318    4.2514   38.6761 F       1  UNL1       -0.2045
      9 C           1.6351    3.1753   33.5934 C.ar    1  UNL1        0.0875
     10 C           2.1937    2.1119   32.6951 C.ar    1  UNL1        0.0939
     11 N           3.2104    1.3328   33.4757 N.ar    1  UNL1       -0.2745
     12 C           1.8041    1.8700   31.2668 C.ar    1  UNL1        0.0982
     13 C           2.7465    2.2385   30.1596 C.ar    1  UNL1        0.0220
     14 C           2.3569    1.9966   28.7315 C.ar    1  UNL1        0.0231
     15 C           1.0248    1.3862   28.4106 C.ar    1  UNL1        0.1410
     16 C           0.0824    1.0177   29.5178 C.ar    1  UNL1        0.1187
     17 N           0.4720    1.2596   30.9459 N.ar    1  UNL1       -0.2409
     18 S           0.6352    1.1443   26.9823 S.O2    1  UNL1        0.0619
     19 O          -0.7454    0.7587   27.4243 O.2     1  UNL1       -0.1529
     20 O           2.0157    1.5300   26.5404 O.2     1  UNL1       -0.1529
     21 N           0.2456    0.9025   25.5542 N.3     1  UNL1       -0.1723
     22 H          -0.6572    0.4281   25.5715 H       1  UNL1        0.1491
     23 C           0.1093    2.0583   24.6079 C.3     1  UNL1        0.1701
     24 C           0.6722    1.9625   23.2208 C.3     1  UNL1        0.0278
     25 C          -0.5899    3.3100   25.0486 C.3     1  UNL1        0.4118
     26 F          -1.2891    4.5618   25.4894 F       1  UNL1       -0.1685
     27 F          -1.9007    2.5807   25.0404 F       1  UNL1       -0.1685
     28 F           0.7209    4.0393   25.0569 F       1  UNL1       -0.1685
     29 C           4.0160    0.1750   32.9652 C.ar    1  UNL1        0.2369
     30 N           3.6649   -1.2234   33.3789 N.ar    1  UNL1       -0.2095
     31 C           4.4704   -2.3812   32.8685 C.ar    1  UNL1        0.1037
     32 C           5.6271   -2.1406   31.9443 C.ar    1  UNL1        0.0415
     33 C           5.9782   -0.7422   31.5306 C.ar    1  UNL1        0.1037
     34 N           5.1727    0.4157   32.0410 N.ar    1  UNL1       -0.2095
     35 C           0.5887    4.1836   33.2212 C.1     1  UNL1        0.1020
     36 N          -0.4577    5.1919   32.8490 N.1     1  UNL1       -0.1908
@<TRIPOS>BOND
     1     1     2    1
     2     2     3   ar
     3     3     4   ar
     4     4     5   ar
     5     5     6   ar
     6     6     7   ar
     7     7     8    1
     8     5     9   ar
     9     9    35    1
    10    35    36    3
    11     9    10   ar
    12    10    12    1
    13    12    13   ar
    14    13    14   ar
    15    14    15   ar
    16    15    18    1
    17    18    19    2
    18    18    20    2
    19    18    21    1
    20    21    23    1
    21    23    24    1
    22    23    25    1
    23    25    26    1
    24    25    27    1
    25    25    28    1
    26    15    16   ar
    27    16    17   ar
    28    10    11   ar
    29    11    29    1
    30    29    30   ar
    31    30    31   ar
    32    31    32   ar
    33    32    33   ar
    34    33    34   ar
    35     7     2   ar
    36    17    12   ar
    37    34    29   ar
    38    11     4   ar
    39    21    22    1
@<TRIPOS>MOLECULE
*****
 36 39 0 0 0
SMALL
GASTEIGER

@<TRIPOS>ATOM
      1 C          -5.8429    5.3387   25.0172 C.3     1  UNL1        0.0334
      2 C          -4.5276    4.6177   25.0036 C.ar    1  UNL1        0.0071
      3 C          -3.7789    4.4476   23.7150 C.ar    1  UNL1        0.0156
      4 C          -2.4637    3.7266   23.7013 C.ar    1  UNL1        0.0673
      5 C          -1.8971    3.1757   24.9762 C.ar    1  UNL1        0.0295
      6 C          -2.6457    3.3458   26.2648 C.ar    1  UNL1        0.0315
      7 C          -3.9610    4.0668   26.2785 C.ar    1  UNL1        0.1363
      8 F          -4.7097    4.2370   27.5672 F       1  UNL1       -0.2045
      9 C          -0.5887    2.5161   24.6551 C.ar    1  UNL1        0.0875
     10 C          -0.3466    2.6594   23.1817 C.ar    1  UNL1        0.0939
     11 N          -1.5054    3.4075   22.5922 N.ar    1  UNL1       -0.2745
     12 C           0.8450    2.1449   22.4298 C.ar    1  UNL1        0.0982
     13 C           0.7298    0.8979   21.6042 C.ar    1  UNL1        0.0220
     14 C           1.9214    0.3834   20.8524 C.ar    1  UNL1        0.0231
     15 C           3.2283    1.1159   20.9262 C.ar    1  UNL1        0.1410
     16 C           3.3436    2.3629   21.7519 C.ar    1  UNL1        0.1187
     17 N           2.1519    2.8774   22.5037 N.ar    1  UNL1       -0.2409
     18 S           4.4200    0.6014   20.1743 S.O2    1  UNL1        0.0619
     19 O           4.3235   -0.7009   20.9125 O.2     1  UNL1       -0.1529
     20 O           4.5165    1.9036   19.4362 O.2     1  UNL1       -0.1529
     21 N           5.6116    0.0869   19.4225 N.3     1  UNL1       -0.1723
     22 H           6.2842   -0.2325   20.1196 H       1  UNL1        0.1491
     23 C           5.4499   -1.0293   18.4336 C.3     1  UNL1        0.1701
     24 C           6.4030   -2.1875   18.4474 C.3     1  UNL1        0.0278
     25 C           4.3350   -0.9874   17.4310 C.3     1  UNL1        0.4118
     26 F           3.2200   -0.9456   16.4284 F       1  UNL1       -0.1685
     27 F           3.6174   -2.0684   18.1839 F       1  UNL1       -0.1685
     28 F           5.0526    0.0935   16.6782 F       1  UNL1       -0.1685
     29 C          -1.6761    3.7724   21.1473 C.ar    1  UNL1        0.2369
     30 N          -0.5897    4.5158   20.4282 N.ar    1  UNL1       -0.2095
     31 C          -0.7603    4.8808   18.9833 C.ar    1  UNL1        0.1037
     32 C          -2.0173    4.5023   18.2576 C.ar    1  UNL1        0.0415
     33 C          -3.1037    3.7589   18.9767 C.ar    1  UNL1        0.1037
     34 N          -2.9331    3.3939   20.4216 N.ar    1  UNL1       -0.2095
     35 C           0.3184    1.8332   25.6353 C.1     1  UNL1        0.1020
     36 N           1.2255    1.1503   26.6156 N.1     1  UNL1       -0.1908
@<TRIPOS>BOND
     1     1     2    1
     2     2     3   ar
     3     3     4   ar
     4     4     5   ar
     5     5     6   ar
     6     6     7   ar
     7     7     8    1
     8     5     9   ar
     9     9    35    1
    10    35    36    3
    11     9    10   ar
    12    10    12    1
    13    12    13   ar
    14    13    14   ar
    15    14    15   ar
    16    15    18    1
    17    18    19    2
    18    18    20    2
    19    18    21    1
    20    21    23    1
    21    23    24    1
    22    23    25    1
    23    25    26    1
    24    25    27    1
    25    25    28    1
    26    15    16   ar
    27    16    17   ar
    28    10    11   ar
    29    11    29    1
    30    29    30   ar
    31    30    31   ar
    32    31    32   ar
    33    32    33   ar
    34    33    34   ar
    35     7     2   ar
    36    17    12   ar
    37    34    29   ar
    38    11     4   ar
    39    21    22    1
@<TRIPOS>MOLECULE
*****
 36 39 0 0 0
SMALL
GASTEIGER

@<TRIPOS>ATOM
      1 C          -7.4712    5.7749   24.9450 C.3     1  UNL1        0.0334
      2 C          -6.0767    5.2430   24.7951 C.ar    1  UNL1        0.0071
      3 C          -5.5180    4.9775   23.4286 C.ar    1  UNL1        0.0156
      4 C          -4.1235    4.4456   23.2788 C.ar    1  UNL1        0.0673
      5 C          -3.2876    4.1793   24.4954 C.ar    1  UNL1        0.0295
      6 C          -3.8463    4.4448   25.8619 C.ar    1  UNL1        0.0315
      7 C          -5.2408    4.9767   26.0118 C.ar    1  UNL1        0.1363
      8 F          -5.7994    5.2422   27.3784 F       1  UNL1       -0.2045
      9 C          -1.9569    3.6592   24.0387 C.ar    1  UNL1        0.0875
     10 C          -1.9703    3.6041   22.5398 C.ar    1  UNL1        0.0939
     11 N          -3.3094    4.0901   22.0701 N.ar    1  UNL1       -0.2745
     12 C          -0.8426    3.1437   21.6643 C.ar    1  UNL1        0.0982
     13 C           0.4058    3.9678   21.5540 C.ar    1  UNL1        0.0220
     14 C           1.5334    3.5074   20.6785 C.ar    1  UNL1        0.0231
     15 C           1.4126    2.2229   19.9134 C.ar    1  UNL1        0.1410
     16 C           0.1642    1.3988   20.0237 C.ar    1  UNL1        0.1187
     17 N          -0.9634    1.8592   20.8992 N.ar    1  UNL1       -0.2409
     18 S           2.5403    1.7625   19.0379 S.O2    1  UNL1        0.0619
     19 O           1.5751    0.9597   18.2169 O.2     1  UNL1       -0.1529
     20 O           3.5054    2.5653   19.8589 O.2     1  UNL1       -0.1529
     21 N           3.6680    1.3022   18.1625 N.3     1  UNL1       -0.1723
     22 H           4.5105    1.7695   18.4975 H       1  UNL1        0.1491
     23 C           3.9931   -0.1589   18.0644 C.3     1  UNL1        0.1701
     24 C           3.9339   -0.8529   16.7360 C.3     1  UNL1        0.0278
     25 C           4.3773   -0.9259   19.2948 C.3     1  UNL1        0.4118
     26 F           4.7617   -1.6930   20.5253 F       1  UNL1       -0.1685
     27 F           5.5081    0.0295   19.5372 F       1  UNL1       -0.1685
     28 F           3.2466   -1.8812   19.0524 F       1  UNL1       -0.1685
     29 C          -3.7559    4.2012   20.6424 C.ar    1  UNL1        0.2369
     30 N          -4.8861    3.3514   20.1418 N.ar    1  UNL1       -0.2095
     31 C          -5.3327    3.4624   18.7142 C.ar    1  UNL1        0.1037
     32 C          -4.6491    4.4232   17.7871 C.ar    1  UNL1        0.0415
     33 C          -3.5189    5.2730   18.2877 C.ar    1  UNL1        0.1037
     34 N          -3.0723    5.1620   19.7153 N.ar    1  UNL1       -0.2095
     35 C          -0.8135    3.2636   24.9254 C.1     1  UNL1        0.1020
     36 N           0.3300    2.8681   25.8121 N.1     1  UNL1       -0.1908
@<TRIPOS>BOND
     1     1     2    1
     2     2     3   ar
     3     3     4   ar
     4     4     5   ar
     5     5     6   ar
     6     6     7   ar
     7     7     8    1
     8     5     9   ar
     9     9    35    1
    10    35    36    3
    11     9    10   ar
    12    10    12    1
    13    12    13   ar
    14    13    14   ar
    15    14    15   ar
    16    15    18    1
    17    18    19    2
    18    18    20    2
    19    18    21    1
    20    21    23    1
    21    23    24    1
    22    23    25    1
    23    25    26    1
    24    25    27    1
    25    25    28    1
    26    15    16   ar
    27    16    17   ar
    28    10    11   ar
    29    11    29    1
    30    29    30   ar
    31    30    31   ar
    32    31    32   ar
    33    32    33   ar
    34    33    34   ar
    35     7     2   ar
    36    17    12   ar
    37    34    29   ar
    38    11     4   ar
    39    21    22    1
@<TRIPOS>MOLECULE
*****
 36 39 0 0 0
SMALL
GASTEIGER

@<TRIPOS>ATOM
      1 C           6.8481    4.0833   42.9646 C.3     1  UNL1        0.0334
      2 C           6.9805    3.5969   41.5519 C.ar    1  UNL1        0.0071
      3 C           5.7706    3.1135   40.8086 C.ar    1  UNL1        0.0156
      4 C           5.9030    2.6270   39.3959 C.ar    1  UNL1        0.0673
      5 C           7.2453    2.6239   38.7264 C.ar    1  UNL1        0.0295
      6 C           8.4552    3.1072   39.4697 C.ar    1  UNL1        0.0315
      7 C           8.3228    3.5937   40.8825 C.ar    1  UNL1        0.1363
      8 F           9.5328    4.0771   41.6257 F       1  UNL1       -0.2045
      9 C           7.0685    2.0904   37.3357 C.ar    1  UNL1        0.0875
     10 C           5.6168    1.7638   37.1457 C.ar    1  UNL1        0.0939
     11 N           4.8965    2.0955   38.4189 N.ar    1  UNL1       -0.2745
     12 C           4.9947    1.2038   35.9008 C.ar    1  UNL1        0.0982
     13 C           5.0533   -0.2705   35.6310 C.ar    1  UNL1        0.0220
     14 C           4.4313   -0.8304   34.3862 C.ar    1  UNL1        0.0231
     15 C           3.7506    0.0841   33.4113 C.ar    1  UNL1        0.1410
     16 C           3.6920    1.5584   33.6811 C.ar    1  UNL1        0.1187
     17 N           4.3141    2.1183   34.9259 N.ar    1  UNL1       -0.2409
     18 S           3.1285   -0.4759   32.1664 S.O2    1  UNL1        0.0619
     19 O           3.8463   -1.7736   32.3915 O.2     1  UNL1       -0.1529
     20 O           2.4107    0.8219   31.9415 O.2     1  UNL1       -0.1529
     21 N           2.5064   -1.0357   30.9217 N.3     1  UNL1       -0.1723
     22 H           1.5037   -0.8612   30.9894 H       1  UNL1        0.1491
     23 C           2.9427   -0.5375   29.5758 C.3     1  UNL1        0.1701
     24 C           4.3994   -0.5202   29.2185 C.3     1  UNL1        0.0278
     25 C           1.9222   -0.0565   28.5872 C.3     1  UNL1        0.4118
     26 F           0.9017    0.4244   27.5986 F       1  UNL1       -0.1685
     27 F           0.8235   -0.4550   29.5275 F       1  UNL1       -0.1685
     28 F           3.0209    0.3419   27.6470 F       1  UNL1       -0.1685
     29 C           3.4277    1.9254   38.6709 C.ar    1  UNL1        0.2369
     30 N           2.9152    0.6613   39.2950 N.ar    1  UNL1       -0.2095
     31 C           1.4464    0.4912   39.5471 C.ar    1  UNL1        0.1037
     32 C           0.4900    1.5852   39.1751 C.ar    1  UNL1        0.0415
     33 C           1.0025    2.8493   38.5510 C.ar    1  UNL1        0.1037
     34 N           2.4713    3.0194   38.2989 N.ar    1  UNL1       -0.2095
     35 C           8.1528    1.9144   36.3144 C.1     1  UNL1        0.1020
     36 N           9.2373    1.7384   35.2930 N.1     1  UNL1       -0.1908
@<TRIPOS>BOND
     1     1     2    1
     2     2     3   ar
     3     3     4   ar
     4     4     5   ar
     5     5     6   ar
     6     6     7   ar
     7     7     8    1
     8     5     9   ar
     9     9    35    1
    10    35    36    3
    11     9    10   ar
    12    10    12    1
    13    12    13   ar
    14    13    14   ar
    15    14    15   ar
    16    15    18    1
    17    18    19    2
    18    18    20    2
    19    18    21    1
    20    21    23    1
    21    23    24    1
    22    23    25    1
    23    25    26    1
    24    25    27    1
    25    25    28    1
    26    15    16   ar
    27    16    17   ar
    28    10    11   ar
    29    11    29    1
    30    29    30   ar
    31    30    31   ar
    32    31    32   ar
    33    32    33   ar
    34    33    34   ar
    35     7     2   ar
    36    17    12   ar
    37    34    29   ar
    38    11     4   ar
    39    21    22    1
@<TRIPOS>MOLECULE
*****
 36 39 0 0 0
SMALL
GASTEIGER

@<TRIPOS>ATOM
      1 C          -2.3094    3.9348   19.3802 C.3     1  UNL1        0.0334
      2 C          -2.4611    3.8844   20.8717 C.ar    1  UNL1        0.0071
      3 C          -1.3363    3.3749   21.7232 C.ar    1  UNL1        0.0156
      4 C          -1.4880    3.3245   23.2146 C.ar    1  UNL1        0.0673
      5 C          -2.7645    3.7837   23.8546 C.ar    1  UNL1        0.0295
      6 C          -3.8893    4.2932   23.0031 C.ar    1  UNL1        0.0315
      7 C          -3.7377    4.3436   21.5117 C.ar    1  UNL1        0.1363
      8 F          -4.8626    4.8532   20.6602 F       1  UNL1       -0.2045
      9 C          -2.6246    3.6181   25.3388 C.ar    1  UNL1        0.0875
     10 C          -1.2616    3.0566   25.6162 C.ar    1  UNL1        0.0939
     11 N          -0.5591    2.8751   24.3034 N.ar    1  UNL1       -0.2745
     12 C          -0.6997    2.7333   26.9689 C.ar    1  UNL1        0.0982
     13 C          -0.9455    1.3860   27.5807 C.ar    1  UNL1        0.0220
     14 C          -0.3837    1.0627   28.9334 C.ar    1  UNL1        0.0231
     15 C           0.4240    2.0868   29.6743 C.ar    1  UNL1        0.1410
     16 C           0.6698    3.4341   29.0626 C.ar    1  UNL1        0.1187
     17 N           0.1079    3.7574   27.7099 N.ar    1  UNL1       -0.2409
     18 S           0.9858    1.7635   31.0271 S.O2    1  UNL1        0.0619
     19 O           0.6149    3.1348   31.5089 O.2     1  UNL1       -0.1529
     20 O           1.3567    0.3923   30.5453 O.2     1  UNL1       -0.1529
     21 N           1.5477    1.4402   32.3797 N.3     1  UNL1       -0.1723
     22 H           1.1498    0.5429   32.6570 H       1  UNL1        0.1491
     23 C           3.0318    1.3329   32.5694 C.3     1  UNL1        0.1701
     24 C           3.9484    2.2931   31.8710 C.3     1  UNL1        0.0278
     25 C           3.5992    0.2655   33.4573 C.3     1  UNL1        0.4118
     26 F           4.1666   -0.8020   34.3454 F       1  UNL1       -0.1685
     27 F           3.6387    1.2368   34.5997 F       1  UNL1       -0.1685
     28 F           3.5596   -0.7058   32.3150 F       1  UNL1       -0.1685
     29 C           0.8286    2.3385   24.1127 C.ar    1  UNL1        0.2369
     30 N           1.0366    1.0294   23.4106 N.ar    1  UNL1       -0.2095
     31 C           2.4242    0.4927   23.2198 C.ar    1  UNL1        0.1037
     32 C           3.6039    1.2652   23.7313 C.ar    1  UNL1        0.0415
     33 C           3.3959    2.5743   24.4334 C.ar    1  UNL1        0.1037
     34 N           2.0083    3.1110   24.6241 N.ar    1  UNL1       -0.2095
     35 C          -3.6650    3.9549   26.3655 C.1     1  UNL1        0.1020
     36 N          -4.7055    4.2918   27.3922 N.1     1  UNL1       -0.1908
@<TRIPOS>BOND
     1     1     2    1
     2     2     3   ar
     3     3     4   ar
     4     4     5   ar
     5     5     6   ar
     6     6     7   ar
     7     7     8    1
     8     5     9   ar
     9     9    35    1
    10    35    36    3
    11     9    10   ar
    12    10    12    1
    13    12    13   ar
    14    13    14   ar
    15    14    15   ar
    16    15    18    1
    17    18    19    2
    18    18    20    2
    19    18    21    1
    20    21    23    1
    21    23    24    1
    22    23    25    1
    23    25    26    1
    24    25    27    1
    25    25    28    1
    26    15    16   ar
    27    16    17   ar
    28    10    11   ar
    29    11    29    1
    30    29    30   ar
    31    30    31   ar
    32    31    32   ar
    33    32    33   ar
    34    33    34   ar
    35     7     2   ar
    36    17    12   ar
    37    34    29   ar
    38    11     4   ar
    39    21    22    1
