@<TRIPOS>MOLECULE
*****
 26 28 0 0 0
SMALL
GASTEIGER

@<TRIPOS>ATOM
      1 N          -7.6564  -17.6570   22.1534 N.ar    1  UNL1       -0.2626
      2 C          -8.8264  -18.3415   21.5110 C.ar    1  UNL1        0.2038
      3 N          -8.6481  -19.6831   20.8644 N.ar    1  UNL1       -0.2109
      4 C          -7.2996  -20.3403   20.8600 C.ar    1  UNL1        0.1362
      5 C          -6.1297  -19.6558   21.5023 C.ar    1  UNL1        0.2150
      6 F          -4.7812  -20.3129   21.4979 F       1  UNL1       -0.1975
      7 C          -6.3080  -18.3141   22.1490 C.ar    1  UNL1        0.2923
      8 O          -5.1380  -17.6297   22.7913 O.2     1  UNL1       -0.2644
      9 N         -10.1748  -17.6843   21.5154 N.pl3   1  UNL1       -0.2781
     10 C         -11.0554  -17.7872   22.7254 C.3     1  UNL1        0.0937
     11 C         -12.4037  -17.1300   22.7298 C.3     1  UNL1        0.0229
     12 C         -12.8715  -16.3699   21.5241 C.3     1  UNL1        0.0190
     13 C         -11.9910  -16.2670   20.3142 C.3     1  UNL1        0.0710
     14 N         -12.4587  -15.5070   19.1086 N.3     1  UNL1       -0.3208
     15 C         -10.6426  -16.9242   20.3098 C.3     1  UNL1        0.1089
     16 H         -11.7397  -15.5399   18.3859 H       1  UNL1        0.1189
     17 H         -12.6372  -14.5364   19.3667 H       1  UNL1        0.1189
     18 C          -7.8347  -16.3154   22.8000 C.3     1  UNL1        0.1392
     19 C          -6.3990  -15.5144   24.8118 C.ar    1  UNL1        0.0663
     20 C          -6.2060  -15.3636   26.2917 C.ar    1  UNL1        0.0100
     21 C          -7.2559  -15.8627   27.2396 C.ar    1  UNL1        0.0007
     22 C          -8.4987  -16.5127   26.7077 C.ar    1  UNL1       -0.0002
     23 C          -8.6916  -16.6636   25.2279 C.ar    1  UNL1       -0.0017
     24 C          -7.6418  -16.1645   24.2799 C.ar    1  UNL1        0.0102
     25 N          -4.2992  -14.5161   22.9159 N.1     1  UNL1       -0.1908
     26 C          -5.3491  -15.0153   23.8638 C.1     1  UNL1        0.1002
@<TRIPOS>BOND
     1    25    26    3
     2    26    19    1
     3    19    20   ar
     4    20    21   ar
     5    21    22   ar
     6    22    23   ar
     7    23    24   ar
     8    24    18    1
     9    18     1    1
    10     1     2   ar
    11     2     9    1
    12     9    10    1
    13    10    11    1
    14    11    12    1
    15    12    13    1
    16    13    14    1
    17    13    15    1
    18     2     3   ar
    19     3     4   ar
    20     4     5   ar
    21     5     6    1
    22     5     7   ar
    23     7     8    2
    24    24    19   ar
    25     7     1   ar
    26    15     9    1
    27    14    16    1
    28    14    17    1
@<TRIPOS>MOLECULE
*****
 26 28 0 0 0
SMALL
GASTEIGER

@<TRIPOS>ATOM
      1 N          -5.9674  -17.5843   22.6779 N.ar    1  UNL1       -0.2626
      2 C          -6.4889  -18.9507   22.3443 C.ar    1  UNL1        0.2038
      3 N          -5.5324  -20.0605   22.0225 N.ar    1  UNL1       -0.2109
      4 C          -4.0545  -19.8040   22.0345 C.ar    1  UNL1        0.1362
      5 C          -3.5331  -18.4377   22.3682 C.ar    1  UNL1        0.2150
      6 F          -2.0552  -18.1812   22.3802 F       1  UNL1       -0.1975
      7 C          -4.4895  -17.3279   22.6899 C.ar    1  UNL1        0.2923
      8 O          -3.9681  -15.9616   23.0236 O.2     1  UNL1       -0.2644
      9 N          -7.9667  -19.2071   22.3323 N.pl3   1  UNL1       -0.2781
     10 C          -8.7333  -19.1164   21.0461 C.3     1  UNL1        0.0937
     11 C         -10.2111  -19.3729   21.0342 C.3     1  UNL1        0.0229
     12 C         -10.9224  -19.7200   22.3084 C.3     1  UNL1        0.0190
     13 C         -10.1559  -19.8107   23.5945 C.3     1  UNL1        0.0710
     14 N         -10.8672  -20.1578   24.8687 N.3     1  UNL1       -0.3208
     15 C          -8.6780  -19.5542   23.6065 C.3     1  UNL1        0.1089
     16 H         -10.1976  -20.1751   25.6380 H       1  UNL1        0.1189
     17 H         -11.3023  -21.0756   24.7760 H       1  UNL1        0.1189
     18 C          -6.9238  -16.4745   22.9997 C.3     1  UNL1        0.1392
     19 C          -8.5842  -15.9263   24.9212 C.ar    1  UNL1        0.0663
     20 C          -8.8379  -15.5453   26.3497 C.ar    1  UNL1        0.0100
     21 C          -7.6849  -15.3316   27.2850 C.ar    1  UNL1        0.0007
     22 C          -6.2782  -15.4988   26.7919 C.ar    1  UNL1       -0.0002
     23 C          -6.0245  -15.8797   25.3635 C.ar    1  UNL1       -0.0017
     24 C          -7.1775  -16.0935   24.4281 C.ar    1  UNL1        0.0102
     25 N         -10.8903  -16.3538   23.0505 N.1     1  UNL1       -0.1908
     26 C          -9.7372  -16.1400   23.9859 C.1     1  UNL1        0.1002
@<TRIPOS>BOND
     1    25    26    3
     2    26    19    1
     3    19    20   ar
     4    20    21   ar
     5    21    22   ar
     6    22    23   ar
     7    23    24   ar
     8    24    18    1
     9    18     1    1
    10     1     2   ar
    11     2     9    1
    12     9    10    1
    13    10    11    1
    14    11    12    1
    15    12    13    1
    16    13    14    1
    17    13    15    1
    18     2     3   ar
    19     3     4   ar
    20     4     5   ar
    21     5     6    1
    22     5     7   ar
    23     7     8    2
    24    24    19   ar
    25     7     1   ar
    26    15     9    1
    27    14    16    1
    28    14    17    1
@<TRIPOS>MOLECULE
*****
 26 28 0 0 0
SMALL
GASTEIGER

@<TRIPOS>ATOM
      1 N          -8.9627  -17.2843   22.2915 N.ar    1  UNL1       -0.2626
      2 C          -8.4127  -18.5012   21.6082 C.ar    1  UNL1        0.2038
      3 N          -9.3452  -19.5518   21.0823 N.ar    1  UNL1       -0.2109
      4 C         -10.8276  -19.3856   21.2396 C.ar    1  UNL1        0.1362
      5 C         -11.3776  -18.1687   21.9228 C.ar    1  UNL1        0.2150
      6 F         -12.8601  -18.0025   22.0802 F       1  UNL1       -0.1975
      7 C         -10.4451  -17.1181   22.4488 C.ar    1  UNL1        0.2923
      8 O         -10.9951  -15.9012   23.1320 O.2     1  UNL1       -0.2644
      9 N          -6.9303  -18.6674   21.4510 N.pl3   1  UNL1       -0.2781
     10 C          -6.3541  -19.0330   20.1152 C.3     1  UNL1        0.0937
     11 C          -4.8717  -19.1992   19.9579 C.3     1  UNL1        0.0229
     12 C          -3.9653  -18.9998   21.1364 C.3     1  UNL1        0.0190
     13 C          -4.5415  -18.6342   22.4722 C.3     1  UNL1        0.0710
     14 N          -3.6353  -18.4347   23.6507 N.3     1  UNL1       -0.3208
     15 C          -6.0240  -18.4680   22.6295 C.3     1  UNL1        0.1089
     16 H          -4.1919  -18.1927   24.4705 H       1  UNL1        0.1189
     17 H          -2.9786  -17.6803   23.4508 H       1  UNL1        0.1189
     18 C          -8.0302  -16.2336   22.8174 C.3     1  UNL1        0.1392
     19 C          -6.4678  -15.5763   24.7864 C.ar    1  UNL1        0.0663
     20 C          -6.2082  -15.4738   26.2603 C.ar    1  UNL1        0.0100
     21 C          -7.2513  -15.9259   27.2388 C.ar    1  UNL1        0.0007
     22 C          -8.5540  -16.4806   26.7436 C.ar    1  UNL1       -0.0002
     23 C          -8.8136  -16.5832   25.2698 C.ar    1  UNL1       -0.0017
     24 C          -7.7705  -16.1311   24.2912 C.ar    1  UNL1        0.0102
     25 N          -4.3816  -14.6721   22.8293 N.1     1  UNL1       -0.1908
     26 C          -5.4248  -15.1242   23.8079 C.1     1  UNL1        0.1002
@<TRIPOS>BOND
     1    25    26    3
     2    26    19    1
     3    19    20   ar
     4    20    21   ar
     5    21    22   ar
     6    22    23   ar
     7    23    24   ar
     8    24    18    1
     9    18     1    1
    10     1     2   ar
    11     2     9    1
    12     9    10    1
    13    10    11    1
    14    11    12    1
    15    12    13    1
    16    13    14    1
    17    13    15    1
    18     2     3   ar
    19     3     4   ar
    20     4     5   ar
    21     5     6    1
    22     5     7   ar
    23     7     8    2
    24    24    19   ar
    25     7     1   ar
    26    15     9    1
    27    14    16    1
    28    14    17    1
@<TRIPOS>MOLECULE
*****
 26 28 0 0 0
SMALL
GASTEIGER

@<TRIPOS>ATOM
      1 N          -7.9229  -17.8523   21.7179 N.ar    1  UNL1       -0.2626
      2 C          -6.6823  -17.9317   22.5574 C.ar    1  UNL1        0.2038
      3 N          -5.6660  -19.0030   22.2943 N.ar    1  UNL1       -0.2109
      4 C          -5.8903  -19.9950   21.1916 C.ar    1  UNL1        0.1362
      5 C          -7.1308  -19.9155   20.3522 C.ar    1  UNL1        0.2150
      6 F          -7.3551  -20.9075   19.2495 F       1  UNL1       -0.1975
      7 C          -8.1471  -18.8442   20.6153 C.ar    1  UNL1        0.2923
      8 O          -9.3877  -18.7648   19.7758 O.2     1  UNL1       -0.2644
      9 N          -6.4581  -16.9398   23.6601 N.pl3   1  UNL1       -0.2781
     10 C          -5.1030  -16.3261   23.8528 C.3     1  UNL1        0.0937
     11 C          -4.8788  -15.3342   24.9554 C.3     1  UNL1        0.0229
     12 C          -6.0097  -14.9559   25.8653 C.3     1  UNL1        0.0190
     13 C          -7.3648  -15.5696   25.6726 C.3     1  UNL1        0.0710
     14 N          -8.4957  -15.1913   26.5825 N.3     1  UNL1       -0.3208
     15 C          -7.5890  -16.5615   24.5699 C.3     1  UNL1        0.1089
     16 H          -9.3366  -15.6999   26.3093 H       1  UNL1        0.1189
     17 H          -8.6673  -14.1882   26.5128 H       1  UNL1        0.1189
     18 C          -8.9392  -16.7809   21.9811 C.3     1  UNL1        0.1392
     19 C         -11.4880  -16.7316   21.4798 C.ar    1  UNL1        0.0663
     20 C         -12.8925  -17.1051   21.8513 C.ar    1  UNL1        0.0100
     21 C         -13.1526  -17.9014   23.0955 C.ar    1  UNL1        0.0007
     22 C         -12.0083  -18.3242   23.9683 C.ar    1  UNL1       -0.0002
     23 C         -10.6039  -17.9507   23.5969 C.ar    1  UNL1       -0.0017
     24 C         -10.3437  -17.1544   22.3526 C.ar    1  UNL1        0.0102
     25 N         -10.9677  -15.1389   18.9912 N.1     1  UNL1       -0.1908
     26 C         -11.2279  -15.9353   20.2355 C.1     1  UNL1        0.1002
@<TRIPOS>BOND
     1    25    26    3
     2    26    19    1
     3    19    20   ar
     4    20    21   ar
     5    21    22   ar
     6    22    23   ar
     7    23    24   ar
     8    24    18    1
     9    18     1    1
    10     1     2   ar
    11     2     9    1
    12     9    10    1
    13    10    11    1
    14    11    12    1
    15    12    13    1
    16    13    14    1
    17    13    15    1
    18     2     3   ar
    19     3     4   ar
    20     4     5   ar
    21     5     6    1
    22     5     7   ar
    23     7     8    2
    24    24    19   ar
    25     7     1   ar
    26    15     9    1
    27    14    16    1
    28    14    17    1
@<TRIPOS>MOLECULE
*****
 26 28 0 0 0
SMALL
GASTEIGER

@<TRIPOS>ATOM
      1 N          -6.9086  -16.8693   23.3694 N.ar    1  UNL1       -0.2626
      2 C          -5.5864  -17.5654   23.2378 C.ar    1  UNL1        0.2038
      3 N          -4.4668  -17.2329   24.1791 N.ar    1  UNL1       -0.2109
      4 C          -4.6694  -16.2042   25.2519 C.ar    1  UNL1        0.1362
      5 C          -5.9916  -15.5081   25.3835 C.ar    1  UNL1        0.2150
      6 F          -6.1942  -14.4795   26.4563 F       1  UNL1       -0.1975
      7 C          -7.1112  -15.8407   24.4422 C.ar    1  UNL1        0.2923
      8 O          -8.4334  -15.1445   24.5738 O.2     1  UNL1       -0.2644
      9 N          -5.3838  -18.5940   22.1651 N.pl3   1  UNL1       -0.2781
     10 C          -6.3241  -19.7574   22.0543 C.3     1  UNL1        0.0937
     11 C          -6.1215  -20.7860   20.9815 C.3     1  UNL1        0.0229
     12 C          -4.9786  -20.6512   20.0194 C.3     1  UNL1        0.0190
     13 C          -4.0383  -19.4878   20.1301 C.3     1  UNL1        0.0710
     14 N          -2.8954  -19.3529   19.1681 N.3     1  UNL1       -0.3208
     15 C          -4.2409  -18.4591   21.2030 C.3     1  UNL1        0.1089
     16 H          -2.3633  -18.5110   19.3881 H       1  UNL1        0.1189
     17 H          -3.2577  -19.2873   18.2168 H       1  UNL1        0.1189
     18 C          -8.0282  -17.2018   22.4282 C.3     1  UNL1        0.1392
     19 C         -10.6237  -17.1382   22.3318 C.ar    1  UNL1        0.0663
     20 C         -11.9546  -17.5701   22.8723 C.ar    1  UNL1        0.0100
     21 C         -12.0210  -18.4973   24.0495 C.ar    1  UNL1        0.0007
     22 C         -10.7565  -18.9926   24.6863 C.ar    1  UNL1       -0.0002
     23 C          -9.4255  -18.5608   24.1459 C.ar    1  UNL1       -0.0017
     24 C          -9.3591  -17.6336   22.9686 C.ar    1  UNL1        0.0102
     25 N         -10.4909  -15.2839   19.9772 N.1     1  UNL1       -0.1908
     26 C         -10.5573  -16.2111   21.1545 C.1     1  UNL1        0.1002
@<TRIPOS>BOND
     1    25    26    3
     2    26    19    1
     3    19    20   ar
     4    20    21   ar
     5    21    22   ar
     6    22    23   ar
     7    23    24   ar
     8    24    18    1
     9    18     1    1
    10     1     2   ar
    11     2     9    1
    12     9    10    1
    13    10    11    1
    14    11    12    1
    15    12    13    1
    16    13    14    1
    17    13    15    1
    18     2     3   ar
    19     3     4   ar
    20     4     5   ar
    21     5     6    1
    22     5     7   ar
    23     7     8    2
    24    24    19   ar
    25     7     1   ar
    26    15     9    1
    27    14    16    1
    28    14    17    1
@<TRIPOS>MOLECULE
*****
 26 28 0 0 0
SMALL
GASTEIGER

@<TRIPOS>ATOM
      1 N          -6.0575  -18.6053   21.6567 N.ar    1  UNL1       -0.2626
      2 C          -5.0039  -18.1554   22.6251 C.ar    1  UNL1        0.2038
      3 N          -3.6306  -18.7564   22.5719 N.ar    1  UNL1       -0.2109
      4 C          -3.3109  -19.8073   21.5504 C.ar    1  UNL1        0.1362
      5 C          -4.3644  -20.2572   20.5821 C.ar    1  UNL1        0.2150
      6 F          -4.0447  -21.3081   19.5606 F       1  UNL1       -0.1975
      7 C          -5.7377  -19.6562   20.6353 C.ar    1  UNL1        0.2923
      8 O          -6.7913  -20.1061   19.6669 O.2     1  UNL1       -0.2644
      9 N          -5.3237  -17.1045   23.6465 N.pl3   1  UNL1       -0.2781
     10 C          -4.5571  -17.0530   24.9348 C.3     1  UNL1        0.0937
     11 C          -4.8769  -16.0021   25.9563 C.3     1  UNL1        0.0229
     12 C          -5.9632  -15.0027   25.6894 C.3     1  UNL1        0.0190
     13 C          -6.7298  -15.0542   24.4011 C.3     1  UNL1        0.0710
     14 N          -7.8161  -14.0549   24.1342 N.3     1  UNL1       -0.3208
     15 C          -6.4100  -16.1052   23.3796 C.3     1  UNL1        0.1089
     16 H          -8.2277  -14.2365   23.2187 H       1  UNL1        0.1189
     17 H          -7.4235  -13.1136   24.1498 H       1  UNL1        0.1189
     18 C          -7.4308  -18.0043   21.7098 C.3     1  UNL1        0.1392
     19 C          -9.9427  -18.2071   22.3417 C.ar    1  UNL1        0.0663
     20 C         -11.0482  -18.9246   23.0580 C.ar    1  UNL1        0.0100
     21 C         -10.7473  -20.1568   23.8587 C.ar    1  UNL1        0.0007
     22 C          -9.3409  -20.6715   23.9431 C.ar    1  UNL1       -0.0002
     23 C          -8.2354  -19.9540   23.2269 C.ar    1  UNL1       -0.0017
     24 C          -8.5363  -18.7218   22.4261 C.ar    1  UNL1        0.0102
     25 N         -10.5446  -15.7427   20.7402 N.1     1  UNL1       -0.1908
     26 C         -10.2436  -16.9749   21.5410 C.1     1  UNL1        0.1002
@<TRIPOS>BOND
     1    25    26    3
     2    26    19    1
     3    19    20   ar
     4    20    21   ar
     5    21    22   ar
     6    22    23   ar
     7    23    24   ar
     8    24    18    1
     9    18     1    1
    10     1     2   ar
    11     2     9    1
    12     9    10    1
    13    10    11    1
    14    11    12    1
    15    12    13    1
    16    13    14    1
    17    13    15    1
    18     2     3   ar
    19     3     4   ar
    20     4     5   ar
    21     5     6    1
    22     5     7   ar
    23     7     8    2
    24    24    19   ar
    25     7     1   ar
    26    15     9    1
    27    14    16    1
    28    14    17    1
@<TRIPOS>MOLECULE
*****
 26 28 0 0 0
SMALL
GASTEIGER

@<TRIPOS>ATOM
      1 N          -7.4940  -17.5965   22.9184 N.ar    1  UNL1       -0.2626
      2 C          -6.0023  -17.6236   22.7621 C.ar    1  UNL1        0.2038
      3 N          -5.1538  -16.6229   23.4891 N.ar    1  UNL1       -0.2109
      4 C          -5.7969  -15.5949   24.3722 C.ar    1  UNL1        0.1362
      5 C          -7.2884  -15.5678   24.5284 C.ar    1  UNL1        0.2150
      6 F          -7.9315  -14.5398   25.4115 F       1  UNL1       -0.1975
      7 C          -8.1370  -16.5686   23.8014 C.ar    1  UNL1        0.2923
      8 O          -9.6287  -16.5414   23.9577 O.2     1  UNL1       -0.2644
      9 N          -5.3593  -18.6515   21.8791 N.pl3   1  UNL1       -0.2781
     10 C          -6.1901  -19.4197   20.8944 C.3     1  UNL1        0.0937
     11 C          -5.5471  -20.4476   20.0113 C.3     1  UNL1        0.0229
     12 C          -4.0732  -20.7074   20.1129 C.3     1  UNL1        0.0190
     13 C          -3.2424  -19.9392   21.0975 C.3     1  UNL1        0.0710
     14 N          -1.7686  -20.1989   21.1992 N.3     1  UNL1       -0.3208
     15 C          -3.8855  -18.9112   21.9807 C.3     1  UNL1        0.1089
     16 H          -1.3650  -19.5929   21.9135 H       1  UNL1        0.1189
     17 H          -1.3266  -20.0059   20.3004 H       1  UNL1        0.1189
     18 C          -8.3425  -18.5972   22.1914 C.3     1  UNL1        0.1392
     19 C         -10.8215  -18.9452   22.8868 C.ar    1  UNL1        0.0663
     20 C         -12.2813  -18.6752   22.6714 C.ar    1  UNL1        0.0100
     21 C         -12.7217  -17.7874   21.5455 C.ar    1  UNL1        0.0007
     22 C         -11.7024  -17.1695   20.6348 C.ar    1  UNL1       -0.0002
     23 C         -10.2427  -17.4395   20.8501 C.ar    1  UNL1       -0.0017
     24 C          -9.8022  -18.3273   21.9761 C.ar    1  UNL1        0.0102
     25 N          -9.9407  -20.7208   25.1388 N.1     1  UNL1       -0.1908
     26 C         -10.3811  -19.8330   24.0127 C.1     1  UNL1        0.1002
@<TRIPOS>BOND
     1    25    26    3
     2    26    19    1
     3    19    20   ar
     4    20    21   ar
     5    21    22   ar
     6    22    23   ar
     7    23    24   ar
     8    24    18    1
     9    18     1    1
    10     1     2   ar
    11     2     9    1
    12     9    10    1
    13    10    11    1
    14    11    12    1
    15    12    13    1
    16    13    14    1
    17    13    15    1
    18     2     3   ar
    19     3     4   ar
    20     4     5   ar
    21     5     6    1
    22     5     7   ar
    23     7     8    2
    24    24    19   ar
    25     7     1   ar
    26    15     9    1
    27    14    16    1
    28    14    17    1
@<TRIPOS>MOLECULE
*****
 26 28 0 0 0
SMALL
GASTEIGER

@<TRIPOS>ATOM
      1 N         -14.3003   -6.8625   18.0060 N.ar    1  UNL1       -0.2626
      2 C         -15.2171   -6.3220   19.0631 C.ar    1  UNL1        0.2038
      3 N         -16.2068   -7.2287   19.7326 N.ar    1  UNL1       -0.2109
      4 C         -16.2798   -8.6760   19.3450 C.ar    1  UNL1        0.1362
      5 C         -15.3630   -9.2164   18.2879 C.ar    1  UNL1        0.2150
      6 F         -15.4360  -10.6637   17.9002 F       1  UNL1       -0.1975
      7 C         -14.3733   -8.3097   17.6184 C.ar    1  UNL1        0.2923
      8 O         -13.4565   -8.8502   16.5612 O.2     1  UNL1       -0.2644
      9 N         -15.1441   -4.8748   19.4507 N.pl3   1  UNL1       -0.2781
     10 C         -14.1902   -4.4320   20.5203 C.3     1  UNL1        0.0937
     11 C         -14.1172   -2.9848   20.9079 C.3     1  UNL1        0.0229
     12 C         -14.9981   -1.9803   20.2259 C.3     1  UNL1        0.0190
     13 C         -15.9520   -2.4231   19.1563 C.3     1  UNL1        0.0710
     14 N         -16.8329   -1.4187   18.4743 N.3     1  UNL1       -0.3208
     15 C         -16.0250   -3.8704   18.7687 C.3     1  UNL1        0.1089
     16 H         -17.4127   -1.8907   17.7804 H       1  UNL1        0.1189
     17 H         -16.2543   -0.7166   18.0132 H       1  UNL1        0.1189
     18 C         -13.3106   -5.9557   17.3365 C.3     1  UNL1        0.1392
     19 C         -11.4148   -4.3466   18.0891 C.ar    1  UNL1        0.0663
     20 C         -10.0633   -4.1281   18.7023 C.ar    1  UNL1        0.0100
     21 C          -9.2564   -5.3004   19.1762 C.ar    1  UNL1        0.0007
     22 C          -9.8009   -6.6912   19.0368 C.ar    1  UNL1       -0.0002
     23 C         -11.1522   -6.9096   18.4236 C.ar    1  UNL1       -0.0017
     24 C         -11.9592   -5.7373   17.9497 C.ar    1  UNL1        0.0102
     25 N         -13.0286   -2.0019   17.1413 N.1     1  UNL1       -0.1908
     26 C         -12.2217   -3.1743   17.6152 C.1     1  UNL1        0.1002
@<TRIPOS>BOND
     1    25    26    3
     2    26    19    1
     3    19    20   ar
     4    20    21   ar
     5    21    22   ar
     6    22    23   ar
     7    23    24   ar
     8    24    18    1
     9    18     1    1
    10     1     2   ar
    11     2     9    1
    12     9    10    1
    13    10    11    1
    14    11    12    1
    15    12    13    1
    16    13    14    1
    17    13    15    1
    18     2     3   ar
    19     3     4   ar
    20     4     5   ar
    21     5     6    1
    22     5     7   ar
    23     7     8    2
    24    24    19   ar
    25     7     1   ar
    26    15     9    1
    27    14    16    1
    28    14    17    1
@<TRIPOS>MOLECULE
*****
 26 28 0 0 0
SMALL
GASTEIGER

@<TRIPOS>ATOM
      1 N          -8.7620  -18.1529   22.4020 N.ar    1  UNL1       -0.2626
      2 C          -9.2964  -17.0042   23.2052 C.ar    1  UNL1        0.2038
      3 N         -10.4385  -16.1873   22.6776 N.ar    1  UNL1       -0.2109
      4 C         -11.0461  -16.5190   21.3469 C.ar    1  UNL1        0.1362
      5 C         -10.5117  -17.6676   20.5438 C.ar    1  UNL1        0.2150
      6 F         -11.1193  -17.9993   19.2130 F       1  UNL1       -0.1975
      7 C          -9.3697  -18.4845   21.0713 C.ar    1  UNL1        0.2923
      8 O          -8.8352  -19.6332   20.2681 O.2     1  UNL1       -0.2644
      9 N          -8.6888  -16.6726   24.5359 N.pl3   1  UNL1       -0.2781
     10 C          -9.2202  -17.3134   25.7837 C.3     1  UNL1        0.0937
     11 C          -8.6126  -16.9818   27.1143 C.3     1  UNL1        0.0229
     12 C          -7.4735  -16.0092   27.1973 C.3     1  UNL1        0.0190
     13 C          -6.9421  -15.3684   25.9495 C.3     1  UNL1        0.0710
     14 N          -5.8031  -14.3959   26.0324 N.3     1  UNL1       -0.3208
     15 C          -7.5498  -15.7001   24.6187 C.3     1  UNL1        0.1089
     16 H          -5.5732  -14.0610   25.0967 H       1  UNL1        0.1189
     17 H          -4.9895  -14.8590   26.4373 H       1  UNL1        0.1189
     18 C          -7.6200  -18.9698   22.9295 C.3     1  UNL1        0.1392
     19 C          -5.2386  -18.7652   21.9113 C.ar    1  UNL1        0.0663
     20 C          -4.1787  -19.2654   20.9749 C.ar    1  UNL1        0.0100
     21 C          -4.4405  -20.4702   20.1207 C.ar    1  UNL1        0.0007
     22 C          -5.7621  -21.1750   20.2027 C.ar    1  UNL1       -0.0002
     23 C          -6.8219  -20.6748   21.1389 C.ar    1  UNL1       -0.0017
     24 C          -6.5602  -19.4699   21.9933 C.ar    1  UNL1        0.0102
     25 N          -4.7150  -16.3555   23.6198 N.1     1  UNL1       -0.1908
     26 C          -4.9768  -17.5604   22.7655 C.1     1  UNL1        0.1002
@<TRIPOS>BOND
     1    25    26    3
     2    26    19    1
     3    19    20   ar
     4    20    21   ar
     5    21    22   ar
     6    22    23   ar
     7    23    24   ar
     8    24    18    1
     9    18     1    1
    10     1     2   ar
    11     2     9    1
    12     9    10    1
    13    10    11    1
    14    11    12    1
    15    12    13    1
    16    13    14    1
    17    13    15    1
    18     2     3   ar
    19     3     4   ar
    20     4     5   ar
    21     5     6    1
    22     5     7   ar
    23     7     8    2
    24    24    19   ar
    25     7     1   ar
    26    15     9    1
    27    14    16    1
    28    14    17    1
