@<TRIPOS>MOLECULE
*****
 25 28 0 0 0
SMALL
GASTEIGER

@<TRIPOS>ATOM
      1 C          -8.0909  -17.8730   21.7767 C.3     1  UNL1        0.1140
      2 C          -9.5880  -17.7841   21.7444 C.ar    1  UNL1        0.0273
      3 C         -10.6142  -18.4469   20.8740 C.ar    1  UNL1        0.1379
      4 F         -10.1831  -19.3986   19.7978 F       1  UNL1       -0.2044
      5 C         -12.0717  -18.1578   21.0799 C.ar    1  UNL1        0.0294
      6 C         -12.5028  -17.2061   22.1560 C.ar    1  UNL1        0.0023
      7 C         -11.4766  -16.5433   23.0264 C.ar    1  UNL1        0.0014
      8 C         -10.0191  -16.8323   22.8206 C.ar    1  UNL1        0.0173
      9 C          -8.7886  -16.3330   23.5181 C.ar    1  UNL1        0.0804
     10 C          -8.2946  -15.4362   24.6143 C.ar    1  UNL1        0.1178
     11 N          -6.7976  -15.5251   24.6466 N.ar    1  UNL1       -0.2223
     12 C          -6.3664  -16.4769   23.5703 C.ar    1  UNL1        0.1788
     13 N          -7.5969  -16.9762   22.8729 N.ar    1  UNL1       -0.3068
     14 C          -7.2377  -18.7115   20.8717 C.3     1  UNL1        0.0565
     15 C          -6.1745  -19.5967   21.4512 C.3     1  UNL1        0.1127
     16 O          -6.5547  -20.7359   22.3500 O.3     1  UNL1       -0.3844
     17 H          -5.7542  -21.2037   22.6353 H       1  UNL1        0.2103
     18 O          -0.4006  -18.5811   20.1741 O.3     1  UNL1       -0.3845
     19 C          -1.8441  -18.8350   20.4934 C.3     1  UNL1        0.1105
     20 C          -2.8598  -18.8783   19.3905 C.3     1  UNL1        0.0293
     21 C          -4.3032  -19.1322   19.7098 C.3     1  UNL1        0.0049
     22 C          -4.7310  -19.3428   21.1319 C.3     1  UNL1        0.0272
     23 C          -3.7153  -19.2995   22.2349 C.3     1  UNL1        0.0049
     24 C          -2.2718  -19.0456   21.9157 C.3     1  UNL1        0.0293
     25 H          -0.2964  -18.4675   19.2165 H       1  UNL1        0.2103
@<TRIPOS>BOND
     1    18    19    1
     2    19    20    1
     3    20    21    1
     4    21    22    1
     5    22    15    1
     6    15    16    1
     7    15    14    1
     8    14     1    1
     9     1     2    1
    10     2     3   ar
    11     3     4    1
    12     3     5   ar
    13     5     6   ar
    14     6     7   ar
    15     7     8   ar
    16     8     9    1
    17     9    10   ar
    18    10    11   ar
    19    11    12   ar
    20    12    13   ar
    21    22    23    1
    22    23    24    1
    23    24    19    1
    24    13     1    1
    25     8     2   ar
    26    13     9   ar
    27    18    25    1
    28    16    17    1
@<TRIPOS>MOLECULE
*****
 25 28 0 0 0
SMALL
GASTEIGER

@<TRIPOS>ATOM
      1 C          -7.6427  -18.6127   22.5194 C.3     1  UNL1        0.1140
      2 C          -7.3341  -17.3472   23.2635 C.ar    1  UNL1        0.0273
      3 C          -6.0388  -16.6634   23.5868 C.ar    1  UNL1        0.1379
      4 F          -4.7407  -17.2629   23.1336 F       1  UNL1       -0.2044
      5 C          -6.0417  -15.3800   24.3634 C.ar    1  UNL1        0.0294
      6 C          -7.3399  -14.7806   24.8165 C.ar    1  UNL1        0.0023
      7 C          -8.6352  -15.4644   24.4932 C.ar    1  UNL1        0.0014
      8 C          -8.6324  -16.7477   23.7166 C.ar    1  UNL1        0.0173
      9 C          -9.7432  -17.6427   23.2528 C.ar    1  UNL1        0.0804
     10 C         -11.2320  -17.8252   23.2462 C.ar    1  UNL1        0.1178
     11 N         -11.5405  -19.0906   22.5022 N.ar    1  UNL1       -0.2223
     12 C         -10.2424  -19.6901   22.0490 C.ar    1  UNL1        0.1788
     13 N          -9.1315  -18.7952   22.5129 N.ar    1  UNL1       -0.3068
     14 C          -6.6387  -19.5338   21.8922 C.3     1  UNL1        0.0565
     15 C          -6.0404  -19.1952   20.5590 C.3     1  UNL1        0.1127
     16 O          -6.9316  -18.9476   19.3781 O.3     1  UNL1       -0.3844
     17 H          -6.3888  -18.7430   18.6007 H       1  UNL1        0.2103
     18 O          -0.0825  -18.8314   19.9496 O.3     1  UNL1       -0.3845
     19 C          -1.5720  -18.9224   20.1020 C.3     1  UNL1        0.1105
     20 C          -2.1631  -19.6296   21.2854 C.3     1  UNL1        0.0293
     21 C          -3.6525  -19.7205   21.4377 C.3     1  UNL1        0.0049
     22 C          -4.5509  -19.1043   20.4067 C.3     1  UNL1        0.0272
     23 C          -3.9599  -18.3970   19.2232 C.3     1  UNL1        0.0049
     24 C          -2.4704  -18.3061   19.0709 C.3     1  UNL1        0.0293
     25 H           0.3467  -19.2777   20.6963 H       1  UNL1        0.2103
@<TRIPOS>BOND
     1    18    19    1
     2    19    20    1
     3    20    21    1
     4    21    22    1
     5    22    15    1
     6    15    16    1
     7    15    14    1
     8    14     1    1
     9     1     2    1
    10     2     3   ar
    11     3     4    1
    12     3     5   ar
    13     5     6   ar
    14     6     7   ar
    15     7     8   ar
    16     8     9    1
    17     9    10   ar
    18    10    11   ar
    19    11    12   ar
    20    12    13   ar
    21    22    23    1
    22    23    24    1
    23    24    19    1
    24    13     1    1
    25     8     2   ar
    26    13     9   ar
    27    18    25    1
    28    16    17    1
@<TRIPOS>MOLECULE
*****
 25 28 0 0 0
SMALL
GASTEIGER

@<TRIPOS>ATOM
      1 C          -7.3510  -18.3799   21.7252 C.3     1  UNL1        0.1140
      2 C          -5.9493  -18.8909   21.5695 C.ar    1  UNL1        0.0273
      3 C          -4.6858  -18.6016   22.3244 C.ar    1  UNL1        0.1379
      4 F          -4.7022  -17.6360   23.4720 F       1  UNL1       -0.2044
      5 C          -3.4059  -19.2781   21.9316 C.ar    1  UNL1        0.0294
      6 C          -3.3895  -20.2438   20.7840 C.ar    1  UNL1        0.0023
      7 C          -4.6530  -20.5331   20.0290 C.ar    1  UNL1        0.0014
      8 C          -5.9329  -19.8567   20.4218 C.ar    1  UNL1        0.0173
      9 C          -7.3244  -19.9425   19.8683 C.ar    1  UNL1        0.0804
     10 C          -8.1742  -20.5924   18.8169 C.ar    1  UNL1        0.1178
     11 N          -9.5758  -20.0814   18.9727 N.ar    1  UNL1       -0.2223
     12 C          -9.5923  -19.1157   20.1203 C.ar    1  UNL1        0.1788
     13 N          -8.2008  -19.0298   20.6739 N.ar    1  UNL1       -0.3068
     14 C          -7.8204  -17.3924   22.7521 C.3     1  UNL1        0.0565
     15 C          -9.0092  -16.5229   22.4681 C.3     1  UNL1        0.1127
     16 O          -8.8319  -15.2259   21.7355 O.3     1  UNL1       -0.3844
     17 H          -9.6930  -14.7908   21.6355 H       1  UNL1        0.2103
     18 O         -14.4735  -18.2323   24.2621 O.3     1  UNL1       -0.3845
     19 C         -13.1074  -17.8050   23.8136 C.3     1  UNL1        0.1105
     20 C         -12.9558  -16.6533   22.8646 C.3     1  UNL1        0.0293
     21 C         -11.5897  -16.2260   22.4161 C.3     1  UNL1        0.0049
     22 C         -10.3752  -16.9502   22.9166 C.3     1  UNL1        0.0272
     23 C         -10.5269  -18.1020   23.8656 C.3     1  UNL1        0.0049
     24 C         -11.8930  -18.5293   24.3142 C.3     1  UNL1        0.0293
     25 H         -15.1421  -17.6641   23.8486 H       1  UNL1        0.2103
@<TRIPOS>BOND
     1    18    19    1
     2    19    20    1
     3    20    21    1
     4    21    22    1
     5    22    15    1
     6    15    16    1
     7    15    14    1
     8    14     1    1
     9     1     2    1
    10     2     3   ar
    11     3     4    1
    12     3     5   ar
    13     5     6   ar
    14     6     7   ar
    15     7     8   ar
    16     8     9    1
    17     9    10   ar
    18    10    11   ar
    19    11    12   ar
    20    12    13   ar
    21    22    23    1
    22    23    24    1
    23    24    19    1
    24    13     1    1
    25     8     2   ar
    26    13     9   ar
    27    18    25    1
    28    16    17    1
@<TRIPOS>MOLECULE
*****
 25 28 0 0 0
SMALL
GASTEIGER

@<TRIPOS>ATOM
      1 C          -7.0546  -18.5621   22.2438 C.3     1  UNL1        0.1140
      2 C          -7.9270  -18.9803   21.0974 C.ar    1  UNL1        0.0273
      3 C          -7.7120  -19.9517   19.9748 C.ar    1  UNL1        0.1379
      4 F          -6.4203  -20.7074   19.8740 F       1  UNL1       -0.2044
      5 C          -8.7889  -20.1672   18.9530 C.ar    1  UNL1        0.0294
      6 C         -10.0805  -19.4114   19.0539 C.ar    1  UNL1        0.0023
      7 C         -10.2955  -18.4400   20.1765 C.ar    1  UNL1        0.0014
      8 C          -9.2188  -18.2245   21.1983 C.ar    1  UNL1        0.0173
      9 C          -9.1448  -17.3392   22.4069 C.ar    1  UNL1        0.0804
     10 C          -9.8974  -16.3250   23.2162 C.ar    1  UNL1        0.1178
     11 N          -9.0250  -15.9068   24.3625 N.ar    1  UNL1       -0.2223
     12 C          -7.7332  -16.6626   24.2617 C.ar    1  UNL1        0.1788
     13 N          -7.8072  -17.5479   23.0531 N.ar    1  UNL1       -0.3068
     14 C          -5.6723  -19.0692   22.5306 C.3     1  UNL1        0.0565
     15 C          -4.5291  -18.1052   22.6475 C.3     1  UNL1        0.1127
     16 O          -4.4176  -17.2162   23.8506 O.3     1  UNL1       -0.3844
     17 H          -3.6280  -16.6589   23.7688 H       1  UNL1        0.2103
     18 O          -0.4019  -17.8047   18.3028 O.3     1  UNL1       -0.3845
     19 C          -1.4337  -17.8798   19.3890 C.3     1  UNL1        0.1105
     20 C          -2.5938  -18.8215   19.2576 C.3     1  UNL1        0.0293
     21 C          -3.6256  -18.8966   20.3437 C.3     1  UNL1        0.0049
     22 C          -3.4973  -18.0301   21.5613 C.3     1  UNL1        0.0272
     23 C          -2.3371  -17.0883   21.6928 C.3     1  UNL1        0.0049
     24 C          -1.3053  -17.0132   20.6066 C.3     1  UNL1        0.0293
     25 H          -0.6331  -18.4251   17.5938 H       1  UNL1        0.2103
@<TRIPOS>BOND
     1    18    19    1
     2    19    20    1
     3    20    21    1
     4    21    22    1
     5    22    15    1
     6    15    16    1
     7    15    14    1
     8    14     1    1
     9     1     2    1
    10     2     3   ar
    11     3     4    1
    12     3     5   ar
    13     5     6   ar
    14     6     7   ar
    15     7     8   ar
    16     8     9    1
    17     9    10   ar
    18    10    11   ar
    19    11    12   ar
    20    12    13   ar
    21    22    23    1
    22    23    24    1
    23    24    19    1
    24    13     1    1
    25     8     2   ar
    26    13     9   ar
    27    18    25    1
    28    16    17    1
@<TRIPOS>MOLECULE
*****
 25 28 0 0 0
SMALL
GASTEIGER

@<TRIPOS>ATOM
      1 C          -4.3124  -17.9742   22.3081 C.3     1  UNL1        0.1140
      2 C          -3.1652  -17.7861   21.3601 C.ar    1  UNL1        0.0273
      3 C          -2.0544  -16.7790   21.3159 C.ar    1  UNL1        0.1379
      4 F          -1.9697  -15.7094   22.3641 F       1  UNL1       -0.2044
      5 C          -1.0284  -16.8416   20.2234 C.ar    1  UNL1        0.0294
      6 C          -1.1132  -17.9112   19.1753 C.ar    1  UNL1        0.0023
      7 C          -2.2240  -18.9183   19.2195 C.ar    1  UNL1        0.0014
      8 C          -3.2500  -18.8557   20.3118 C.ar    1  UNL1        0.0173
      9 C          -4.4495  -19.7049   20.6120 C.ar    1  UNL1        0.0804
     10 C          -5.2432  -20.8908   20.1497 C.ar    1  UNL1        0.1178
     11 N          -6.3903  -21.0789   21.0977 N.ar    1  UNL1       -0.2223
     12 C          -6.3056  -20.0093   22.1459 C.ar    1  UNL1        0.1788
     13 N          -5.1061  -19.1601   21.8457 N.ar    1  UNL1       -0.3068
     14 C          -4.6130  -17.1255   23.5078 C.3     1  UNL1        0.0565
     15 C          -5.6345  -16.0310   23.4152 C.3     1  UNL1        0.1127
     16 O          -5.1940  -14.6033   23.2809 O.3     1  UNL1       -0.3844
     17 H          -5.9733  -14.0276   23.2341 H       1  UNL1        0.2103
     18 O         -11.4824  -17.3631   23.5820 O.3     1  UNL1       -0.3845
     19 C         -10.0204  -17.0300   23.5403 C.3     1  UNL1        0.1105
     20 C          -9.2765  -17.0808   22.2388 C.3     1  UNL1        0.0293
     21 C          -7.8145  -16.7478   22.1971 C.3     1  UNL1        0.0049
     22 C          -7.0965  -16.3640   23.4569 C.3     1  UNL1        0.0272
     23 C          -7.8404  -16.3132   24.7585 C.3     1  UNL1        0.0049
     24 C          -9.3024  -16.6462   24.8002 C.3     1  UNL1        0.0293
     25 H         -11.7884  -17.5878   22.6894 H       1  UNL1        0.2103
@<TRIPOS>BOND
     1    18    19    1
     2    19    20    1
     3    20    21    1
     4    21    22    1
     5    22    15    1
     6    15    16    1
     7    15    14    1
     8    14     1    1
     9     1     2    1
    10     2     3   ar
    11     3     4    1
    12     3     5   ar
    13     5     6   ar
    14     6     7   ar
    15     7     8   ar
    16     8     9    1
    17     9    10   ar
    18    10    11   ar
    19    11    12   ar
    20    12    13   ar
    21    22    23    1
    22    23    24    1
    23    24    19    1
    24    13     1    1
    25     8     2   ar
    26    13     9   ar
    27    18    25    1
    28    16    17    1
@<TRIPOS>MOLECULE
*****
 25 28 0 0 0
SMALL
GASTEIGER

@<TRIPOS>ATOM
      1 C         -13.4488   -4.9158   18.1909 C.3     1  UNL1        0.1140
      2 C         -12.1079   -5.5285   18.4682 C.ar    1  UNL1        0.0273
      3 C         -11.6287   -6.9496   18.4403 C.ar    1  UNL1        0.1379
      4 F         -12.5779   -8.0543   18.0816 F       1  UNL1       -0.2044
      5 C         -10.2002   -7.2660   18.7712 C.ar    1  UNL1        0.0294
      6 C          -9.2511   -6.1613   19.1299 C.ar    1  UNL1        0.0023
      7 C          -9.7304   -4.7402   19.1577 C.ar    1  UNL1        0.0014
      8 C         -11.1588   -4.4238   18.8269 C.ar    1  UNL1        0.0173
      9 C         -11.9130   -3.1283   18.7713 C.ar    1  UNL1        0.0804
     10 C         -11.7924   -1.6450   18.9587 C.ar    1  UNL1        0.1178
     11 N         -13.1332   -1.0323   18.6814 N.ar    1  UNL1       -0.2223
     12 C         -14.0824   -2.1370   18.3227 C.ar    1  UNL1        0.1788
     13 N         -13.3282   -3.4325   18.3783 N.ar    1  UNL1       -0.3068
     14 C         -14.6919   -5.6565   17.7957 C.3     1  UNL1        0.0565
     15 C         -15.6618   -6.1084   18.8468 C.3     1  UNL1        0.1127
     16 O         -16.1734   -5.1324   19.8647 O.3     1  UNL1       -0.3844
     17 H         -16.7864   -5.5837   20.4658 H       1  UNL1        0.2103
     18 O         -17.4955  -11.8197   18.9804 O.3     1  UNL1       -0.3845
     19 C         -17.0371  -10.3919   18.9470 C.3     1  UNL1        0.1105
     20 C         -17.7125   -9.3670   19.8091 C.3     1  UNL1        0.0293
     21 C         -17.2541   -7.9391   19.7758 C.3     1  UNL1        0.0049
     22 C         -16.1202   -7.5362   18.8802 C.3     1  UNL1        0.0272
     23 C         -15.4447   -8.5612   18.0181 C.3     1  UNL1        0.0049
     24 C         -15.9032   -9.9890   18.0514 C.3     1  UNL1        0.0293
     25 H         -18.2312  -11.9086   19.6063 H       1  UNL1        0.2103
@<TRIPOS>BOND
     1    18    19    1
     2    19    20    1
     3    20    21    1
     4    21    22    1
     5    22    15    1
     6    15    16    1
     7    15    14    1
     8    14     1    1
     9     1     2    1
    10     2     3   ar
    11     3     4    1
    12     3     5   ar
    13     5     6   ar
    14     6     7   ar
    15     7     8   ar
    16     8     9    1
    17     9    10   ar
    18    10    11   ar
    19    11    12   ar
    20    12    13   ar
    21    22    23    1
    22    23    24    1
    23    24    19    1
    24    13     1    1
    25     8     2   ar
    26    13     9   ar
    27    18    25    1
    28    16    17    1
@<TRIPOS>MOLECULE
*****
 25 28 0 0 0
SMALL
GASTEIGER

@<TRIPOS>ATOM
      1 C          -7.1377  -18.4114   22.4184 C.3     1  UNL1        0.1140
      2 C          -6.6989  -17.2874   23.3096 C.ar    1  UNL1        0.0273
      3 C          -7.4698  -16.3158   24.1532 C.ar    1  UNL1        0.1379
      4 F          -8.9677  -16.3822   24.1944 F       1  UNL1       -0.2044
      5 C          -6.7427  -15.2778   24.9557 C.ar    1  UNL1        0.0294
      6 C          -5.2448  -15.2115   24.9145 C.ar    1  UNL1        0.0023
      7 C          -4.4739  -16.1831   24.0709 C.ar    1  UNL1        0.0014
      8 C          -5.2009  -17.2210   23.2684 C.ar    1  UNL1        0.0173
      9 C          -4.7139  -18.3040   22.3518 C.ar    1  UNL1        0.0804
     10 C          -3.4872  -18.9322   21.7599 C.ar    1  UNL1        0.1178
     11 N          -3.9260  -20.0561   20.8688 N.ar    1  UNL1       -0.2223
     12 C          -5.4240  -20.1225   20.9099 C.ar    1  UNL1        0.1788
     13 N          -5.9110  -19.0396   21.8265 N.ar    1  UNL1       -0.3068
     14 C          -8.5546  -18.8331   22.1638 C.3     1  UNL1        0.0565
     15 C          -9.6200  -17.7974   21.9589 C.3     1  UNL1        0.1127
     16 O          -9.3755  -16.6427   21.0331 O.3     1  UNL1       -0.3844
     17 H         -10.1589  -16.0711   21.0152 H       1  UNL1        0.2103
     18 O         -14.8602  -18.2728   24.8424 O.3     1  UNL1       -0.3845
     19 C         -13.5502  -18.1539   24.1215 C.3     1  UNL1        0.1105
     20 C         -13.4431  -17.2939   22.8973 C.3     1  UNL1        0.0293
     21 C         -12.1330  -17.1750   22.1764 C.3     1  UNL1        0.0049
     22 C         -10.9301  -17.9162   22.6798 C.3     1  UNL1        0.0272
     23 C         -11.0371  -18.7763   23.9041 C.3     1  UNL1        0.0049
     24 C         -12.3472  -18.8952   24.6250 C.3     1  UNL1        0.0293
     25 H         -15.5284  -17.7347   24.3896 H       1  UNL1        0.2103
@<TRIPOS>BOND
     1    18    19    1
     2    19    20    1
     3    20    21    1
     4    21    22    1
     5    22    15    1
     6    15    16    1
     7    15    14    1
     8    14     1    1
     9     1     2    1
    10     2     3   ar
    11     3     4    1
    12     3     5   ar
    13     5     6   ar
    14     6     7   ar
    15     7     8   ar
    16     8     9    1
    17     9    10   ar
    18    10    11   ar
    19    11    12   ar
    20    12    13   ar
    21    22    23    1
    22    23    24    1
    23    24    19    1
    24    13     1    1
    25     8     2   ar
    26    13     9   ar
    27    18    25    1
    28    16    17    1
@<TRIPOS>MOLECULE
*****
 25 28 0 0 0
SMALL
GASTEIGER

@<TRIPOS>ATOM
      1 C         -13.2514   -4.9757   18.1105 C.3     1  UNL1        0.1140
      2 C         -13.1209   -3.4841   18.2017 C.ar    1  UNL1        0.0273
      3 C         -14.0988   -2.3740   17.9537 C.ar    1  UNL1        0.1379
      4 F         -15.5022   -2.6915   17.5301 F       1  UNL1       -0.2044
      5 C         -13.6731   -0.9464   18.1294 C.ar    1  UNL1        0.0294
      6 C         -12.2697   -0.6290   18.5531 C.ar    1  UNL1        0.0023
      7 C         -11.2918   -1.7391   18.8010 C.ar    1  UNL1        0.0014
      8 C         -11.7174   -3.1666   18.6254 C.ar    1  UNL1        0.0173
      9 C         -10.9805   -4.4619   18.7960 C.ar    1  UNL1        0.0804
     10 C          -9.6576   -5.0662   19.1632 C.ar    1  UNL1        0.1178
     11 N          -9.7881   -6.5578   19.0720 N.ar    1  UNL1       -0.2223
     12 C         -11.1916   -6.8753   18.6484 C.ar    1  UNL1        0.1788
     13 N         -11.9285   -5.5800   18.4778 N.ar    1  UNL1       -0.3068
     14 C         -14.4876   -5.7304   17.7205 C.3     1  UNL1        0.0565
     15 C         -15.4510   -6.1880   18.7752 C.3     1  UNL1        0.1127
     16 O         -15.9985   -5.2057   19.7679 O.3     1  UNL1       -0.3844
     17 H         -16.6021   -5.6619   20.3750 H       1  UNL1        0.2103
     18 O         -17.1145  -11.9474   19.0235 O.3     1  UNL1       -0.3845
     19 C         -16.6986  -10.5076   18.9615 C.3     1  UNL1        0.1105
     20 C         -17.4215   -9.4820   19.7835 C.3     1  UNL1        0.0293
     21 C         -17.0056   -8.0422   19.7214 C.3     1  UNL1        0.0049
     22 C         -15.8669   -7.6278   18.8373 C.3     1  UNL1        0.0272
     23 C         -15.1440   -8.6534   18.0152 C.3     1  UNL1        0.0049
     24 C         -15.5599  -10.0933   18.0773 C.3     1  UNL1        0.0293
     25 H         -17.8594  -12.0426   19.6375 H       1  UNL1        0.2103
@<TRIPOS>BOND
     1    18    19    1
     2    19    20    1
     3    20    21    1
     4    21    22    1
     5    22    15    1
     6    15    16    1
     7    15    14    1
     8    14     1    1
     9     1     2    1
    10     2     3   ar
    11     3     4    1
    12     3     5   ar
    13     5     6   ar
    14     6     7   ar
    15     7     8   ar
    16     8     9    1
    17     9    10   ar
    18    10    11   ar
    19    11    12   ar
    20    12    13   ar
    21    22    23    1
    22    23    24    1
    23    24    19    1
    24    13     1    1
    25     8     2   ar
    26    13     9   ar
    27    18    25    1
    28    16    17    1
@<TRIPOS>MOLECULE
*****
 25 28 0 0 0
SMALL
GASTEIGER

@<TRIPOS>ATOM
      1 C          -7.1165  -18.4311   22.0132 C.3     1  UNL1        0.1140
      2 C          -5.6779  -18.8227   21.8481 C.ar    1  UNL1        0.0273
      3 C          -4.4465  -18.4736   22.6303 C.ar    1  UNL1        0.1379
      4 F          -4.5471  -17.5706   23.8237 F       1  UNL1       -0.2044
      5 C          -3.1146  -19.0276   22.2189 C.ar    1  UNL1        0.0294
      6 C          -3.0141  -19.9306   21.0255 C.ar    1  UNL1        0.0023
      7 C          -4.2455  -20.2797   20.2433 C.ar    1  UNL1        0.0014
      8 C          -5.5774  -19.7257   20.6545 C.ar    1  UNL1        0.0173
      9 C          -6.9538  -19.8923   20.0820 C.ar    1  UNL1        0.0804
     10 C          -7.7423  -20.5534   18.9906 C.ar    1  UNL1        0.1178
     11 N          -9.1808  -20.1618   19.1558 N.ar    1  UNL1       -0.2223
     12 C          -9.2814  -19.2588   20.3492 C.ar    1  UNL1        0.1788
     13 N          -7.9050  -19.0922   20.9217 N.ar    1  UNL1       -0.3068
     14 C          -7.6694  -17.5358   23.0821 C.3     1  UNL1        0.0565
     15 C          -9.1287  -17.5898   23.4249 C.3     1  UNL1        0.1127
     16 O          -9.5689  -18.1529   24.7437 O.3     1  UNL1       -0.3844
     17 H         -10.5362  -18.1141   24.8052 H       1  UNL1        0.2103
     18 O         -13.2050  -15.5534   19.5215 O.3     1  UNL1       -0.3845
     19 C         -12.1859  -16.0625   20.4974 C.3     1  UNL1        0.1105
     20 C         -10.7922  -15.5082   20.4839 C.3     1  UNL1        0.0293
     21 C          -9.7731  -16.0173   21.4597 C.3     1  UNL1        0.0049
     22 C         -10.1478  -17.0807   22.4491 C.3     1  UNL1        0.0272
     23 C         -11.5416  -17.6350   22.4626 C.3     1  UNL1        0.0049
     24 C         -12.5607  -17.1260   21.4867 C.3     1  UNL1        0.0293
     25 H         -12.8022  -14.8743   18.9581 H       1  UNL1        0.2103
@<TRIPOS>BOND
     1    18    19    1
     2    19    20    1
     3    20    21    1
     4    21    22    1
     5    22    15    1
     6    15    16    1
     7    15    14    1
     8    14     1    1
     9     1     2    1
    10     2     3   ar
    11     3     4    1
    12     3     5   ar
    13     5     6   ar
    14     6     7   ar
    15     7     8   ar
    16     8     9    1
    17     9    10   ar
    18    10    11   ar
    19    11    12   ar
    20    12    13   ar
    21    22    23    1
    22    23    24    1
    23    24    19    1
    24    13     1    1
    25     8     2   ar
    26    13     9   ar
    27    18    25    1
    28    16    17    1
