@<TRIPOS>MOLECULE
*****
 29 32 0 0 0
SMALL
GASTEIGER

@<TRIPOS>ATOM
      1 C           5.9706   -2.2748   31.7171 C.ar    1  UNL1        0.0515
      2 C           4.7069   -2.5092   32.4905 C.ar    1  UNL1        0.0160
      3 C           4.4009   -1.6739   33.6982 C.ar    1  UNL1        0.0174
      4 C           5.3586   -0.6042   34.1325 C.ar    1  UNL1        0.0712
      5 C           6.6222   -0.3698   33.3591 C.ar    1  UNL1        0.0729
      6 CL          7.5799    0.6999   33.7935 Cl      1  UNL1       -0.0809
      7 C           6.9282   -1.2051   32.1514 C.ar    1  UNL1        0.0273
      8 N           5.0525    0.2311   35.3402 N.am    1  UNL1       -0.2073
      9 C           5.7379    0.1408   36.6715 C.2     1  UNL1        0.2356
     10 O           6.8496   -0.8007   37.0287 O.2     1  UNL1       -0.2741
     11 C           5.1164    1.1572   37.5828 C.3     1  UNL1        0.0946
     12 C           4.0468    1.8759   36.8148 C.3     1  UNL1        0.0784
     13 C           3.0152    2.5032   35.9248 C.3     1  UNL1        0.0091
     14 C           2.1390    3.6013   36.4504 C.3     1  UNL1        0.0005
     15 C           2.2945    4.0721   37.8661 C.3     1  UNL1        0.0000
     16 C           3.3261    3.4448   38.7561 C.3     1  UNL1        0.0005
     17 C           4.2023    2.3467   38.2305 C.3     1  UNL1        0.0091
     18 C           4.0074    1.3035   35.4288 C.2     1  UNL1        0.2347
     19 O           3.0848    1.7288   34.3252 O.2     1  UNL1       -0.2741
     20 O           6.8848   -5.1127   32.0486 O.2     1  UNL1       -0.2682
     21 C           6.7337   -4.5291   30.6751 C.2     1  UNL1        0.2672
     22 N           6.2766   -3.1101   30.5094 N.am    1  UNL1       -0.2791
     23 H           6.1774   -2.7270   29.6079 H       1  UNL1        0.1552
     24 C           7.0397   -5.3644   29.4674 C.ar    1  UNL1        0.1348
     25 C           6.3024   -5.1248   28.1834 C.ar    1  UNL1        0.0238
     26 C           6.6084   -5.9601   26.9757 C.ar    1  UNL1        0.0033
     27 C           7.6518   -7.0351   27.0519 C.ar    1  UNL1        0.0207
     28 C           8.3892   -7.2747   28.3360 C.ar    1  UNL1        0.0990
     29 N           8.0832   -6.4394   29.5437 N.ar    1  UNL1       -0.2392
@<TRIPOS>BOND
     1    20    21    2
     2    21    22   am
     3    22     1    1
     4     1     2   ar
     5     2     3   ar
     6     3     4   ar
     7     4     8    1
     8     8     9   am
     9     9    10    2
    10     9    11    1
    11    11    12    1
    12    12    13    1
    13    13    14    1
    14    14    15    1
    15    15    16    1
    16    16    17    1
    17    12    18    1
    18    18    19    2
    19     4     5   ar
    20     5     6    1
    21     5     7   ar
    22    21    24    1
    23    24    25   ar
    24    25    26   ar
    25    26    27   ar
    26    27    28   ar
    27    28    29   ar
    28     7     1   ar
    29    29    24   ar
    30    18     8   am
    31    17    12    1
    32    22    23    1
@<TRIPOS>MOLECULE
*****
 29 32 0 0 0
SMALL
GASTEIGER

@<TRIPOS>ATOM
      1 C           6.3245   -3.0162   32.6432 C.ar    1  UNL1        0.0515
      2 C           4.9105   -3.1790   33.1167 C.ar    1  UNL1        0.0160
      3 C           4.2058   -2.0341   33.7820 C.ar    1  UNL1        0.0174
      4 C           4.9151   -0.7264   33.9737 C.ar    1  UNL1        0.0712
      5 C           6.3289   -0.5636   33.5002 C.ar    1  UNL1        0.0729
      6 CL          7.0382    0.7443   33.6920 Cl      1  UNL1       -0.0809
      7 C           7.0336   -1.7084   32.8350 C.ar    1  UNL1        0.0273
      8 N           4.2103    0.4185   34.6390 N.am    1  UNL1       -0.2073
      9 C           3.2741    1.3837   33.9742 C.2     1  UNL1        0.2356
     10 O           2.8783    1.3735   32.5275 O.2     1  UNL1       -0.2741
     11 C           2.8033    2.3609   35.0102 C.3     1  UNL1        0.0946
     12 C           3.4485    1.9998   36.3153 C.3     1  UNL1        0.0784
     13 C           4.1638    1.5208   37.5437 C.3     1  UNL1        0.0091
     14 C           3.9729    2.2348   38.8490 C.3     1  UNL1        0.0005
     15 C           3.0667    3.4276   38.9259 C.3     1  UNL1        0.0000
     16 C           2.3513    3.9065   37.6975 C.3     1  UNL1        0.0005
     17 C           2.5423    3.1926   36.3923 C.3     1  UNL1        0.0091
     18 C           4.3181    0.7993   36.0859 C.2     1  UNL1        0.2347
     19 O           5.1495    0.1019   37.1215 O.2     1  UNL1       -0.2741
     20 O           6.2683   -3.2798   29.6554 O.2     1  UNL1       -0.2682
     21 C           7.0011   -4.2929   30.4840 C.2     1  UNL1        0.2672
     22 N           7.0292   -4.1610   31.9779 N.am    1  UNL1       -0.2791
     23 H           7.5102   -4.8259   32.5218 H       1  UNL1        0.1552
     24 C           7.7058   -5.4378   29.8187 C.ar    1  UNL1        0.1348
     25 C           8.8308   -6.1368   30.5226 C.ar    1  UNL1        0.0238
     26 C           9.5355   -7.2817   29.8573 C.ar    1  UNL1        0.0033
     27 C           9.1153   -7.7276   28.4881 C.ar    1  UNL1        0.0207
     28 C           7.9902   -7.0284   27.7842 C.ar    1  UNL1        0.0990
     29 N           7.2855   -5.8836   28.4495 N.ar    1  UNL1       -0.2392
@<TRIPOS>BOND
     1    20    21    2
     2    21    22   am
     3    22     1    1
     4     1     2   ar
     5     2     3   ar
     6     3     4   ar
     7     4     8    1
     8     8     9   am
     9     9    10    2
    10     9    11    1
    11    11    12    1
    12    12    13    1
    13    13    14    1
    14    14    15    1
    15    15    16    1
    16    16    17    1
    17    12    18    1
    18    18    19    2
    19     4     5   ar
    20     5     6    1
    21     5     7   ar
    22    21    24    1
    23    24    25   ar
    24    25    26   ar
    25    26    27   ar
    26    27    28   ar
    27    28    29   ar
    28     7     1   ar
    29    29    24   ar
    30    18     8   am
    31    17    12    1
    32    22    23    1
@<TRIPOS>MOLECULE
*****
 29 32 0 0 0
SMALL
GASTEIGER

@<TRIPOS>ATOM
      1 C           4.4311   -2.7517   22.0827 C.ar    1  UNL1        0.0515
      2 C           3.8233   -1.6471   22.8955 C.ar    1  UNL1        0.0160
      3 C           3.1490   -0.4956   22.2104 C.ar    1  UNL1        0.0174
      4 C           3.0826   -0.4486   20.7127 C.ar    1  UNL1        0.0712
      5 C           3.6904   -1.5531   19.9000 C.ar    1  UNL1        0.0729
      6 CL          3.6239   -1.5061   18.4021 Cl      1  UNL1       -0.0809
      7 C           4.3646   -2.7047   20.5850 C.ar    1  UNL1        0.0273
      8 N           2.4083    0.7029   20.0276 N.am    1  UNL1       -0.2073
      9 C           0.9299    0.9489   19.9656 C.2     1  UNL1        0.2356
     10 O          -0.1338    0.0865   20.5778 O.2     1  UNL1       -0.2741
     11 C           0.7019    2.2086   19.1840 C.3     1  UNL1        0.0946
     12 C           2.0395    2.7413   18.7628 C.3     1  UNL1        0.0784
     13 C           3.4401    3.1507   18.4156 C.3     1  UNL1        0.0091
     14 C           3.6808    4.3953   17.6139 C.3     1  UNL1        0.0005
     15 C           2.5207    5.2307   17.1593 C.3     1  UNL1        0.0000
     16 C           1.1201    4.8213   17.5065 C.3     1  UNL1        0.0005
     17 C           0.8795    3.5767   18.3083 C.3     1  UNL1        0.0091
     18 C           3.0941    1.8107   19.2842 C.2     1  UNL1        0.2347
     19 O           4.5745    1.9615   19.0954 O.2     1  UNL1       -0.2741
     20 O           7.4075   -2.7395   22.4581 O.2     1  UNL1       -0.2682
     21 C           6.5936   -3.8971   22.9555 C.2     1  UNL1        0.2672
     22 N           5.1054   -3.9032   22.7678 N.am    1  UNL1       -0.2791
     23 H           4.5712   -4.6630   23.0942 H       1  UNL1        0.1552
     24 C           7.2679   -5.0486   23.6405 C.ar    1  UNL1        0.1348
     25 C           7.1470   -5.2123   25.1266 C.ar    1  UNL1        0.0238
     26 C           7.8213   -6.3638   25.8116 C.ar    1  UNL1        0.0033
     27 C           8.6165   -7.3518   25.0106 C.ar    1  UNL1        0.0207
     28 C           8.7374   -7.1881   23.5245 C.ar    1  UNL1        0.0990
     29 N           8.0631   -6.0366   22.8394 N.ar    1  UNL1       -0.2392
@<TRIPOS>BOND
     1    20    21    2
     2    21    22   am
     3    22     1    1
     4     1     2   ar
     5     2     3   ar
     6     3     4   ar
     7     4     8    1
     8     8     9   am
     9     9    10    2
    10     9    11    1
    11    11    12    1
    12    12    13    1
    13    13    14    1
    14    14    15    1
    15    15    16    1
    16    16    17    1
    17    12    18    1
    18    18    19    2
    19     4     5   ar
    20     5     6    1
    21     5     7   ar
    22    21    24    1
    23    24    25   ar
    24    25    26   ar
    25    26    27   ar
    26    27    28   ar
    27    28    29   ar
    28     7     1   ar
    29    29    24   ar
    30    18     8   am
    31    17    12    1
    32    22    23    1
@<TRIPOS>MOLECULE
*****
 29 32 0 0 0
SMALL
GASTEIGER

@<TRIPOS>ATOM
      1 C           0.6635    1.7736   29.6575 C.ar    1  UNL1        0.0515
      2 C          -0.2692    0.8055   28.9920 C.ar    1  UNL1        0.0160
      3 C          -1.0271    1.2171   27.7648 C.ar    1  UNL1        0.0174
      4 C          -0.8524    2.5970   27.2031 C.ar    1  UNL1        0.0712
      5 C           0.0802    3.5651   27.8685 C.ar    1  UNL1        0.0729
      6 CL          0.2549    4.9449   27.3067 Cl      1  UNL1       -0.0809
      7 C           0.8382    3.1534   29.0957 C.ar    1  UNL1        0.0273
      8 N          -1.6103    3.0086   25.9759 N.am    1  UNL1       -0.2073
      9 C          -1.0695    3.0477   24.5772 C.2     1  UNL1        0.2356
     10 O           0.3241    2.6820   24.1603 O.2     1  UNL1       -0.2741
     11 C          -2.1671    3.5167   23.6688 C.3     1  UNL1        0.0946
     12 C          -3.3863    3.7676   24.5059 C.3     1  UNL1        0.0784
     13 C          -4.5195    3.9740   25.4666 C.3     1  UNL1        0.0091
     14 C          -5.8493    4.4544   24.9658 C.3     1  UNL1        0.0005
     15 C          -6.0458    4.7285   23.5042 C.3     1  UNL1        0.0000
     16 C          -4.9126    4.5221   22.5435 C.3     1  UNL1        0.0005
     17 C          -3.5828    4.0416   23.0443 C.3     1  UNL1        0.0091
     18 C          -3.0422    3.4536   25.9317 C.2     1  UNL1        0.2347
     19 O          -3.9675    3.5649   27.1071 O.2     1  UNL1       -0.2741
     20 O           2.7008   -0.4224   29.4959 O.2     1  UNL1       -0.2682
     21 C           2.4401    0.2639   30.8039 C.2     1  UNL1        0.2672
     22 N           1.4214    1.3620   30.8847 N.am    1  UNL1       -0.2791
     23 H           1.2502    1.8125   31.7431 H       1  UNL1        0.1552
     24 C           3.1980   -0.1478   32.0311 C.ar    1  UNL1        0.1348
     25 C           3.4921    0.8586   33.1037 C.ar    1  UNL1        0.0238
     26 C           4.2500    0.4469   34.3309 C.ar    1  UNL1        0.0033
     27 C           4.7139   -0.9712   34.4855 C.ar    1  UNL1        0.0207
     28 C           4.4198   -1.9776   33.4129 C.ar    1  UNL1        0.0990
     29 N           3.6619   -1.5659   32.1857 N.ar    1  UNL1       -0.2392
@<TRIPOS>BOND
     1    20    21    2
     2    21    22   am
     3    22     1    1
     4     1     2   ar
     5     2     3   ar
     6     3     4   ar
     7     4     8    1
     8     8     9   am
     9     9    10    2
    10     9    11    1
    11    11    12    1
    12    12    13    1
    13    13    14    1
    14    14    15    1
    15    15    16    1
    16    16    17    1
    17    12    18    1
    18    18    19    2
    19     4     5   ar
    20     5     6    1
    21     5     7   ar
    22    21    24    1
    23    24    25   ar
    24    25    26   ar
    25    26    27   ar
    26    27    28   ar
    27    28    29   ar
    28     7     1   ar
    29    29    24   ar
    30    18     8   am
    31    17    12    1
    32    22    23    1
@<TRIPOS>MOLECULE
*****
 29 32 0 0 0
SMALL
GASTEIGER

@<TRIPOS>ATOM
      1 C           0.3643    1.2645   19.9825 C.ar    1  UNL1        0.0515
      2 C           0.6230   -0.1569   20.3862 C.ar    1  UNL1        0.0160
      3 C           1.9489   -0.7918   20.0882 C.ar    1  UNL1        0.0174
      4 C           3.0161   -0.0053   19.3864 C.ar    1  UNL1        0.0712
      5 C           2.7575    1.4159   18.9827 C.ar    1  UNL1        0.0729
      6 CL          3.8249    2.2023   18.2810 Cl      1  UNL1       -0.0809
      7 C           1.4316    2.0508   19.2808 C.ar    1  UNL1        0.0273
      8 N           4.3420   -0.6402   19.0884 N.am    1  UNL1       -0.2073
      9 C           4.8071   -1.1220   17.7461 C.2     1  UNL1        0.2356
     10 O           4.0280   -1.0534   16.4663 O.2     1  UNL1       -0.2741
     11 C           6.1882   -1.6843   17.9085 C.3     1  UNL1        0.0946
     12 C           6.5768   -1.5502   19.3511 C.3     1  UNL1        0.0784
     13 C           6.8245   -1.3503   20.8169 C.3     1  UNL1        0.0091
     14 C           8.1255   -1.7851   21.4237 C.3     1  UNL1        0.0005
     15 C           9.1788   -2.4197   20.5647 C.3     1  UNL1        0.0000
     16 C           8.9311   -2.6195   19.0989 C.3     1  UNL1        0.0005
     17 C           7.6300   -2.1847   18.4921 C.3     1  UNL1        0.0091
     18 C           5.4358   -0.9049   20.0804 C.2     1  UNL1        0.2347
     19 O           5.3955   -0.5811   21.5444 O.2     1  UNL1       -0.2741
     20 O           0.1171    3.2378   22.2284 O.2     1  UNL1       -0.2682
     21 C          -1.0852    2.8861   21.4035 C.2     1  UNL1        0.2672
     22 N          -0.9616    1.8994   20.2805 N.am    1  UNL1       -0.2791
     23 H          -1.7507    1.6685   19.7390 H       1  UNL1        0.1552
     24 C          -2.4111    3.5210   21.7015 C.ar    1  UNL1        0.1348
     25 C          -3.5415    3.3908   20.7243 C.ar    1  UNL1        0.0238
     26 C          -4.8674    4.0257   21.0223 C.ar    1  UNL1        0.0033
     27 C          -5.0630    4.7908   22.2976 C.ar    1  UNL1        0.0207
     28 C          -3.9325    4.9209   23.2750 C.ar    1  UNL1        0.0990
     29 N          -2.6066    4.2860   22.9769 N.ar    1  UNL1       -0.2392
@<TRIPOS>BOND
     1    20    21    2
     2    21    22   am
     3    22     1    1
     4     1     2   ar
     5     2     3   ar
     6     3     4   ar
     7     4     8    1
     8     8     9   am
     9     9    10    2
    10     9    11    1
    11    11    12    1
    12    12    13    1
    13    13    14    1
    14    14    15    1
    15    15    16    1
    16    16    17    1
    17    12    18    1
    18    18    19    2
    19     4     5   ar
    20     5     6    1
    21     5     7   ar
    22    21    24    1
    23    24    25   ar
    24    25    26   ar
    25    26    27   ar
    26    27    28   ar
    27    28    29   ar
    28     7     1   ar
    29    29    24   ar
    30    18     8   am
    31    17    12    1
    32    22    23    1
@<TRIPOS>MOLECULE
*****
 29 32 0 0 0
SMALL
GASTEIGER

@<TRIPOS>ATOM
      1 C          -2.0277    3.7809   21.9676 C.ar    1  UNL1        0.0515
      2 C          -2.0875    3.6460   20.4748 C.ar    1  UNL1        0.0160
      3 C          -0.9662    2.9770   19.7366 C.ar    1  UNL1        0.0174
      4 C           0.2151    2.4429   20.4912 C.ar    1  UNL1        0.0712
      5 C           0.2750    2.5778   21.9838 C.ar    1  UNL1        0.0729
      6 CL          1.4563    2.0436   22.7384 Cl      1  UNL1       -0.0809
      7 C          -0.8464    3.2468   22.7220 C.ar    1  UNL1        0.0273
      8 N           1.3364    1.7739   19.7530 N.am    1  UNL1       -0.2073
      9 C           2.2518    2.4269   18.7601 C.2     1  UNL1        0.2356
     10 O           2.2065    3.8635   18.3312 O.2     1  UNL1       -0.2741
     11 C           3.2205    1.3910   18.2715 C.3     1  UNL1        0.0946
     12 C           2.9038    0.0978   18.9624 C.3     1  UNL1        0.0784
     13 C           2.4716   -1.1184   19.7267 C.3     1  UNL1        0.0091
     14 C           3.1927   -2.4197   19.5355 C.3     1  UNL1        0.0005
     15 C           4.3459   -2.5049   18.5801 C.3     1  UNL1        0.0000
     16 C           4.7781   -1.2887   17.8159 C.3     1  UNL1        0.0005
     17 C           4.0570    0.0126   18.0070 C.3     1  UNL1        0.0091
     18 C           1.7394    0.3344   19.8780 C.2     1  UNL1        0.2347
     19 O           1.0917   -0.6888   20.7632 O.2     1  UNL1       -0.2741
     20 O          -4.7223    2.4701   22.1100 O.2     1  UNL1       -0.2682
     21 C          -4.4964    3.7944   22.7770 C.2     1  UNL1        0.2672
     22 N          -3.1490    4.4499   22.7058 N.am    1  UNL1       -0.2791
     23 H          -3.0007    5.3191   23.1435 H       1  UNL1        0.1552
     24 C          -5.6178    4.4634   23.5152 C.ar    1  UNL1        0.1348
     25 C          -7.0280    4.3233   23.0239 C.ar    1  UNL1        0.0238
     26 C          -8.1493    4.9923   23.7621 C.ar    1  UNL1        0.0033
     27 C          -7.8605    5.8015   24.9917 C.ar    1  UNL1        0.0207
     28 C          -6.4502    5.9416   25.4830 C.ar    1  UNL1        0.0990
     29 N          -5.3289    5.2726   24.7448 N.ar    1  UNL1       -0.2392
@<TRIPOS>BOND
     1    20    21    2
     2    21    22   am
     3    22     1    1
     4     1     2   ar
     5     2     3   ar
     6     3     4   ar
     7     4     8    1
     8     8     9   am
     9     9    10    2
    10     9    11    1
    11    11    12    1
    12    12    13    1
    13    13    14    1
    14    14    15    1
    15    15    16    1
    16    16    17    1
    17    12    18    1
    18    18    19    2
    19     4     5   ar
    20     5     6    1
    21     5     7   ar
    22    21    24    1
    23    24    25   ar
    24    25    26   ar
    25    26    27   ar
    26    27    28   ar
    27    28    29   ar
    28     7     1   ar
    29    29    24   ar
    30    18     8   am
    31    17    12    1
    32    22    23    1
@<TRIPOS>MOLECULE
*****
 29 32 0 0 0
SMALL
GASTEIGER

@<TRIPOS>ATOM
      1 C          -0.5041    2.1109   26.8616 C.ar    1  UNL1        0.0515
      2 C          -1.0190    1.0857   27.8281 C.ar    1  UNL1        0.0160
      3 C          -0.2785    0.8204   29.1052 C.ar    1  UNL1        0.0174
      4 C           0.9769    1.5802   29.4160 C.ar    1  UNL1        0.0712
      5 C           1.4918    2.6053   28.4496 C.ar    1  UNL1        0.0729
      6 CL          2.7473    3.3651   28.7605 Cl      1  UNL1       -0.0809
      7 C           0.7513    2.8706   27.1724 C.ar    1  UNL1        0.0273
      8 N           1.7174    1.3149   30.6932 N.am    1  UNL1       -0.2073
      9 C           1.6578    2.1511   31.9371 C.2     1  UNL1        0.2356
     10 O           0.8472    3.3995   32.1221 O.2     1  UNL1       -0.2741
     11 C           2.5511    1.5198   32.9634 C.3     1  UNL1        0.0946
     12 C           3.1629    0.2932   32.3539 C.3     1  UNL1        0.0784
     13 C           3.6939   -0.8987   31.6142 C.3     1  UNL1        0.0091
     14 C           4.6526   -1.8343   32.2892 C.3     1  UNL1        0.0005
     15 C           5.0803   -1.5778   33.7039 C.3     1  UNL1        0.0000
     16 C           4.5492   -0.3858   34.4436 C.3     1  UNL1        0.0005
     17 C           3.5906    0.5497   33.7686 C.3     1  UNL1        0.0091
     18 C           2.6477    0.1666   30.9508 C.2     1  UNL1        0.2347
     19 O           3.0007   -0.9178   29.9765 O.2     1  UNL1       -0.2741
     20 O          -2.8363    3.9977   26.8442 O.2     1  UNL1       -0.2682
     21 C          -2.4107    3.3197   25.5757 C.2     1  UNL1        0.2672
     22 N          -1.2446    2.3762   25.5845 N.am    1  UNL1       -0.2791
     23 H          -0.9653    1.9311   24.7519 H       1  UNL1        0.1552
     24 C          -3.1512    3.5850   24.2985 C.ar    1  UNL1        0.1348
     25 C          -4.5989    3.2111   24.1794 C.ar    1  UNL1        0.0238
     26 C          -5.3394    3.4765   22.9022 C.ar    1  UNL1        0.0033
     27 C          -4.6322    4.1157   21.7441 C.ar    1  UNL1        0.0207
     28 C          -3.1845    4.4897   21.8632 C.ar    1  UNL1        0.0990
     29 N          -2.4440    4.2243   23.1404 N.ar    1  UNL1       -0.2392
@<TRIPOS>BOND
     1    20    21    2
     2    21    22   am
     3    22     1    1
     4     1     2   ar
     5     2     3   ar
     6     3     4   ar
     7     4     8    1
     8     8     9   am
     9     9    10    2
    10     9    11    1
    11    11    12    1
    12    12    13    1
    13    13    14    1
    14    14    15    1
    15    15    16    1
    16    16    17    1
    17    12    18    1
    18    18    19    2
    19     4     5   ar
    20     5     6    1
    21     5     7   ar
    22    21    24    1
    23    24    25   ar
    24    25    26   ar
    25    26    27   ar
    26    27    28   ar
    27    28    29   ar
    28     7     1   ar
    29    29    24   ar
    30    18     8   am
    31    17    12    1
    32    22    23    1
@<TRIPOS>MOLECULE
*****
 29 32 0 0 0
SMALL
GASTEIGER

@<TRIPOS>ATOM
      1 C         -15.6899   -1.5010   19.4476 C.ar    1  UNL1        0.0515
      2 C         -16.4774   -2.1127   18.3269 C.ar    1  UNL1        0.0160
      3 C         -16.3483   -3.5777   18.0319 C.ar    1  UNL1        0.0174
      4 C         -15.4318   -4.4310   18.8576 C.ar    1  UNL1        0.0712
      5 C         -14.6444   -3.8194   19.9782 C.ar    1  UNL1        0.0729
      6 CL        -13.7279   -4.6729   20.8039 Cl      1  UNL1       -0.0809
      7 C         -14.7735   -2.3544   20.2732 C.ar    1  UNL1        0.0273
      8 N         -15.3027   -5.8961   18.5626 N.am    1  UNL1       -0.2073
      9 C         -14.1771   -6.5495   17.8167 C.2     1  UNL1        0.2356
     10 O         -12.9832   -5.8525   17.2349 O.2     1  UNL1       -0.2741
     11 C         -14.4553   -8.0221   17.7549 C.3     1  UNL1        0.0946
     12 C         -15.7528   -8.2790   18.4625 C.3     1  UNL1        0.0784
     13 C         -17.0565   -8.3813   19.1971 C.3     1  UNL1        0.0091
     14 C         -17.7147   -9.7174   19.3744 C.3     1  UNL1        0.0005
     15 C         -17.0690  -10.9513   18.8170 C.3     1  UNL1        0.0000
     16 C         -15.7652  -10.8491   18.0825 C.3     1  UNL1        0.0005
     17 C         -15.1071   -9.5129   17.9052 C.3     1  UNL1        0.0091
     18 C         -16.2765   -6.9650   18.9617 C.2     1  UNL1        0.2347
     19 O         -17.5503   -6.7565   19.7259 O.2     1  UNL1       -0.2741
     20 O         -18.1684   -0.4502   20.7716 O.2     1  UNL1       -0.2682
     21 C         -17.0583    0.4894   20.4046 C.2     1  UNL1        0.2672
     22 N         -15.8190   -0.0360   19.7426 N.am    1  UNL1       -0.2791
     23 H         -15.0904    0.5807   19.5017 H       1  UNL1        0.1552
     24 C         -17.1874    1.9544   20.6996 C.ar    1  UNL1        0.1348
     25 C         -17.2276    2.4326   22.1207 C.ar    1  UNL1        0.0238
     26 C         -17.3567    3.8976   22.4157 C.ar    1  UNL1        0.0033
     27 C         -17.4456    4.8845   21.2896 C.ar    1  UNL1        0.0207
     28 C         -17.4054    4.4063   19.8684 C.ar    1  UNL1        0.0990
     29 N         -17.2763    2.9413   19.5734 N.ar    1  UNL1       -0.2392
@<TRIPOS>BOND
     1    20    21    2
     2    21    22   am
     3    22     1    1
     4     1     2   ar
     5     2     3   ar
     6     3     4   ar
     7     4     8    1
     8     8     9   am
     9     9    10    2
    10     9    11    1
    11    11    12    1
    12    12    13    1
    13    13    14    1
    14    14    15    1
    15    15    16    1
    16    16    17    1
    17    12    18    1
    18    18    19    2
    19     4     5   ar
    20     5     6    1
    21     5     7   ar
    22    21    24    1
    23    24    25   ar
    24    25    26   ar
    25    26    27   ar
    26    27    28   ar
    27    28    29   ar
    28     7     1   ar
    29    29    24   ar
    30    18     8   am
    31    17    12    1
    32    22    23    1
@<TRIPOS>MOLECULE
*****
 29 32 0 0 0
SMALL
GASTEIGER

@<TRIPOS>ATOM
      1 C           4.4919   -2.7116   22.3117 C.ar    1  UNL1        0.0515
      2 C           4.0376   -1.5258   23.1102 C.ar    1  UNL1        0.0160
      3 C           3.3944   -0.3592   22.4208 C.ar    1  UNL1        0.0174
      4 C           3.2054   -0.3785   20.9329 C.ar    1  UNL1        0.0712
      5 C           3.6597   -1.5642   20.1345 C.ar    1  UNL1        0.0729
      6 CL          3.4707   -1.5834   18.6465 Cl      1  UNL1       -0.0809
      7 C           4.3029   -2.7308   20.8239 C.ar    1  UNL1        0.0273
      8 N           2.5622    0.7881   20.2435 N.am    1  UNL1       -0.2073
      9 C           3.2128    1.6807   19.2284 C.2     1  UNL1        0.2356
     10 O           4.6207    1.5633   18.7247 O.2     1  UNL1       -0.2741
     11 C           2.2081    2.7112   18.8057 C.3     1  UNL1        0.0946
     12 C           0.9366    2.4556   19.5594 C.3     1  UNL1        0.0784
     13 C          -0.2606    2.0794   20.3810 C.3     1  UNL1        0.0091
     14 C          -1.5283    2.8729   20.2662 C.3     1  UNL1        0.0005
     15 C          -1.5988    4.0426   19.3298 C.3     1  UNL1        0.0000
     16 C          -0.4016    4.4188   18.5082 C.3     1  UNL1        0.0005
     17 C           0.8661    3.6253   18.6230 C.3     1  UNL1        0.0091
     18 C           1.1554    1.2670   20.4480 C.2     1  UNL1        0.2347
     19 O           0.1450    0.6634   21.3778 O.2     1  UNL1       -0.2741
     20 O           7.4795   -2.8582   22.5399 O.2     1  UNL1       -0.2682
     21 C           6.6290   -3.9515   23.1152 C.2     1  UNL1        0.2672
     22 N           5.1351   -3.8782   23.0012 N.am    1  UNL1       -0.2791
     23 H           4.5768   -4.5958   23.3788 H       1  UNL1        0.1552
     24 C           7.2722   -5.1180   23.8046 C.ar    1  UNL1        0.1348
     25 C           7.1531   -5.2689   25.2922 C.ar    1  UNL1        0.0238
     26 C           7.7963   -6.4355   25.9816 C.ar    1  UNL1        0.0033
     27 C           8.5587   -7.4513   25.1835 C.ar    1  UNL1        0.0207
     28 C           8.6778   -7.3004   23.6959 C.ar    1  UNL1        0.0990
     29 N           8.0346   -6.1338   23.0064 N.ar    1  UNL1       -0.2392
@<TRIPOS>BOND
     1    20    21    2
     2    21    22   am
     3    22     1    1
     4     1     2   ar
     5     2     3   ar
     6     3     4   ar
     7     4     8    1
     8     8     9   am
     9     9    10    2
    10     9    11    1
    11    11    12    1
    12    12    13    1
    13    13    14    1
    14    14    15    1
    15    15    16    1
    16    16    17    1
    17    12    18    1
    18    18    19    2
    19     4     5   ar
    20     5     6    1
    21     5     7   ar
    22    21    24    1
    23    24    25   ar
    24    25    26   ar
    25    26    27   ar
    26    27    28   ar
    27    28    29   ar
    28     7     1   ar
    29    29    24   ar
    30    18     8   am
    31    17    12    1
    32    22    23    1
