@<TRIPOS>MOLECULE
*****
 60 67 0 0 0
SMALL
GASTEIGER

@<TRIPOS>ATOM
      1 C           1.3850    0.4486   21.1893 C.3     1  UNL1        0.1541
      2 N           0.1488    1.2883   21.0593 N.am    1  UNL1       -0.2822
      3 C           0.0088    2.2444   19.9120 C.2     1  UNL1        0.3043
      4 O           1.1049    2.3609   18.8947 O.2     1  UNL1       -0.2526
      5 N          -1.2274    3.0841   19.7821 N.am    1  UNL1       -0.2640
      6 C          -1.3674    4.0402   18.6348 C.3     1  UNL1        0.0989
      7 C          -2.6035    4.8799   18.5049 C.3     1  UNL1        0.0662
      8 C          -3.6996    4.7634   19.5222 C.3     1  UNL1        0.1620
      9 C          -3.5596    3.8073   20.6694 C.3     1  UNL1        0.0662
     10 C          -2.3235    2.9677   20.7994 C.3     1  UNL1        0.0989
     11 O          -3.8397    5.7196   18.3749 O.3     1  UNL1       -0.4373
     12 C          -5.0758    6.5592   18.2449 C.2     1  UNL1        0.4065
     13 O          -5.2159    7.5154   17.0976 O.2     1  UNL1       -0.2260
     14 N          -6.1720    6.4428   19.2622 N.am    1  UNL1       -0.2352
     15 C          -6.0320    5.4867   20.4095 C.ar    1  UNL1        0.1358
     16 N          -7.1281    5.3703   21.4268 N.ar    1  UNL1       -0.2291
     17 C          -6.9880    4.4141   22.5741 C.ar    1  UNL1        0.1003
     18 C          -5.7519    3.5745   22.7041 C.ar    1  UNL1        0.0206
     19 C          -4.6558    3.6909   21.6868 C.ar    1  UNL1        0.0034
     20 C          -4.7958    4.6470   20.5395 C.ar    1  UNL1        0.0456
     21 H          -0.5706    1.2119   21.7270 H       1  UNL1        0.1514
     22 H          -6.9833    6.9939   19.1769 H       1  UNL1        0.1596
     23 C           2.5359    0.9320   22.0210 C.2     1  UNL1        0.2410
     24 O           2.9461    2.3739   21.9679 O.2     1  UNL1       -0.2733
     25 N           3.2767   -0.0264   22.9056 N.am    1  UNL1       -0.2970
     26 H           3.0075   -0.9728   22.9404 H       1  UNL1        0.1499
     27 C           4.4277    0.4570   23.7372 C.3     1  UNL1        0.1488
     28 C           4.2420    0.6999   25.2057 C.2     1  UNL1        0.2436
     29 O           3.5563    1.9473   25.6788 O.2     1  UNL1       -0.2731
     30 N           4.7420   -0.3046   26.2012 N.am    1  UNL1       -0.2747
     31 C           5.4277   -1.5520   25.7282 C.3     1  UNL1        0.1149
     32 C           5.9277   -2.5565   26.7236 C.3     1  UNL1        0.1123
     33 N           5.7421   -2.3136   28.1921 N.pl3   1  UNL1       -0.3040
     34 C           5.0564   -1.0662   28.6652 C.3     1  UNL1        0.1123
     35 C           4.5563   -0.0617   27.6697 C.3     1  UNL1        0.1149
     36 C           6.2421   -3.3181   29.1876 C.ar    1  UNL1        0.0511
     37 C           6.4274   -2.9235   30.6228 C.ar    1  UNL1        0.0352
     38 C           6.9274   -3.9280   31.6183 C.ar    1  UNL1        0.1002
     39 N           7.2421   -5.3271   31.1785 N.ar    1  UNL1       -0.2422
     40 C           7.0568   -5.7218   29.7433 C.ar    1  UNL1        0.1002
     41 C           6.5568   -4.7173   28.7478 C.ar    1  UNL1        0.0352
     42 C           5.7643    0.6974   23.1004 C.3     1  UNL1        0.0291
     43 C           6.3933   -0.3676   22.2519 C.3     1  UNL1        0.0049
     44 C           7.4492   -0.0028   21.2508 C.3     1  UNL1        0.0172
     45 C           8.0782   -1.0678   20.4023 C.3     1  UNL1        0.0686
     46 N           7.6513   -2.4978   20.5548 N.3     1  UNL1       -0.2975
     47 C           6.5955   -2.8626   21.5559 C.3     1  UNL1        0.0686
     48 C           5.9665   -1.7975   22.4044 C.3     1  UNL1        0.0172
     49 H           8.4863   -3.0297   20.8004 H       1  UNL1        0.1232
     50 C           1.4702   -0.8744   20.4877 C.3     1  UNL1        0.0553
     51 C           4.7610   -4.4873   18.7220 C.3     1  UNL1        0.0287
     52 C           4.3556   -3.0483   18.8451 C.2     1  UNL1       -0.0163
     53 C           3.1155   -2.6808   19.6049 C.2     1  UNL1       -0.0105
     54 C           2.7102   -1.2419   19.7280 C.2     1  UNL1       -0.0208
     55 C           3.5449   -0.1705   19.0913 C.2     1  UNL1       -0.0046
     56 C           4.7850   -0.5380   18.3316 C.2     1  UNL1        0.0261
     57 C           5.7989    0.2931   17.6028 C.2     1  UNL1        0.1197
     58 N           6.8310   -0.6321   17.0294 N.2     1  UNL1       -0.1508
     59 N           6.4548   -2.0351   17.4037 N.2     1  UNL1       -0.1677
     60 C           5.1903   -1.9769   18.2085 C.3     1  UNL1        0.1672
@<TRIPOS>BOND
     1    51    52    1
     2    52    53    2
     3    53    54    1
     4    54    50    1
     5     1    50    1
     6     1     2    1
     7     2     3   am
     8     3     4    2
     9     3     5   am
    10     5     6    1
    11     6     7    1
    12     7     8    1
    13     8     9    1
    14     9    10    1
    15     8    11    1
    16    11    12    1
    17    12    13    2
    18    12    14   am
    19    14    15    1
    20    15    16   ar
    21    16    17   ar
    22    17    18   ar
    23    18    19   ar
    24    19    20   ar
    25     1    23    1
    26    23    24    2
    27    23    25   am
    28    25    27    1
    29    27    42    1
    30    42    43    1
    31    43    44    1
    32    44    45    1
    33    45    46    1
    34    46    47    1
    35    47    48    1
    36    27    28    1
    37    28    29    2
    38    28    30   am
    39    30    31    1
    40    31    32    1
    41    32    33    1
    42    33    36    1
    43    36    37   ar
    44    37    38   ar
    45    38    39   ar
    46    39    40   ar
    47    40    41   ar
    48    33    34    1
    49    34    35    1
    50    54    55    2
    51    55    56    1
    52    56    57    2
    53    57    58    1
    54    58    59    2
    55    59    60    1
    56    60    52    1
    57    10     5    1
    58    20    15   ar
    59    48    43    1
    60    35    30    1
    61    60    56    1
    62    20     8    1
    63    41    36   ar
    64     2    21    1
    65    14    22    1
    66    25    26    1
    67    46    49    1
@<TRIPOS>MOLECULE
*****
 60 67 0 0 0
SMALL
GASTEIGER

@<TRIPOS>ATOM
      1 C           0.7589    1.0289   20.9710 C.3     1  UNL1        0.1541
      2 N          -0.5277    1.8001   20.9794 N.am    1  UNL1       -0.2822
      3 C          -0.8770    2.6888   19.8227 C.2     1  UNL1        0.3043
      4 O           0.0602    2.8064   18.6575 O.2     1  UNL1       -0.2526
      5 N          -2.1637    3.4599   19.8311 N.am    1  UNL1       -0.2640
      6 C          -2.5130    4.3486   18.6743 C.3     1  UNL1        0.0989
      7 C          -3.7996    5.1197   18.6828 C.3     1  UNL1        0.0662
      8 C          -4.7368    5.0021   19.8480 C.3     1  UNL1        0.1620
      9 C          -4.3875    4.1134   21.0047 C.3     1  UNL1        0.0662
     10 C          -3.1009    3.3423   20.9963 C.3     1  UNL1        0.0989
     11 O          -5.0862    5.8908   18.6912 O.3     1  UNL1       -0.4373
     12 C          -6.3728    6.6619   18.6996 C.2     1  UNL1        0.4065
     13 O          -6.7222    7.5506   17.5428 O.2     1  UNL1       -0.2260
     14 N          -7.3100    6.5443   19.8648 N.am    1  UNL1       -0.2352
     15 C          -6.9607    5.6556   21.0216 C.ar    1  UNL1        0.1358
     16 N          -7.8980    5.5380   22.1868 N.ar    1  UNL1       -0.2291
     17 C          -7.5486    4.6492   23.3436 C.ar    1  UNL1        0.1003
     18 C          -6.2620    3.8782   23.3352 C.ar    1  UNL1        0.0206
     19 C          -5.3248    3.9958   22.1700 C.ar    1  UNL1        0.0034
     20 C          -5.6741    4.8845   21.0132 C.ar    1  UNL1        0.0456
     21 H          -1.1429    1.7229   21.7442 H       1  UNL1        0.1514
     22 H          -8.1545    7.0504   19.8704 H       1  UNL1        0.1596
     23 C           1.9129    1.4863   21.8131 C.2     1  UNL1        0.2410
     24 O           2.6571    2.7370   21.4500 O.2     1  UNL1       -0.2733
     25 N           2.3227    0.6929   23.0184 N.am    1  UNL1       -0.2970
     26 H           1.8342   -0.1280   23.2567 H       1  UNL1        0.1499
     27 C           3.4767    1.1503   23.8605 C.3     1  UNL1        0.1488
     28 C           4.8835    0.9173   23.3952 C.2     1  UNL1        0.2436
     29 O           5.6713    2.0440   22.7951 O.2     1  UNL1       -0.2731
     30 N           5.5025   -0.4424   23.5298 N.am    1  UNL1       -0.2747
     31 C           4.7147   -1.5690   24.1298 C.3     1  UNL1        0.1149
     32 C           5.3338   -2.9287   24.2644 C.3     1  UNL1        0.1123
     33 N           6.7406   -3.1617   23.7991 N.pl3   1  UNL1       -0.3040
     34 C           7.5284   -2.0350   23.1991 C.3     1  UNL1        0.1123
     35 C           6.9094   -0.6753   23.0644 C.3     1  UNL1        0.1149
     36 C           7.3596   -4.5213   23.9338 C.ar    1  UNL1        0.0511
     37 C           8.1794   -5.0866   22.8120 C.ar    1  UNL1        0.0352
     38 C           8.7984   -6.4463   22.9466 C.ar    1  UNL1        0.1002
     39 N           8.5977   -7.2406   24.2031 N.ar    1  UNL1       -0.2422
     40 C           7.7779   -6.6754   25.3249 C.ar    1  UNL1        0.1002
     41 C           7.1589   -5.3157   25.1903 C.ar    1  UNL1        0.0352
     42 C           3.2239    1.8406   25.1679 C.3     1  UNL1        0.0291
     43 C           2.5117    1.1175   26.2725 C.3     1  UNL1        0.0049
     44 C           3.2329    0.0735   27.0725 C.3     1  UNL1        0.0172
     45 C           2.5207   -0.6496   28.1770 C.3     1  UNL1        0.0686
     46 N           1.0874   -0.3286   28.4815 N.3     1  UNL1       -0.2975
     47 C           0.3663    0.7154   27.6816 C.3     1  UNL1        0.0686
     48 C           1.0785    1.4385   26.5770 C.3     1  UNL1        0.0172
     49 H           1.0535   -0.0286   29.4558 H       1  UNL1        0.1232
     50 C           0.8915   -0.1995   20.1205 C.3     1  UNL1        0.0553
     51 C           4.9090   -3.4472   20.6793 C.3     1  UNL1        0.0287
     52 C           4.2579   -2.2960   19.9716 C.2     1  UNL1       -0.0163
     53 C           2.9002   -1.8233   20.4000 C.2     1  UNL1       -0.0105
     54 C           2.2491   -0.6722   19.6923 C.2     1  UNL1       -0.0208
     55 C           2.9556    0.0063   18.5562 C.2     1  UNL1       -0.0046
     56 C           4.3132   -0.4663   18.1279 C.2     1  UNL1        0.0261
     57 C           5.2454    0.0024   17.0503 C.2     1  UNL1        0.1197
     58 N           6.4727   -0.8591   17.0919 N.2     1  UNL1       -0.1508
     59 N           6.2989   -1.8602   18.1954 N.2     1  UNL1       -0.1677
     60 C           4.9643   -1.6175   18.8356 C.3     1  UNL1        0.1672
@<TRIPOS>BOND
     1    51    52    1
     2    52    53    2
     3    53    54    1
     4    54    50    1
     5     1    50    1
     6     1     2    1
     7     2     3   am
     8     3     4    2
     9     3     5   am
    10     5     6    1
    11     6     7    1
    12     7     8    1
    13     8     9    1
    14     9    10    1
    15     8    11    1
    16    11    12    1
    17    12    13    2
    18    12    14   am
    19    14    15    1
    20    15    16   ar
    21    16    17   ar
    22    17    18   ar
    23    18    19   ar
    24    19    20   ar
    25     1    23    1
    26    23    24    2
    27    23    25   am
    28    25    27    1
    29    27    42    1
    30    42    43    1
    31    43    44    1
    32    44    45    1
    33    45    46    1
    34    46    47    1
    35    47    48    1
    36    27    28    1
    37    28    29    2
    38    28    30   am
    39    30    31    1
    40    31    32    1
    41    32    33    1
    42    33    36    1
    43    36    37   ar
    44    37    38   ar
    45    38    39   ar
    46    39    40   ar
    47    40    41   ar
    48    33    34    1
    49    34    35    1
    50    54    55    2
    51    55    56    1
    52    56    57    2
    53    57    58    1
    54    58    59    2
    55    59    60    1
    56    60    52    1
    57    10     5    1
    58    20    15   ar
    59    48    43    1
    60    35    30    1
    61    60    56    1
    62    20     8    1
    63    41    36   ar
    64     2    21    1
    65    14    22    1
    66    25    26    1
    67    46    49    1
@<TRIPOS>MOLECULE
*****
 60 67 0 0 0
SMALL
GASTEIGER

@<TRIPOS>ATOM
      1 C           1.0503    0.6049   21.0529 C.3     1  UNL1        0.1541
      2 N          -0.1959    1.4366   20.9792 N.am    1  UNL1       -0.2822
      3 C          -0.3923    2.3942   19.8415 C.2     1  UNL1        0.3043
      4 O           0.6574    2.5202   18.7775 O.2     1  UNL1       -0.2526
      5 N          -1.6385    3.2259   19.7678 N.am    1  UNL1       -0.2640
      6 C          -1.8349    4.1835   18.6301 C.3     1  UNL1        0.0989
      7 C          -3.0810    5.0151   18.5565 C.3     1  UNL1        0.0662
      8 C          -4.1308    4.8892   19.6205 C.3     1  UNL1        0.1620
      9 C          -3.9344    3.9315   20.7582 C.3     1  UNL1        0.0662
     10 C          -2.6883    3.0999   20.8318 C.3     1  UNL1        0.0989
     11 O          -4.3272    5.8468   18.4828 O.3     1  UNL1       -0.4373
     12 C          -5.5734    6.6785   18.4091 C.2     1  UNL1        0.4065
     13 O          -5.7698    7.6362   17.2714 O.2     1  UNL1       -0.2260
     14 N          -6.6231    6.5525   19.4732 N.am    1  UNL1       -0.2352
     15 C          -6.4267    5.5949   20.6109 C.ar    1  UNL1        0.1358
     16 N          -7.4765    5.4689   21.6749 N.ar    1  UNL1       -0.2291
     17 C          -7.2800    4.5112   22.8126 C.ar    1  UNL1        0.1003
     18 C          -6.0339    3.6796   22.8863 C.ar    1  UNL1        0.0206
     19 C          -4.9842    3.8056   21.8222 C.ar    1  UNL1        0.0034
     20 C          -5.1805    4.7632   20.6845 C.ar    1  UNL1        0.0456
     21 H          -0.8849    1.3539   21.6775 H       1  UNL1        0.1514
     22 H          -7.4410    7.0984   19.4248 H       1  UNL1        0.1596
     23 C           2.1648    1.0038   21.9741 C.2     1  UNL1        0.2410
     24 O           3.1253    2.0816   21.5665 O.2     1  UNL1       -0.2733
     25 N           2.3189    0.3251   23.3028 N.am    1  UNL1       -0.2970
     26 H           1.6885   -0.3822   23.5703 H       1  UNL1        0.1499
     27 C           3.4334    0.7240   24.2241 C.3     1  UNL1        0.1488
     28 C           4.7318   -0.0266   24.1994 C.2     1  UNL1        0.2436
     29 O           5.6373    0.0801   23.0083 O.2     1  UNL1       -0.2731
     30 N           5.1248   -0.8838   25.3659 N.am    1  UNL1       -0.2747
     31 C           4.2194   -0.9905   26.5570 C.3     1  UNL1        0.1149
     32 C           4.6124   -1.8477   27.7235 C.3     1  UNL1        0.1123
     33 N           5.9108   -2.5983   27.6989 N.pl3   1  UNL1       -0.3040
     34 C           6.8163   -2.4917   26.5077 C.3     1  UNL1        0.1123
     35 C           6.4233   -1.6344   25.3412 C.3     1  UNL1        0.1149
     36 C           6.3038   -3.4555   28.8654 C.ar    1  UNL1        0.0511
     37 C           6.3492   -2.8693   30.2453 C.ar    1  UNL1        0.0352
     38 C           6.7422   -3.7266   31.4118 C.ar    1  UNL1        0.1002
     39 N           7.0898   -5.1700   31.1983 N.ar    1  UNL1       -0.2422
     40 C           7.0444   -5.7563   29.8183 C.ar    1  UNL1        0.1002
     41 C           6.6514   -4.8991   28.6518 C.ar    1  UNL1        0.0352
     42 C           3.2495    1.8736   25.1699 C.3     1  UNL1        0.0291
     43 C           1.8891    2.1797   25.7228 C.3     1  UNL1        0.0049
     44 C           1.0777    3.2994   25.1412 C.3     1  UNL1        0.0172
     45 C          -0.2826    3.6055   25.6940 C.3     1  UNL1        0.0686
     46 N          -0.8316    2.7920   26.8285 N.3     1  UNL1       -0.2975
     47 C          -0.0203    1.6724   27.4100 C.3     1  UNL1        0.0686
     48 C           1.3401    1.3663   26.8571 C.3     1  UNL1        0.0172
     49 H          -1.7064    2.3823   26.5007 H       1  UNL1        0.1232
     50 C           1.1819   -0.6257   20.2054 C.3     1  UNL1        0.0553
     51 C           5.0740   -3.9648   19.3672 C.3     1  UNL1        0.0287
     52 C           4.4411   -2.6239   19.1401 C.2     1  UNL1       -0.0163
     53 C           3.1279   -2.2953   19.7863 C.2     1  UNL1       -0.0105
     54 C           2.4950   -0.9544   19.5592 C.2     1  UNL1       -0.0208
     55 C           3.1754    0.0578   18.6859 C.2     1  UNL1       -0.0046
     56 C           4.4885   -0.2709   18.0397 C.2     1  UNL1        0.0261
     57 C           5.3876    0.5188   17.1352 C.2     1  UNL1        0.1197
     58 N           6.5761   -0.3340   16.8033 N.2     1  UNL1       -0.1508
     59 N           6.4115   -1.6507   17.5027 N.2     1  UNL1       -0.1677
     60 C           5.1214   -1.6117   18.2669 C.3     1  UNL1        0.1672
@<TRIPOS>BOND
     1    51    52    1
     2    52    53    2
     3    53    54    1
     4    54    50    1
     5     1    50    1
     6     1     2    1
     7     2     3   am
     8     3     4    2
     9     3     5   am
    10     5     6    1
    11     6     7    1
    12     7     8    1
    13     8     9    1
    14     9    10    1
    15     8    11    1
    16    11    12    1
    17    12    13    2
    18    12    14   am
    19    14    15    1
    20    15    16   ar
    21    16    17   ar
    22    17    18   ar
    23    18    19   ar
    24    19    20   ar
    25     1    23    1
    26    23    24    2
    27    23    25   am
    28    25    27    1
    29    27    42    1
    30    42    43    1
    31    43    44    1
    32    44    45    1
    33    45    46    1
    34    46    47    1
    35    47    48    1
    36    27    28    1
    37    28    29    2
    38    28    30   am
    39    30    31    1
    40    31    32    1
    41    32    33    1
    42    33    36    1
    43    36    37   ar
    44    37    38   ar
    45    38    39   ar
    46    39    40   ar
    47    40    41   ar
    48    33    34    1
    49    34    35    1
    50    54    55    2
    51    55    56    1
    52    56    57    2
    53    57    58    1
    54    58    59    2
    55    59    60    1
    56    60    52    1
    57    10     5    1
    58    20    15   ar
    59    48    43    1
    60    35    30    1
    61    60    56    1
    62    20     8    1
    63    41    36   ar
    64     2    21    1
    65    14    22    1
    66    25    26    1
    67    46    49    1
@<TRIPOS>MOLECULE
*****
 60 67 0 0 0
SMALL
GASTEIGER

@<TRIPOS>ATOM
      1 C           4.8627    0.8454   26.7982 C.3     1  UNL1        0.1541
      2 N           4.8209    0.3246   25.3921 N.am    1  UNL1       -0.2822
      3 C           4.8616   -1.1532   25.1382 C.2     1  UNL1        0.3043
      4 O           4.9440   -2.1102   26.2903 O.2     1  UNL1       -0.2526
      5 N           4.8198   -1.6740   23.7321 N.am    1  UNL1       -0.2640
      6 C           4.8605   -3.1518   23.4781 C.3     1  UNL1        0.0989
      7 C           4.8187   -3.6726   22.0721 C.3     1  UNL1        0.0662
      8 C           4.7362   -2.7156   20.9200 C.3     1  UNL1        0.1620
      9 C           4.6956   -1.2378   21.1739 C.3     1  UNL1        0.0662
     10 C           4.7373   -0.7170   22.5799 C.3     1  UNL1        0.0989
     11 O           4.7769   -4.1934   20.6660 O.3     1  UNL1       -0.4373
     12 C           4.7351   -4.7142   19.2600 C.2     1  UNL1        0.4065
     13 O           4.7758   -6.1920   19.0060 O.2     1  UNL1       -0.2260
     14 N           4.6527   -3.7572   18.1078 N.am    1  UNL1       -0.2352
     15 C           4.6120   -2.2795   18.3618 C.ar    1  UNL1        0.1358
     16 N           4.5296   -1.3225   17.2096 N.ar    1  UNL1       -0.2291
     17 C           4.4889    0.1554   17.4636 C.ar    1  UNL1        0.1003
     18 C           4.5306    0.6761   18.8696 C.ar    1  UNL1        0.0206
     19 C           4.6131   -0.2808   20.0218 C.ar    1  UNL1        0.0034
     20 C           4.6538   -1.7586   19.7679 C.ar    1  UNL1        0.0456
     21 H           4.7668    0.9527   24.6359 H       1  UNL1        0.1514
     22 H           4.6253   -4.0990   17.1850 H       1  UNL1        0.1596
     23 C           5.7706    0.2076   27.8076 C.2     1  UNL1        0.2410
     24 O           7.2483    0.4594   27.7521 O.2     1  UNL1       -0.2733
     25 N           5.2008   -0.6820   28.8724 N.am    1  UNL1       -0.2970
     26 H           4.2310   -0.8473   28.9088 H       1  UNL1        0.1499
     27 C           6.1087   -1.3199   29.8818 C.3     1  UNL1        0.1488
     28 C           6.8305   -0.4694   30.8845 C.2     1  UNL1        0.2436
     29 O           8.2606   -0.0825   30.6489 O.2     1  UNL1       -0.2731
     30 N           6.1224   -0.0057   32.1229 N.am    1  UNL1       -0.2747
     31 C           4.6925   -0.3925   32.3585 C.3     1  UNL1        0.1149
     32 C           3.9843    0.0712   33.5968 C.3     1  UNL1        0.1123
     33 N           4.7061    0.9218   34.5996 N.pl3   1  UNL1       -0.3040
     34 C           6.1362    1.3086   34.3640 C.3     1  UNL1        0.1123
     35 C           6.8443    0.8449   33.1256 C.3     1  UNL1        0.1149
     36 C           3.9980    1.3855   35.8379 C.ar    1  UNL1        0.0511
     37 C           3.0726    2.5643   35.7758 C.ar    1  UNL1        0.0352
     38 C           2.3645    3.0281   37.0141 C.ar    1  UNL1        0.1002
     39 N           2.5817    2.3129   38.3146 N.ar    1  UNL1       -0.2422
     40 C           3.5071    1.1340   38.3768 C.ar    1  UNL1        0.1002
     41 C           4.2153    0.6703   37.1385 C.ar    1  UNL1        0.0352
     42 C           6.2948   -2.8083   29.8884 C.3     1  UNL1        0.0291
     43 C           6.8910   -3.4949   28.6955 C.3     1  UNL1        0.0049
     44 C           8.0263   -2.8558   27.9519 C.3     1  UNL1        0.0172
     45 C           8.6225   -3.5424   26.7590 C.3     1  UNL1        0.0686
     46 N           8.0834   -4.8682   26.3097 N.3     1  UNL1       -0.2975
     47 C           6.9483   -5.5073   27.0532 C.3     1  UNL1        0.0686
     48 C           6.3520   -4.8206   28.2461 C.3     1  UNL1        0.0172
     49 H           8.8616   -5.5271   26.3373 H       1  UNL1        0.1232
     50 C           3.9966    2.0041   27.1948 C.3     1  UNL1        0.0553
     51 C           1.4084    2.8789   31.6148 C.3     1  UNL1        0.0287
     52 C           1.4996    2.2163   30.2722 C.2     1  UNL1       -0.0163
     53 C           2.7025    2.4415   29.4048 C.2     1  UNL1       -0.0105
     54 C           2.7937    1.7789   28.0622 C.2     1  UNL1       -0.0208
     55 C           1.6819    0.8910   27.5870 C.2     1  UNL1       -0.0046
     56 C           0.4791    0.6658   28.4544 C.2     1  UNL1        0.0261
     57 C          -0.7637   -0.1501   28.2548 C.2     1  UNL1        0.1197
     58 N          -1.6229    0.0082   29.4741 N.2     1  UNL1       -0.1508
     59 N          -0.9112    0.9220   30.4272 N.2     1  UNL1       -0.1677
     60 C           0.3879    1.3284   29.7970 C.3     1  UNL1        0.1672
@<TRIPOS>BOND
     1    51    52    1
     2    52    53    2
     3    53    54    1
     4    54    50    1
     5     1    50    1
     6     1     2    1
     7     2     3   am
     8     3     4    2
     9     3     5   am
    10     5     6    1
    11     6     7    1
    12     7     8    1
    13     8     9    1
    14     9    10    1
    15     8    11    1
    16    11    12    1
    17    12    13    2
    18    12    14   am
    19    14    15    1
    20    15    16   ar
    21    16    17   ar
    22    17    18   ar
    23    18    19   ar
    24    19    20   ar
    25     1    23    1
    26    23    24    2
    27    23    25   am
    28    25    27    1
    29    27    42    1
    30    42    43    1
    31    43    44    1
    32    44    45    1
    33    45    46    1
    34    46    47    1
    35    47    48    1
    36    27    28    1
    37    28    29    2
    38    28    30   am
    39    30    31    1
    40    31    32    1
    41    32    33    1
    42    33    36    1
    43    36    37   ar
    44    37    38   ar
    45    38    39   ar
    46    39    40   ar
    47    40    41   ar
    48    33    34    1
    49    34    35    1
    50    54    55    2
    51    55    56    1
    52    56    57    2
    53    57    58    1
    54    58    59    2
    55    59    60    1
    56    60    52    1
    57    10     5    1
    58    20    15   ar
    59    48    43    1
    60    35    30    1
    61    60    56    1
    62    20     8    1
    63    41    36   ar
    64     2    21    1
    65    14    22    1
    66    25    26    1
    67    46    49    1
@<TRIPOS>MOLECULE
*****
 60 67 0 0 0
SMALL
GASTEIGER

@<TRIPOS>ATOM
      1 C           4.2490   -0.2095   28.2695 C.3     1  UNL1        0.1541
      2 N           4.1020   -0.4684   26.7993 N.am    1  UNL1       -0.2822
      3 C           3.5463    0.5973   25.9019 C.2     1  UNL1        0.3043
      4 O           3.1376    1.9221   26.4746 O.2     1  UNL1       -0.2526
      5 N           3.3993    0.3384   24.4317 N.am    1  UNL1       -0.2640
      6 C           2.8437    1.4042   23.5343 C.3     1  UNL1        0.0989
      7 C           2.6967    1.1452   22.0642 C.3     1  UNL1        0.0662
      8 C           3.1054   -0.1795   21.4915 C.3     1  UNL1        0.1620
      9 C           3.6611   -1.2453   22.3888 C.3     1  UNL1        0.0662
     10 C           3.8080   -0.9863   23.8590 C.3     1  UNL1        0.0989
     11 O           2.5497    0.8863   20.5940 O.3     1  UNL1       -0.4373
     12 C           2.4028    0.6273   19.1239 C.2     1  UNL1        0.4065
     13 O           1.8471    1.6931   18.2264 O.2     1  UNL1       -0.2260
     14 N           2.8115   -0.6974   18.5511 N.am    1  UNL1       -0.2352
     15 C           3.3671   -1.7632   19.4485 C.ar    1  UNL1        0.1358
     16 N           3.7758   -3.0879   18.8758 N.ar    1  UNL1       -0.2291
     17 C           4.3315   -4.1538   19.7732 C.ar    1  UNL1        0.1003
     18 C           4.4784   -3.8948   21.2433 C.ar    1  UNL1        0.0206
     19 C           4.0697   -2.5700   21.8161 C.ar    1  UNL1        0.0034
     20 C           3.5141   -1.5043   20.9187 C.ar    1  UNL1        0.0456
     21 H           4.3702   -1.3379   26.4233 H       1  UNL1        0.1514
     22 H           2.7150   -0.8674   17.5862 H       1  UNL1        0.1596
     23 C           3.1045    0.3696   29.0471 C.2     1  UNL1        0.2410
     24 O           1.9071   -0.4773   29.3622 O.2     1  UNL1       -0.2733
     25 N           3.1572    1.7955   29.5096 N.am    1  UNL1       -0.2970
     26 H           3.9431    2.3513   29.3028 H       1  UNL1        0.1499
     27 C           2.0127    2.3746   30.2872 C.3     1  UNL1        0.1488
     28 C           1.4028    3.6784   29.8653 C.2     1  UNL1        0.2436
     29 O           1.8524    4.9586   30.5048 O.2     1  UNL1       -0.2731
     30 N           0.3432    3.7021   28.8038 N.am    1  UNL1       -0.2747
     31 C          -0.1064    2.4220   28.1643 C.3     1  UNL1        0.1149
     32 C          -1.1660    2.4456   27.1028 C.3     1  UNL1        0.1123
     33 N          -1.7760    3.7494   26.6809 N.pl3   1  UNL1       -0.3040
     34 C          -1.3263    5.0296   27.3204 C.3     1  UNL1        0.1123
     35 C          -0.2667    5.0060   28.3819 C.3     1  UNL1        0.1149
     36 C          -2.8356    3.7731   25.6194 C.ar    1  UNL1        0.0511
     37 C          -2.4512    3.6660   24.1735 C.ar    1  UNL1        0.0352
     38 C          -3.5108    3.6897   23.1120 C.ar    1  UNL1        0.1002
     39 N          -4.9547    3.8204   23.4965 N.ar    1  UNL1       -0.2422
     40 C          -5.3392    3.9274   24.9425 C.ar    1  UNL1        0.1002
     41 C          -4.2796    3.9038   26.0040 C.ar    1  UNL1        0.0352
     42 C           1.4781    1.6500   31.4868 C.3     1  UNL1        0.0291
     43 C           2.3163    1.5285   32.7248 C.3     1  UNL1        0.0049
     44 C           3.3734    0.4679   32.8138 C.3     1  UNL1        0.0172
     45 C           4.2116    0.3464   34.0518 C.3     1  UNL1        0.0686
     46 N           3.9928    1.2856   35.2008 N.3     1  UNL1       -0.2975
     47 C           2.9358    2.3461   35.1118 C.3     1  UNL1        0.0686
     48 C           2.0976    2.4676   33.8738 C.3     1  UNL1        0.0172
     49 H           4.8784    1.7653   35.3618 H       1  UNL1        0.1232
     50 C           5.5404   -0.5297   28.9620 C.3     1  UNL1        0.0553
     51 C           6.7029   -5.2270   27.0689 C.3     1  UNL1        0.0287
     52 C           6.5183   -4.3075   28.2395 C.2     1  UNL1       -0.0163
     53 C           6.1217   -2.8783   28.0154 C.2     1  UNL1       -0.0105
     54 C           5.9370   -1.9588   29.1860 C.2     1  UNL1       -0.0208
     55 C           6.1489   -2.4685   30.5808 C.2     1  UNL1       -0.0046
     56 C           6.5455   -3.8976   30.8049 C.2     1  UNL1        0.0261
     57 C           6.8226   -4.6781   32.0556 C.2     1  UNL1        0.1197
     58 N           7.1785   -6.0800   31.6579 N.2     1  UNL1       -0.1508
     59 N           7.1214   -6.1659   30.1615 N.2     1  UNL1       -0.1677
     60 C           6.7302   -4.8171   29.6343 C.3     1  UNL1        0.1672
@<TRIPOS>BOND
     1    51    52    1
     2    52    53    2
     3    53    54    1
     4    54    50    1
     5     1    50    1
     6     1     2    1
     7     2     3   am
     8     3     4    2
     9     3     5   am
    10     5     6    1
    11     6     7    1
    12     7     8    1
    13     8     9    1
    14     9    10    1
    15     8    11    1
    16    11    12    1
    17    12    13    2
    18    12    14   am
    19    14    15    1
    20    15    16   ar
    21    16    17   ar
    22    17    18   ar
    23    18    19   ar
    24    19    20   ar
    25     1    23    1
    26    23    24    2
    27    23    25   am
    28    25    27    1
    29    27    42    1
    30    42    43    1
    31    43    44    1
    32    44    45    1
    33    45    46    1
    34    46    47    1
    35    47    48    1
    36    27    28    1
    37    28    29    2
    38    28    30   am
    39    30    31    1
    40    31    32    1
    41    32    33    1
    42    33    36    1
    43    36    37   ar
    44    37    38   ar
    45    38    39   ar
    46    39    40   ar
    47    40    41   ar
    48    33    34    1
    49    34    35    1
    50    54    55    2
    51    55    56    1
    52    56    57    2
    53    57    58    1
    54    58    59    2
    55    59    60    1
    56    60    52    1
    57    10     5    1
    58    20    15   ar
    59    48    43    1
    60    35    30    1
    61    60    56    1
    62    20     8    1
    63    41    36   ar
    64     2    21    1
    65    14    22    1
    66    25    26    1
    67    46    49    1
@<TRIPOS>MOLECULE
*****
 60 67 0 0 0
SMALL
GASTEIGER

@<TRIPOS>ATOM
      1 C           1.6594    0.4384   21.6520 C.3     1  UNL1        0.1541
      2 N           0.5257    1.2940   22.1346 N.am    1  UNL1       -0.2822
      3 C          -0.2123    2.1748   21.1706 C.2     1  UNL1        0.3043
      4 O           0.1833    2.2001   19.7239 O.2     1  UNL1       -0.2526
      5 N          -1.3459    3.0305   21.6532 N.am    1  UNL1       -0.2640
      6 C          -2.0839    3.9113   20.6892 C.3     1  UNL1        0.0989
      7 C          -3.2175    4.7669   21.1718 C.3     1  UNL1        0.0662
      8 C          -3.6131    4.7416   22.6184 C.3     1  UNL1        0.1620
      9 C          -2.8751    3.8607   23.5825 C.3     1  UNL1        0.0662
     10 C          -1.7415    3.0052   23.0999 C.3     1  UNL1        0.0989
     11 O          -4.3511    5.6225   21.6544 O.3     1  UNL1       -0.4373
     12 C          -5.4847    6.4780   22.1370 C.2     1  UNL1        0.4065
     13 O          -6.2228    7.3590   21.1729 O.2     1  UNL1       -0.2260
     14 N          -5.8803    6.4527   23.5837 N.am    1  UNL1       -0.2352
     15 C          -5.1423    5.5719   24.5477 C.ar    1  UNL1        0.1358
     16 N          -5.5379    5.5466   25.9944 N.ar    1  UNL1       -0.2291
     17 C          -4.7999    4.6656   26.9585 C.ar    1  UNL1        0.1003
     18 C          -3.6663    3.8101   26.4758 C.ar    1  UNL1        0.0206
     19 C          -3.2707    3.8354   25.0292 C.ar    1  UNL1        0.0034
     20 C          -4.0087    4.7163   24.0651 C.ar    1  UNL1        0.0456
     21 H           0.2660    1.2774   23.0841 H       1  UNL1        0.1514
     22 H          -6.6243    7.0143   23.9004 H       1  UNL1        0.1596
     23 C           2.9668    0.4412   22.3872 C.2     1  UNL1        0.2410
     24 O           3.6627    1.7385   22.6749 O.2     1  UNL1       -0.2733
     25 N           3.5784   -0.8533   22.8347 N.am    1  UNL1       -0.2970
     26 H           3.1217   -1.7048   22.6459 H       1  UNL1        0.1499
     27 C           4.8859   -0.8505   23.5699 C.3     1  UNL1        0.1488
     28 C           5.0030   -1.5447   24.8944 C.2     1  UNL1        0.2436
     29 O           5.7790   -2.8237   25.0048 O.2     1  UNL1       -0.2731
     30 N           4.3443   -0.9600   26.1086 N.am    1  UNL1       -0.2747
     31 C           3.5684    0.3189   25.9982 C.3     1  UNL1        0.1149
     32 C           2.9097    0.9037   27.2124 C.3     1  UNL1        0.1123
     33 N           3.0268    0.2094   28.5369 N.pl3   1  UNL1       -0.3040
     34 C           3.8028   -1.0696   28.6472 C.3     1  UNL1        0.1123
     35 C           4.4615   -1.6543   27.4331 C.3     1  UNL1        0.1149
     36 C           2.3681    0.7942   29.7510 C.ar    1  UNL1        0.0511
     37 C           3.0441    0.7055   31.0871 C.ar    1  UNL1        0.0352
     38 C           2.3854    1.2903   32.3012 C.ar    1  UNL1        0.1002
     39 N           1.0506    1.9636   32.1793 N.ar    1  UNL1       -0.2422
     40 C           0.3745    2.0523   30.8432 C.ar    1  UNL1        0.1002
     41 C           1.0332    1.4675   29.6291 C.ar    1  UNL1        0.0352
     42 C           6.0762   -0.1535   22.9807 C.3     1  UNL1        0.0291
     43 C           6.8821   -0.8231   21.9073 C.3     1  UNL1        0.0049
     44 C           6.7288   -2.2951   21.6625 C.3     1  UNL1        0.0172
     45 C           7.5347   -2.9647   20.5891 C.3     1  UNL1        0.0686
     46 N           8.4938   -2.1624   19.7605 N.3     1  UNL1       -0.2975
     47 C           8.6470   -0.6905   20.0054 C.3     1  UNL1        0.0686
     48 C           7.8412   -0.0208   21.0788 C.3     1  UNL1        0.0172
     49 H           8.2050   -2.2706   18.7883 H       1  UNL1        0.1232
     50 C           1.4855   -0.4200   20.4343 C.3     1  UNL1        0.0553
     51 C           4.4413   -4.3794   18.8259 C.3     1  UNL1        0.0287
     52 C           4.1667   -2.9062   18.8915 C.2     1  UNL1       -0.0163
     53 C           2.9633   -2.3997   19.6301 C.2     1  UNL1       -0.0105
     54 C           2.6888   -0.9265   19.6958 C.2     1  UNL1       -0.0208
     55 C           3.6177    0.0402   19.0228 C.2     1  UNL1       -0.0046
     56 C           4.8210   -0.4663   18.2843 C.2     1  UNL1        0.0261
     57 C           5.9069    0.2417   17.5296 C.2     1  UNL1        0.1197
     58 N           6.8526   -0.7940   16.9975 N.2     1  UNL1       -0.1508
     59 N           6.3511   -2.1420   17.4233 N.2     1  UNL1       -0.1677
     60 C           5.0955   -1.9395   18.2186 C.3     1  UNL1        0.1672
@<TRIPOS>BOND
     1    51    52    1
     2    52    53    2
     3    53    54    1
     4    54    50    1
     5     1    50    1
     6     1     2    1
     7     2     3   am
     8     3     4    2
     9     3     5   am
    10     5     6    1
    11     6     7    1
    12     7     8    1
    13     8     9    1
    14     9    10    1
    15     8    11    1
    16    11    12    1
    17    12    13    2
    18    12    14   am
    19    14    15    1
    20    15    16   ar
    21    16    17   ar
    22    17    18   ar
    23    18    19   ar
    24    19    20   ar
    25     1    23    1
    26    23    24    2
    27    23    25   am
    28    25    27    1
    29    27    42    1
    30    42    43    1
    31    43    44    1
    32    44    45    1
    33    45    46    1
    34    46    47    1
    35    47    48    1
    36    27    28    1
    37    28    29    2
    38    28    30   am
    39    30    31    1
    40    31    32    1
    41    32    33    1
    42    33    36    1
    43    36    37   ar
    44    37    38   ar
    45    38    39   ar
    46    39    40   ar
    47    40    41   ar
    48    33    34    1
    49    34    35    1
    50    54    55    2
    51    55    56    1
    52    56    57    2
    53    57    58    1
    54    58    59    2
    55    59    60    1
    56    60    52    1
    57    10     5    1
    58    20    15   ar
    59    48    43    1
    60    35    30    1
    61    60    56    1
    62    20     8    1
    63    41    36   ar
    64     2    21    1
    65    14    22    1
    66    25    26    1
    67    46    49    1
@<TRIPOS>MOLECULE
*****
 60 67 0 0 0
SMALL
GASTEIGER

@<TRIPOS>ATOM
      1 C          -2.1985    3.5359   26.3597 C.3     1  UNL1        0.1541
      2 N          -1.3350    3.1612   27.5277 N.am    1  UNL1       -0.2822
      3 C          -0.5380    1.8909   27.4942 C.2     1  UNL1        0.3043
      4 O          -0.6045    0.9953   26.2928 O.2     1  UNL1       -0.2526
      5 N           0.3255    1.5162   28.6621 N.am    1  UNL1       -0.2640
      6 C           1.1224    0.2459   28.6286 C.3     1  UNL1        0.0989
      7 C           1.9859   -0.1287   29.7966 C.3     1  UNL1        0.0662
      8 C           2.0523    0.7669   30.9980 C.3     1  UNL1        0.1620
      9 C           1.2554    2.0372   31.0315 C.3     1  UNL1        0.0662
     10 C           0.3919    2.4119   29.8636 C.3     1  UNL1        0.0989
     11 O           2.8494   -0.5034   30.9645 O.3     1  UNL1       -0.4373
     12 C           3.7128   -0.8780   32.1324 C.2     1  UNL1        0.4065
     13 O           4.5098   -2.1484   32.0990 O.2     1  UNL1       -0.2260
     14 N           3.7793    0.0176   33.3338 N.am    1  UNL1       -0.2352
     15 C           2.9823    1.2879   33.3673 C.ar    1  UNL1        0.1358
     16 N           3.0488    2.1835   34.5687 N.ar    1  UNL1       -0.2291
     17 C           2.2518    3.4539   34.6022 C.ar    1  UNL1        0.1003
     18 C           1.3884    3.8285   33.4343 C.ar    1  UNL1        0.0206
     19 C           1.3219    2.9329   32.2329 C.ar    1  UNL1        0.0034
     20 C           2.1188    1.6626   32.1994 C.ar    1  UNL1        0.0456
     21 H          -1.2913    3.7491   28.3162 H       1  UNL1        0.1514
     22 H           4.3460   -0.2283   34.1004 H       1  UNL1        0.1596
     23 C          -1.5684    3.9166   25.0528 C.2     1  UNL1        0.2410
     24 O          -1.6740    5.3266   24.5518 O.2     1  UNL1       -0.2733
     25 N          -0.8328    2.8874   24.2469 N.am    1  UNL1       -0.2970
     26 H          -0.7635    1.9620   24.5757 H       1  UNL1        0.1499
     27 C          -0.2027    3.2681   22.9399 C.3     1  UNL1        0.1488
     28 C          -0.3769    2.3870   21.7386 C.2     1  UNL1        0.2436
     29 O          -1.5092    2.6329   20.7859 O.2     1  UNL1       -0.2731
     30 N           0.5813    1.2600   21.4898 N.am    1  UNL1       -0.2747
     31 C           1.7135    1.0141   22.4424 C.3     1  UNL1        0.1149
     32 C           2.6716   -0.1129   22.1936 C.3     1  UNL1        0.1123
     33 N           2.4975   -0.9940   20.9922 N.pl3   1  UNL1       -0.3040
     34 C           1.3652   -0.7481   20.0396 C.3     1  UNL1        0.1123
     35 C           0.4071    0.3789   20.2883 C.3     1  UNL1        0.1149
     36 C           3.4556   -2.1210   20.7435 C.ar    1  UNL1        0.0511
     37 C           3.4097   -2.8718   19.4458 C.ar    1  UNL1        0.0352
     38 C           4.3678   -3.9988   19.1970 C.ar    1  UNL1        0.1002
     39 N           5.3719   -4.3750   20.2459 N.ar    1  UNL1       -0.2422
     40 C           5.4179   -3.6241   21.5437 C.ar    1  UNL1        0.1002
     41 C           4.4597   -2.4971   21.7925 C.ar    1  UNL1        0.0352
     42 C           0.6015    4.5298   22.8344 C.3     1  UNL1        0.0291
     43 C           0.9098    5.1122   21.4869 C.3     1  UNL1        0.0049
     44 C          -0.0980    5.9841   20.7983 C.3     1  UNL1        0.0172
     45 C           0.2102    6.5665   19.4508 C.3     1  UNL1        0.0686
     46 N           1.5263    6.2770   18.7918 N.3     1  UNL1       -0.2975
     47 C           2.5341    5.4050   19.4804 C.3     1  UNL1        0.0686
     48 C           2.2258    4.8226   20.8279 C.3     1  UNL1        0.0172
     49 H           1.9781    7.1767   18.6285 H       1  UNL1        0.1232
     50 C          -3.6920    3.5300   26.4988 C.3     1  UNL1        0.0553
     51 C          -4.9126    2.8923   21.4884 C.3     1  UNL1        0.0287
     52 C          -5.1667    3.5462   22.8143 C.2     1  UNL1       -0.0163
     53 C          -4.3023    3.2111   23.9936 C.2     1  UNL1       -0.0105
     54 C          -4.5563    3.8649   25.3195 C.2     1  UNL1       -0.0208
     55 C          -5.6747    4.8538   25.4661 C.2     1  UNL1       -0.0046
     56 C          -6.5391    5.1887   24.2868 C.2     1  UNL1        0.0261
     57 C          -7.7063    6.1177   24.1295 C.2     1  UNL1        0.1197
     58 N          -8.1736    6.0380   22.7064 N.2     1  UNL1       -0.1508
     59 N          -7.2952    5.0598   21.9842 N.2     1  UNL1       -0.1677
     60 C          -6.2850    4.5349   22.9609 C.3     1  UNL1        0.1672
@<TRIPOS>BOND
     1    51    52    1
     2    52    53    2
     3    53    54    1
     4    54    50    1
     5     1    50    1
     6     1     2    1
     7     2     3   am
     8     3     4    2
     9     3     5   am
    10     5     6    1
    11     6     7    1
    12     7     8    1
    13     8     9    1
    14     9    10    1
    15     8    11    1
    16    11    12    1
    17    12    13    2
    18    12    14   am
    19    14    15    1
    20    15    16   ar
    21    16    17   ar
    22    17    18   ar
    23    18    19   ar
    24    19    20   ar
    25     1    23    1
    26    23    24    2
    27    23    25   am
    28    25    27    1
    29    27    42    1
    30    42    43    1
    31    43    44    1
    32    44    45    1
    33    45    46    1
    34    46    47    1
    35    47    48    1
    36    27    28    1
    37    28    29    2
    38    28    30   am
    39    30    31    1
    40    31    32    1
    41    32    33    1
    42    33    36    1
    43    36    37   ar
    44    37    38   ar
    45    38    39   ar
    46    39    40   ar
    47    40    41   ar
    48    33    34    1
    49    34    35    1
    50    54    55    2
    51    55    56    1
    52    56    57    2
    53    57    58    1
    54    58    59    2
    55    59    60    1
    56    60    52    1
    57    10     5    1
    58    20    15   ar
    59    48    43    1
    60    35    30    1
    61    60    56    1
    62    20     8    1
    63    41    36   ar
    64     2    21    1
    65    14    22    1
    66    25    26    1
    67    46    49    1
@<TRIPOS>MOLECULE
*****
 60 67 0 0 0
SMALL
GASTEIGER

@<TRIPOS>ATOM
      1 C          -2.0566    3.4326   25.4362 C.3     1  UNL1        0.1541
      2 N          -1.3100    3.1318   26.7020 N.am    1  UNL1       -0.2822
      3 C          -0.4571    1.9015   26.7954 C.2     1  UNL1        0.3043
      4 O          -0.3506    0.9719   25.6230 O.2     1  UNL1       -0.2526
      5 N           0.2895    1.6007   28.0612 N.am    1  UNL1       -0.2640
      6 C           1.1424    0.3704   28.1546 C.3     1  UNL1        0.0989
      7 C           1.8889    0.0697   29.4204 C.3     1  UNL1        0.0662
      8 C           1.7825    0.9994   30.5928 C.3     1  UNL1        0.1620
      9 C           0.9296    2.2297   30.4994 C.3     1  UNL1        0.0662
     10 C           0.1831    2.5304   29.2336 C.3     1  UNL1        0.0989
     11 O           2.6355   -0.2310   30.6863 O.3     1  UNL1       -0.4373
     12 C           3.3820   -0.5317   31.9521 C.2     1  UNL1        0.4065
     13 O           4.2350   -1.7621   32.0455 O.2     1  UNL1       -0.2260
     14 N           3.2756    0.3979   33.1244 N.am    1  UNL1       -0.2352
     15 C           2.4226    1.6282   33.0310 C.ar    1  UNL1        0.1358
     16 N           2.3162    2.5579   34.2034 N.ar    1  UNL1       -0.2291
     17 C           1.4632    3.7882   34.1100 C.ar    1  UNL1        0.1003
     18 C           0.7167    4.0889   32.8442 C.ar    1  UNL1        0.0206
     19 C           0.8231    3.1593   31.6718 C.ar    1  UNL1        0.0034
     20 C           1.6761    1.9290   31.7652 C.ar    1  UNL1        0.0456
     21 H          -1.3799    3.7419   27.4715 H       1  UNL1        0.1514
     22 H           3.7656    0.2005   33.9552 H       1  UNL1        0.1596
     23 C          -1.3197    3.9466   24.2350 C.2     1  UNL1        0.2410
     24 O          -0.8725    5.3776   24.1851 O.2     1  UNL1       -0.2733
     25 N          -1.0302    3.0298   23.0837 N.am    1  UNL1       -0.2970
     26 H          -1.3237    2.0906   23.1164 H       1  UNL1        0.1499
     27 C          -0.2933    3.5438   21.8825 C.3     1  UNL1        0.1488
     28 C           1.2019    3.4424   21.8198 C.2     1  UNL1        0.2436
     29 O           2.0466    4.6606   22.0493 O.2     1  UNL1       -0.2731
     30 N           1.8525    2.1229   21.5274 N.am    1  UNL1       -0.2747
     31 C           1.0080    0.9047   21.2979 C.3     1  UNL1        0.1149
     32 C           1.6586   -0.4148   21.0055 C.3     1  UNL1        0.1123
     33 N           3.1538   -0.5162   20.9428 N.pl3   1  UNL1       -0.3040
     34 C           3.9985    0.7020   21.1723 C.3     1  UNL1        0.1123
     35 C           3.3479    2.0215   21.4647 C.3     1  UNL1        0.1149
     36 C           3.8045   -1.8358   20.6504 C.ar    1  UNL1        0.0511
     37 C           4.9660   -2.2991   21.4787 C.ar    1  UNL1        0.0352
     38 C           5.6166   -3.6187   21.1864 C.ar    1  UNL1        0.1002
     39 N           5.1058   -4.4749   20.0658 N.ar    1  UNL1       -0.2422
     40 C           3.9442   -4.0115   19.2374 C.ar    1  UNL1        0.1002
     41 C           3.2935   -2.6920   19.5297 C.ar    1  UNL1        0.0352
     42 C          -1.0517    4.1592   20.7441 C.3     1  UNL1        0.0291
     43 C          -2.5393    4.3272   20.8377 C.3     1  UNL1        0.0049
     44 C          -3.4490    3.2336   20.3616 C.3     1  UNL1        0.0172
     45 C          -4.9366    3.4015   20.4552 C.3     1  UNL1        0.0686
     46 N          -5.5146    4.6631   21.0249 N.3     1  UNL1       -0.2975
     47 C          -4.6049    5.7566   21.5010 C.3     1  UNL1        0.0686
     48 C          -3.1173    5.5887   21.4074 C.3     1  UNL1        0.0172
     49 H          -6.0890    4.3900   21.8223 H       1  UNL1        0.1232
     50 C          -3.5399    3.2193   25.3716 C.3     1  UNL1        0.0553
     51 C          -4.6028    7.3060   28.3996 C.3     1  UNL1        0.0287
     52 C          -5.0056    6.3566   27.3104 C.2     1  UNL1       -0.0163
     53 C          -4.0713    5.2626   26.8856 C.2     1  UNL1       -0.0105
     54 C          -4.4741    4.3133   25.7963 C.2     1  UNL1       -0.0208
     55 C          -5.8111    4.4579   25.1319 C.2     1  UNL1       -0.0046
     56 C          -6.7453    5.5519   25.5566 C.2     1  UNL1        0.0261
     57 C          -8.1169    5.9387   25.0884 C.2     1  UNL1        0.1197
     58 N          -8.5618    7.1271   25.8883 N.2     1  UNL1       -0.1508
     59 N          -7.4652    7.4747   26.8509 N.2     1  UNL1       -0.1677
     60 C          -6.3425    6.5013   26.6459 C.3     1  UNL1        0.1672
@<TRIPOS>BOND
     1    51    52    1
     2    52    53    2
     3    53    54    1
     4    54    50    1
     5     1    50    1
     6     1     2    1
     7     2     3   am
     8     3     4    2
     9     3     5   am
    10     5     6    1
    11     6     7    1
    12     7     8    1
    13     8     9    1
    14     9    10    1
    15     8    11    1
    16    11    12    1
    17    12    13    2
    18    12    14   am
    19    14    15    1
    20    15    16   ar
    21    16    17   ar
    22    17    18   ar
    23    18    19   ar
    24    19    20   ar
    25     1    23    1
    26    23    24    2
    27    23    25   am
    28    25    27    1
    29    27    42    1
    30    42    43    1
    31    43    44    1
    32    44    45    1
    33    45    46    1
    34    46    47    1
    35    47    48    1
    36    27    28    1
    37    28    29    2
    38    28    30   am
    39    30    31    1
    40    31    32    1
    41    32    33    1
    42    33    36    1
    43    36    37   ar
    44    37    38   ar
    45    38    39   ar
    46    39    40   ar
    47    40    41   ar
    48    33    34    1
    49    34    35    1
    50    54    55    2
    51    55    56    1
    52    56    57    2
    53    57    58    1
    54    58    59    2
    55    59    60    1
    56    60    52    1
    57    10     5    1
    58    20    15   ar
    59    48    43    1
    60    35    30    1
    61    60    56    1
    62    20     8    1
    63    41    36   ar
    64     2    21    1
    65    14    22    1
    66    25    26    1
    67    46    49    1
@<TRIPOS>MOLECULE
*****
 60 67 0 0 0
SMALL
GASTEIGER

@<TRIPOS>ATOM
      1 C           0.9700    0.3396   20.5853 C.3     1  UNL1        0.1541
      2 N           1.0192    0.6192   22.0582 N.am    1  UNL1       -0.2822
      3 C           2.1323    1.4479   22.6275 C.2     1  UNL1        0.3043
      4 O           3.1963    1.9970   21.7240 O.2     1  UNL1       -0.2526
      5 N           2.1816    1.7275   24.1005 N.am    1  UNL1       -0.2640
      6 C           3.2947    2.5562   24.6698 C.3     1  UNL1        0.0989
      7 C           3.3438    2.8358   26.1426 C.3     1  UNL1        0.0662
      8 C           2.2799    2.2867   27.0462 C.3     1  UNL1        0.1620
      9 C           1.1667    1.4580   26.4769 C.3     1  UNL1        0.0662
     10 C           1.1176    1.1784   25.0040 C.3     1  UNL1        0.0989
     11 O           3.3931    3.1154   27.6156 O.3     1  UNL1       -0.4373
     12 C           3.4422    3.3950   29.0884 C.2     1  UNL1        0.4065
     13 O           4.5554    4.2237   29.6578 O.2     1  UNL1       -0.2260
     14 N           2.3783    2.8458   29.9920 N.am    1  UNL1       -0.2352
     15 C           1.2651    2.0171   29.4227 C.ar    1  UNL1        0.1358
     16 N           0.2012    1.4680   30.3263 N.ar    1  UNL1       -0.2291
     17 C          -0.9120    0.6393   29.7569 C.ar    1  UNL1        0.1003
     18 C          -0.9612    0.3597   28.2840 C.ar    1  UNL1        0.0206
     19 C           0.1028    0.9088   27.3805 C.ar    1  UNL1        0.0034
     20 C           1.2159    1.7375   27.9498 C.ar    1  UNL1        0.0456
     21 H           0.3209    0.2588   22.6513 H       1  UNL1        0.1514
     22 H           2.4105    3.0293   30.9587 H       1  UNL1        0.1596
     23 C           0.6271    1.4390   19.6242 C.2     1  UNL1        0.2410
     24 O           0.5573    1.1545   18.1531 O.2     1  UNL1       -0.2733
     25 N           0.3541    2.8230   20.1343 N.am    1  UNL1       -0.2970
     26 H           0.4000    3.0097   21.0998 H       1  UNL1        0.1499
     27 C           0.0113    3.9224   19.1733 C.3     1  UNL1        0.1488
     28 C          -1.3492    3.9708   18.5433 C.2     1  UNL1        0.2436
     29 O          -1.5057    3.7060   17.0752 O.2     1  UNL1       -0.2731
     30 N          -2.5531    4.2839   19.3815 N.am    1  UNL1       -0.2747
     31 C          -2.3966    4.5487   20.8496 C.3     1  UNL1        0.1149
     32 C          -3.6005    4.8618   21.6878 C.3     1  UNL1        0.1123
     33 N          -4.9609    4.9101   21.0579 N.pl3   1  UNL1       -0.3040
     34 C          -5.1175    4.6454   19.5897 C.3     1  UNL1        0.1123
     35 C          -3.9136    4.3323   18.7515 C.3     1  UNL1        0.1149
     36 C          -6.1648    5.2233   21.8961 C.ar    1  UNL1        0.0511
     37 C          -6.7883    6.5861   21.8336 C.ar    1  UNL1        0.0352
     38 C          -7.9922    6.8992   22.6718 C.ar    1  UNL1        0.1002
     39 N          -8.5727    5.8495   23.5724 N.ar    1  UNL1       -0.2422
     40 C          -7.9492    4.4866   23.6349 C.ar    1  UNL1        0.1002
     41 C          -6.7453    4.1735   22.7967 C.ar    1  UNL1        0.0352
     42 C           1.0288    4.9735   18.8421 C.3     1  UNL1        0.0291
     43 C           2.4795    4.7326   19.1378 C.3     1  UNL1        0.0049
     44 C           3.2840    3.8247   18.2553 C.3     1  UNL1        0.0172
     45 C           4.7347    3.5837   18.5510 C.3     1  UNL1        0.0686
     46 N           5.3809    4.2506   19.7290 N.3     1  UNL1       -0.2975
     47 C           4.5764    5.1585   20.6114 C.3     1  UNL1        0.0686
     48 C           3.1257    5.3994   20.3157 C.3     1  UNL1        0.0172
     49 H           6.1561    4.8048   19.3650 H       1  UNL1        0.1232
     50 C           1.2637   -1.0394   20.0735 C.3     1  UNL1        0.0553
     51 C           5.0013   -4.4449   18.8764 C.3     1  UNL1        0.0287
     52 C           4.4648   -3.0443   18.8555 C.2     1  UNL1       -0.0163
     53 C           3.1324   -2.7422   19.4749 C.2     1  UNL1       -0.0105
     54 C           2.5959   -1.3416   19.4541 C.2     1  UNL1       -0.0208
     55 C           3.3918   -0.2431   18.8138 C.2     1  UNL1       -0.0046
     56 C           4.7241   -0.5452   18.1944 C.2     1  UNL1        0.0261
     57 C           5.7269    0.3249   17.4962 C.2     1  UNL1        0.1197
     58 N           6.8831   -0.5380   17.0856 N.2     1  UNL1       -0.1508
     59 N           6.5949   -1.9413   17.5300 N.2     1  UNL1       -0.1677
     60 C           5.2606   -1.9458   18.2152 C.3     1  UNL1        0.1672
@<TRIPOS>BOND
     1    51    52    1
     2    52    53    2
     3    53    54    1
     4    54    50    1
     5     1    50    1
     6     1     2    1
     7     2     3   am
     8     3     4    2
     9     3     5   am
    10     5     6    1
    11     6     7    1
    12     7     8    1
    13     8     9    1
    14     9    10    1
    15     8    11    1
    16    11    12    1
    17    12    13    2
    18    12    14   am
    19    14    15    1
    20    15    16   ar
    21    16    17   ar
    22    17    18   ar
    23    18    19   ar
    24    19    20   ar
    25     1    23    1
    26    23    24    2
    27    23    25   am
    28    25    27    1
    29    27    42    1
    30    42    43    1
    31    43    44    1
    32    44    45    1
    33    45    46    1
    34    46    47    1
    35    47    48    1
    36    27    28    1
    37    28    29    2
    38    28    30   am
    39    30    31    1
    40    31    32    1
    41    32    33    1
    42    33    36    1
    43    36    37   ar
    44    37    38   ar
    45    38    39   ar
    46    39    40   ar
    47    40    41   ar
    48    33    34    1
    49    34    35    1
    50    54    55    2
    51    55    56    1
    52    56    57    2
    53    57    58    1
    54    58    59    2
    55    59    60    1
    56    60    52    1
    57    10     5    1
    58    20    15   ar
    59    48    43    1
    60    35    30    1
    61    60    56    1
    62    20     8    1
    63    41    36   ar
    64     2    21    1
    65    14    22    1
    66    25    26    1
    67    46    49    1
