@<TRIPOS>MOLECULE
*****
 33 36 0 0 0
SMALL
GASTEIGER

@<TRIPOS>ATOM
      1 C          -8.8090  -19.7030   20.2290 C.ar    1  UNL1       -0.0227
      2 C          -9.3941  -19.8917   21.5973 C.ar    1  UNL1       -0.0050
      3 C          -8.5008  -19.8853   22.8023 C.ar    1  UNL1        0.0208
      4 C          -7.0225  -19.6903   22.6390 C.ar    1  UNL1       -0.0007
      5 C          -6.4375  -19.5017   21.2708 C.ar    1  UNL1       -0.0005
      6 C          -7.3307  -19.5080   20.0658 C.ar    1  UNL1       -0.0043
      7 C          -4.9592  -19.3066   21.1075 C.ar    1  UNL1       -0.0001
      8 C          -4.0096  -19.9008   22.1051 C.ar    1  UNL1        0.0031
      9 C          -2.5313  -19.7057   21.9418 C.ar    1  UNL1        0.0366
     10 C          -2.0027  -18.9166   20.7808 C.ar    1  UNL1        0.1360
     11 C          -2.9523  -18.3225   19.7832 C.ar    1  UNL1        0.0294
     12 C          -4.4305  -18.5175   19.9465 C.ar    1  UNL1        0.0001
     13 C          -2.1437  -17.5985   18.7478 C.3     1  UNL1        0.1208
     14 N          -2.6888  -16.8579   17.5628 N.3     1  UNL1       -0.3157
     15 C          -0.6944  -17.7452   19.1055 C.3     1  UNL1        0.2253
     16 O          -0.6072  -18.5598   20.3620 O.3     1  UNL1       -0.4739
     17 H          -3.7070  -16.9188   17.5627 H       1  UNL1        0.1192
     18 H          -2.3233  -17.2723   16.7054 H       1  UNL1        0.1192
     19 C         -10.9678  -18.9040   19.0243 C.3     1  UNL1        0.0047
     20 C          -9.7023  -19.7094   19.0240 C.3     1  UNL1        0.0223
     21 C          -9.3301  -20.5210   17.8188 C.3     1  UNL1        0.0047
     22 C          -9.0858  -20.0740   24.1706 C.3     1  UNL1        0.2320
     23 O          -9.8098  -18.9431   24.8392 O.3     1  UNL1       -0.4710
     24 C         -10.7279  -18.0648   24.0421 C.ar    1  UNL1        0.1354
     25 C         -12.1121  -18.5354   23.7066 C.ar    1  UNL1        0.0366
     26 C         -13.0304  -17.6570   22.9095 C.ar    1  UNL1        0.0031
     27 C         -12.5643  -16.3081   22.4478 C.ar    1  UNL1       -0.0001
     28 C         -11.1801  -15.8375   22.7832 C.ar    1  UNL1       -0.0009
     29 C         -10.2619  -16.7158   23.5803 C.ar    1  UNL1        0.0174
     30 C          -8.8777  -16.2452   23.9158 C.3     1  UNL1        0.0710
     31 C          -7.8120  -16.2370   22.8603 C.2     1  UNL1        0.0548
     32 O          -6.3706  -16.0970   23.2510 O.co2   1  UNL1       -0.5488
     33 O          -8.1877  -16.3688   21.4141 O.co2   1  UNL1       -0.5488
@<TRIPOS>UNITY_ATOM_ATTR
32 1
charge -1
@<TRIPOS>BOND
     1    19    20    1
     2    20    21    1
     3    20     1    1
     4     1     2   ar
     5     2     3   ar
     6     3    22    1
     7    22    23    1
     8    23    24    1
     9    24    25   ar
    10    25    26   ar
    11    26    27   ar
    12    27    28   ar
    13    28    29   ar
    14    29    30    1
    15    30    31    1
    16    31    32   ar
    17    31    33   ar
    18     3     4   ar
    19     4     5   ar
    20     5     7    1
    21     7     8   ar
    22     8     9   ar
    23     9    10   ar
    24    10    11   ar
    25    11    12   ar
    26    11    13    1
    27    13    14    1
    28    13    15    1
    29    15    16    1
    30     5     6   ar
    31     6     1   ar
    32    29    24   ar
    33    12     7   ar
    34    16    10    1
    35    14    17    1
    36    14    18    1
@<TRIPOS>MOLECULE
*****
 33 36 0 0 0
SMALL
GASTEIGER

@<TRIPOS>ATOM
      1 C          -9.3899  -19.4968   20.4145 C.ar    1  UNL1       -0.0227
      2 C          -9.8749  -19.7630   21.8088 C.ar    1  UNL1       -0.0050
      3 C          -8.8880  -19.9700   22.9193 C.ar    1  UNL1        0.0208
      4 C          -7.4162  -19.9109   22.6355 C.ar    1  UNL1       -0.0007
      5 C          -6.9314  -19.6448   21.2412 C.ar    1  UNL1       -0.0005
      6 C          -7.9182  -19.4378   20.1307 C.ar    1  UNL1       -0.0043
      7 C          -5.4596  -19.5857   20.9574 C.ar    1  UNL1       -0.0001
      8 C          -4.7716  -20.7551   20.3177 C.ar    1  UNL1        0.0031
      9 C          -3.2999  -20.6959   20.0340 C.ar    1  UNL1        0.0366
     10 C          -2.5162  -19.4675   20.3898 C.ar    1  UNL1        0.1360
     11 C          -3.2042  -18.2981   21.0295 C.ar    1  UNL1        0.0294
     12 C          -4.6759  -18.3572   21.3133 C.ar    1  UNL1        0.0001
     13 C          -2.1784  -17.2298   21.2667 C.3     1  UNL1        0.1208
     14 N          -2.4304  -15.8879   21.8879 N.3     1  UNL1       -0.3157
     15 C          -0.8564  -17.7388   20.7736 C.3     1  UNL1        0.2253
     16 O          -1.0651  -19.1218   20.2317 O.3     1  UNL1       -0.4739
     17 H          -3.4178  -15.8054   22.1300 H       1  UNL1        0.1192
     18 H          -2.1804  -15.1540   21.2251 H       1  UNL1        0.1192
     19 C         -10.3184  -20.1525   18.0782 C.3     1  UNL1        0.0047
     20 C         -10.3768  -19.2898   19.3039 C.3     1  UNL1        0.0223
     21 C         -11.4220  -18.2202   19.4192 C.3     1  UNL1        0.0047
     22 C          -9.3728  -20.2361   24.3136 C.3     1  UNL1        0.2320
     23 O         -10.1907  -19.2047   25.0329 O.3     1  UNL1       -0.4710
     24 C          -9.5738  -17.8925   25.4168 C.ar    1  UNL1        0.1354
     25 C          -8.9354  -17.7296   26.7644 C.ar    1  UNL1        0.0366
     26 C          -8.3184  -16.4173   27.1483 C.ar    1  UNL1        0.0031
     27 C          -8.3400  -15.2680   26.1847 C.ar    1  UNL1       -0.0001
     28 C          -8.9784  -15.4309   24.8371 C.ar    1  UNL1       -0.0009
     29 C          -9.5953  -16.7431   24.4532 C.ar    1  UNL1        0.0174
     30 C         -10.2337  -16.9061   23.1057 C.3     1  UNL1        0.0710
     31 C         -11.7246  -16.8171   22.9664 C.2     1  UNL1        0.0548
     32 O         -12.3724  -15.4977   22.6674 O.co2   1  UNL1       -0.5488
     33 O         -12.5675  -18.0476   23.1260 O.co2   1  UNL1       -0.5488
@<TRIPOS>UNITY_ATOM_ATTR
32 1
charge -1
@<TRIPOS>BOND
     1    19    20    1
     2    20    21    1
     3    20     1    1
     4     1     2   ar
     5     2     3   ar
     6     3    22    1
     7    22    23    1
     8    23    24    1
     9    24    25   ar
    10    25    26   ar
    11    26    27   ar
    12    27    28   ar
    13    28    29   ar
    14    29    30    1
    15    30    31    1
    16    31    32   ar
    17    31    33   ar
    18     3     4   ar
    19     4     5   ar
    20     5     7    1
    21     7     8   ar
    22     8     9   ar
    23     9    10   ar
    24    10    11   ar
    25    11    12   ar
    26    11    13    1
    27    13    14    1
    28    13    15    1
    29    15    16    1
    30     5     6   ar
    31     6     1   ar
    32    29    24   ar
    33    12     7   ar
    34    16    10    1
    35    14    17    1
    36    14    18    1
@<TRIPOS>MOLECULE
*****
 33 36 0 0 0
SMALL
GASTEIGER

@<TRIPOS>ATOM
      1 C          -7.1435  -15.4801   26.0166 C.ar    1  UNL1       -0.0227
      2 C          -5.7961  -15.8094   25.4456 C.ar    1  UNL1       -0.0050
      3 C          -5.6839  -16.3451   24.0491 C.ar    1  UNL1        0.0208
      4 C          -6.9192  -16.5515   23.2235 C.ar    1  UNL1       -0.0007
      5 C          -8.2666  -16.2222   23.7945 C.ar    1  UNL1       -0.0005
      6 C          -8.3788  -15.6865   25.1911 C.ar    1  UNL1       -0.0043
      7 C          -9.5019  -16.4287   22.9690 C.ar    1  UNL1       -0.0001
      8 C         -10.6202  -17.2802   23.4925 C.ar    1  UNL1        0.0031
      9 C         -11.8555  -17.4866   22.6670 C.ar    1  UNL1        0.0366
     10 C         -11.9724  -16.8414   21.3179 C.ar    1  UNL1        0.1360
     11 C         -10.8540  -15.9899   20.7943 C.ar    1  UNL1        0.0294
     12 C          -9.6188  -15.7835   21.6199 C.ar    1  UNL1        0.0001
     13 C         -11.2509  -15.4858   19.4384 C.3     1  UNL1        0.1208
     14 N         -10.4286  -14.5976   18.5525 N.3     1  UNL1       -0.3157
     15 C         -12.6146  -16.0259   19.1240 C.3     1  UNL1        0.2253
     16 O         -13.0605  -16.8637   20.2855 O.3     1  UNL1       -0.4739
     17 H          -9.5446  -14.3821   19.0136 H       1  UNL1        0.1192
     18 H         -10.9376  -13.7324   18.3718 H       1  UNL1        0.1192
     19 C          -6.2019  -14.0212   27.9493 C.3     1  UNL1        0.0047
     20 C          -7.2557  -14.9444   27.4132 C.3     1  UNL1        0.0223
     21 C          -8.4216  -15.3318   28.2737 C.3     1  UNL1        0.0047
     22 C          -4.3366  -16.6744   23.4780 C.3     1  UNL1        0.2320
     23 O          -3.8621  -18.0970   23.4478 O.3     1  UNL1       -0.4710
     24 C          -4.2419  -18.9902   22.3042 C.ar    1  UNL1        0.1354
     25 C          -5.6178  -19.5844   22.2415 C.ar    1  UNL1        0.0366
     26 C          -5.9976  -20.4776   21.0978 C.ar    1  UNL1        0.0031
     27 C          -5.0016  -20.7766   20.0169 C.ar    1  UNL1       -0.0001
     28 C          -3.6257  -20.1824   20.0796 C.ar    1  UNL1       -0.0009
     29 C          -3.2459  -19.2893   21.2232 C.ar    1  UNL1        0.0174
     30 C          -1.8700  -18.6951   21.2859 C.3     1  UNL1        0.0710
     31 C          -1.1420  -18.3538   20.0196 C.2     1  UNL1        0.0548
     32 O           0.1943  -18.9719   19.7329 O.co2   1  UNL1       -0.5488
     33 O          -1.7503  -17.3944   19.0400 O.co2   1  UNL1       -0.5488
@<TRIPOS>UNITY_ATOM_ATTR
32 1
charge -1
@<TRIPOS>BOND
     1    19    20    1
     2    20    21    1
     3    20     1    1
     4     1     2   ar
     5     2     3   ar
     6     3    22    1
     7    22    23    1
     8    23    24    1
     9    24    25   ar
    10    25    26   ar
    11    26    27   ar
    12    27    28   ar
    13    28    29   ar
    14    29    30    1
    15    30    31    1
    16    31    32   ar
    17    31    33   ar
    18     3     4   ar
    19     4     5   ar
    20     5     7    1
    21     7     8   ar
    22     8     9   ar
    23     9    10   ar
    24    10    11   ar
    25    11    12   ar
    26    11    13    1
    27    13    14    1
    28    13    15    1
    29    15    16    1
    30     5     6   ar
    31     6     1   ar
    32    29    24   ar
    33    12     7   ar
    34    16    10    1
    35    14    17    1
    36    14    18    1
@<TRIPOS>MOLECULE
*****
 33 36 0 0 0
SMALL
GASTEIGER

@<TRIPOS>ATOM
      1 C          -5.6355  -19.1845   20.6901 C.ar    1  UNL1       -0.0227
      2 C          -6.7413  -19.5781   19.7561 C.ar    1  UNL1       -0.0050
      3 C          -8.1664  -19.2711   20.1096 C.ar    1  UNL1        0.0208
      4 C          -8.4856  -18.5707   21.3971 C.ar    1  UNL1       -0.0007
      5 C          -7.3798  -18.1772   22.3310 C.ar    1  UNL1       -0.0005
      6 C          -5.9547  -18.4841   21.9775 C.ar    1  UNL1       -0.0043
      7 C          -7.6990  -17.4768   23.6185 C.ar    1  UNL1       -0.0001
      8 C          -9.0130  -17.7212   24.2995 C.ar    1  UNL1        0.0031
      9 C          -9.3321  -17.0208   25.5869 C.ar    1  UNL1        0.0366
     10 C          -8.3374  -16.0759   26.1933 C.ar    1  UNL1        0.1360
     11 C          -7.0234  -15.8315   25.5123 C.ar    1  UNL1        0.0294
     12 C          -6.7043  -16.5319   24.2249 C.ar    1  UNL1        0.0001
     13 C          -6.2465  -14.8526   26.3418 C.3     1  UNL1        0.1208
     14 N          -4.8763  -14.3266   26.0319 N.3     1  UNL1       -0.3157
     15 C          -7.0802  -14.4920   27.5355 C.3     1  UNL1        0.2253
     16 O          -8.3725  -15.2480   27.4437 O.3     1  UNL1       -0.4739
     17 H          -4.5433  -14.7382   25.1601 H       1  UNL1        0.1192
     18 H          -4.2386  -14.5721   26.7892 H       1  UNL1        0.1192
     19 C          -3.1399  -18.4698   20.5826 C.3     1  UNL1        0.0047
     20 C          -4.2104  -19.4915   20.3366 C.3     1  UNL1        0.0223
     21 C          -3.8558  -20.8199   19.7372 C.3     1  UNL1        0.0047
     22 C          -9.2722  -19.6646   19.1756 C.3     1  UNL1        0.2320
     23 O         -10.6508  -19.1055   19.3678 O.3     1  UNL1       -0.4710
     24 C         -11.1908  -18.9005   20.7521 C.ar    1  UNL1        0.1354
     25 C         -11.0762  -19.9949   21.7715 C.ar    1  UNL1        0.0366
     26 C         -11.6163  -19.7899   23.1558 C.ar    1  UNL1        0.0031
     27 C         -12.2709  -18.4906   23.5207 C.ar    1  UNL1       -0.0001
     28 C         -12.3855  -17.3962   22.5013 C.ar    1  UNL1       -0.0009
     29 C         -11.8455  -17.6011   21.1170 C.ar    1  UNL1        0.0174
     30 C         -11.9600  -16.5067   20.0976 C.3     1  UNL1        0.0710
     31 C         -10.8153  -15.5625   19.8791 C.2     1  UNL1        0.0548
     32 O         -10.7199  -14.7825   18.6014 O.co2   1  UNL1       -0.5488
     33 O          -9.7659  -15.3982   20.9382 O.co2   1  UNL1       -0.5488
@<TRIPOS>UNITY_ATOM_ATTR
32 1
charge -1
@<TRIPOS>BOND
     1    19    20    1
     2    20    21    1
     3    20     1    1
     4     1     2   ar
     5     2     3   ar
     6     3    22    1
     7    22    23    1
     8    23    24    1
     9    24    25   ar
    10    25    26   ar
    11    26    27   ar
    12    27    28   ar
    13    28    29   ar
    14    29    30    1
    15    30    31    1
    16    31    32   ar
    17    31    33   ar
    18     3     4   ar
    19     4     5   ar
    20     5     7    1
    21     7     8   ar
    22     8     9   ar
    23     9    10   ar
    24    10    11   ar
    25    11    12   ar
    26    11    13    1
    27    13    14    1
    28    13    15    1
    29    15    16    1
    30     5     6   ar
    31     6     1   ar
    32    29    24   ar
    33    12     7   ar
    34    16    10    1
    35    14    17    1
    36    14    18    1
@<TRIPOS>MOLECULE
*****
 33 36 0 0 0
SMALL
GASTEIGER

@<TRIPOS>ATOM
      1 C          -7.1558  -15.3175   26.1196 C.ar    1  UNL1       -0.0227
      2 C          -5.7858  -15.6039   25.5800 C.ar    1  UNL1       -0.0050
      3 C          -5.6258  -16.1562   24.1946 C.ar    1  UNL1        0.0208
      4 C          -6.8358  -16.4221   23.3487 C.ar    1  UNL1       -0.0007
      5 C          -8.2057  -16.1356   23.8883 C.ar    1  UNL1       -0.0005
      6 C          -8.3657  -15.5833   25.2737 C.ar    1  UNL1       -0.0043
      7 C          -9.4157  -16.4015   23.0425 C.ar    1  UNL1       -0.0001
      8 C         -10.4911  -17.3213   23.5399 C.ar    1  UNL1        0.0031
      9 C         -11.7010  -17.5871   22.6941 C.ar    1  UNL1        0.0366
     10 C         -11.8355  -16.9331   21.3509 C.ar    1  UNL1        0.1360
     11 C         -10.7601  -16.0133   20.8535 C.ar    1  UNL1        0.0294
     12 C          -9.5502  -15.7475   21.6993 C.ar    1  UNL1        0.0001
     13 C         -11.1660  -15.5159   19.4978 C.3     1  UNL1        0.1208
     14 N         -10.3831  -14.5718   18.6343 N.3     1  UNL1       -0.3157
     15 C         -12.4923  -16.1283   19.1574 C.3     1  UNL1        0.2253
     16 O         -12.9061  -17.0042   20.3026 O.3     1  UNL1       -0.4739
     17 H          -9.5193  -14.3123   19.1106 H       1  UNL1        0.1192
     18 H         -10.9378  -13.7347   18.4560 H       1  UNL1        0.1192
     19 C          -8.5535  -15.0705   28.2957 C.3     1  UNL1        0.0047
     20 C          -7.3159  -14.7652   27.5050 C.3     1  UNL1        0.0223
     21 C          -6.2384  -13.9076   28.0996 C.3     1  UNL1        0.0047
     22 C          -4.2559  -16.4426   23.6550 C.3     1  UNL1        0.2320
     23 O          -3.9069  -17.8254   23.1899 O.3     1  UNL1       -0.4710
     24 C          -3.3502  -18.0354   21.8130 C.ar    1  UNL1        0.1354
     25 C          -2.1877  -17.2136   21.3406 C.ar    1  UNL1        0.0366
     26 C          -1.6310  -17.4237   19.9636 C.ar    1  UNL1        0.0031
     27 C          -2.2368  -18.4555   19.0591 C.ar    1  UNL1       -0.0001
     28 C          -3.3994  -19.2773   19.5315 C.ar    1  UNL1       -0.0009
     29 C          -3.9561  -19.0673   20.9084 C.ar    1  UNL1        0.0174
     30 C          -5.1187  -19.8890   21.3807 C.3     1  UNL1        0.0710
     31 C          -6.5068  -19.3227   21.3313 C.2     1  UNL1        0.0548
     32 O          -7.5064  -19.6944   22.3861 O.co2   1  UNL1       -0.5488
     33 O          -6.8952  -18.3846   20.2272 O.co2   1  UNL1       -0.5488
@<TRIPOS>UNITY_ATOM_ATTR
32 1
charge -1
@<TRIPOS>BOND
     1    19    20    1
     2    20    21    1
     3    20     1    1
     4     1     2   ar
     5     2     3   ar
     6     3    22    1
     7    22    23    1
     8    23    24    1
     9    24    25   ar
    10    25    26   ar
    11    26    27   ar
    12    27    28   ar
    13    28    29   ar
    14    29    30    1
    15    30    31    1
    16    31    32   ar
    17    31    33   ar
    18     3     4   ar
    19     4     5   ar
    20     5     7    1
    21     7     8   ar
    22     8     9   ar
    23     9    10   ar
    24    10    11   ar
    25    11    12   ar
    26    11    13    1
    27    13    14    1
    28    13    15    1
    29    15    16    1
    30     5     6   ar
    31     6     1   ar
    32    29    24   ar
    33    12     7   ar
    34    16    10    1
    35    14    17    1
    36    14    18    1
@<TRIPOS>MOLECULE
*****
 33 36 0 0 0
SMALL
GASTEIGER

@<TRIPOS>ATOM
      1 C          -5.1304  -19.0156   20.7909 C.ar    1  UNL1       -0.0227
      2 C          -6.1638  -19.4777   19.8066 C.ar    1  UNL1       -0.0050
      3 C          -7.6174  -19.2127   20.0654 C.ar    1  UNL1        0.0208
      4 C          -8.0376  -18.4858   21.3084 C.ar    1  UNL1       -0.0007
      5 C          -7.0042  -18.0238   22.2926 C.ar    1  UNL1       -0.0005
      6 C          -5.5506  -18.2888   22.0339 C.ar    1  UNL1       -0.0043
      7 C          -7.4244  -17.2969   23.5357 C.ar    1  UNL1       -0.0001
      8 C          -8.8395  -17.3995   24.0224 C.ar    1  UNL1        0.0031
      9 C          -9.2597  -16.6726   25.2653 C.ar    1  UNL1        0.0366
     10 C          -8.2647  -15.8431   26.0216 C.ar    1  UNL1        0.1360
     11 C          -6.8496  -15.7405   25.5349 C.ar    1  UNL1        0.0294
     12 C          -6.4295  -16.4674   24.2919 C.ar    1  UNL1        0.0001
     13 C          -6.0967  -14.8541   26.4823 C.3     1  UNL1        0.1208
     14 N          -4.6483  -14.4789   26.3761 N.3     1  UNL1       -0.3157
     15 C          -7.0466  -14.4090   27.5546 C.3     1  UNL1        0.2253
     16 O          -8.3865  -15.0202   27.2699 O.3     1  UNL1       -0.4739
     17 H          -4.2420  -14.9214   25.5518 H       1  UNL1        0.1192
     18 H          -4.1533  -14.7944   27.2102 H       1  UNL1        0.1192
     19 C          -3.0943  -19.0074   19.1771 C.3     1  UNL1        0.0047
     20 C          -3.6768  -19.2805   20.5322 C.3     1  UNL1        0.0223
     21 C          -2.8058  -19.8185   21.6284 C.3     1  UNL1        0.0047
     22 C          -8.6507  -19.6747   19.0811 C.3     1  UNL1        0.2320
     23 O         -10.0565  -19.9338   19.5357 O.3     1  UNL1       -0.4710
     24 C         -10.8355  -18.8495   20.2193 C.ar    1  UNL1        0.1354
     25 C         -11.1259  -17.5663   19.4988 C.ar    1  UNL1        0.0366
     26 C         -11.9049  -16.4820   20.1825 C.ar    1  UNL1        0.0031
     27 C         -12.3936  -16.6809   21.5866 C.ar    1  UNL1       -0.0001
     28 C         -12.1033  -17.9641   22.3071 C.ar    1  UNL1       -0.0009
     29 C         -11.3243  -19.0484   21.6235 C.ar    1  UNL1        0.0174
     30 C         -11.0339  -20.3316   22.3440 C.3     1  UNL1        0.0710
     31 C         -10.3528  -20.3040   23.6801 C.2     1  UNL1        0.0548
     32 O         -11.0774  -19.7706   24.8803 O.co2   1  UNL1       -0.5488
     33 O          -8.9473  -20.8098   23.8161 O.co2   1  UNL1       -0.5488
@<TRIPOS>UNITY_ATOM_ATTR
32 1
charge -1
@<TRIPOS>BOND
     1    19    20    1
     2    20    21    1
     3    20     1    1
     4     1     2   ar
     5     2     3   ar
     6     3    22    1
     7    22    23    1
     8    23    24    1
     9    24    25   ar
    10    25    26   ar
    11    26    27   ar
    12    27    28   ar
    13    28    29   ar
    14    29    30    1
    15    30    31    1
    16    31    32   ar
    17    31    33   ar
    18     3     4   ar
    19     4     5   ar
    20     5     7    1
    21     7     8   ar
    22     8     9   ar
    23     9    10   ar
    24    10    11   ar
    25    11    12   ar
    26    11    13    1
    27    13    14    1
    28    13    15    1
    29    15    16    1
    30     5     6   ar
    31     6     1   ar
    32    29    24   ar
    33    12     7   ar
    34    16    10    1
    35    14    17    1
    36    14    18    1
@<TRIPOS>MOLECULE
*****
 33 36 0 0 0
SMALL
GASTEIGER

@<TRIPOS>ATOM
      1 C          -7.1556  -15.3994   25.9771 C.ar    1  UNL1       -0.0227
      2 C          -5.7990  -15.6866   25.4051 C.ar    1  UNL1       -0.0050
      3 C          -5.6748  -16.3235   24.0527 C.ar    1  UNL1        0.0208
      4 C          -6.9072  -16.6732   23.2723 C.ar    1  UNL1       -0.0007
      5 C          -8.2637  -16.3860   23.8443 C.ar    1  UNL1       -0.0005
      6 C          -8.3880  -15.7491   25.1967 C.ar    1  UNL1       -0.0043
      7 C          -9.4962  -16.7356   23.0639 C.ar    1  UNL1       -0.0001
      8 C          -9.4944  -16.6212   21.5683 C.ar    1  UNL1        0.0031
      9 C         -10.7268  -16.9709   20.7880 C.ar    1  UNL1        0.0366
     10 C         -11.9609  -17.4350   21.5033 C.ar    1  UNL1        0.1360
     11 C         -11.9626  -17.5494   22.9989 C.ar    1  UNL1        0.0294
     12 C         -10.7302  -17.1998   23.7792 C.ar    1  UNL1        0.0001
     13 C         -13.3175  -18.0316   23.4253 C.3     1  UNL1        0.1208
     14 N         -13.7591  -18.2857   24.8361 N.3     1  UNL1       -0.3157
     15 C         -14.1531  -18.2152   22.1932 C.3     1  UNL1        0.2253
     16 O         -13.3147  -17.8465   21.0053 O.3     1  UNL1       -0.4739
     17 H         -12.9913  -18.0794   25.4751 H       1  UNL1        0.1192
     18 H         -14.0315  -19.2635   24.9363 H       1  UNL1        0.1192
     19 C          -8.5602  -14.8849   28.1014 C.3     1  UNL1        0.0047
     20 C          -7.2799  -14.7625   27.3295 C.3     1  UNL1        0.0223
     21 C          -6.1238  -14.0033   27.9100 C.3     1  UNL1        0.0047
     22 C          -4.3182  -16.6107   23.4807 C.3     1  UNL1        0.2320
     23 O          -3.8050  -18.0195   23.4383 O.3     1  UNL1       -0.4710
     24 C          -4.1814  -18.9209   22.3000 C.ar    1  UNL1        0.1354
     25 C          -5.4980  -19.6393   22.3159 C.ar    1  UNL1        0.0366
     26 C          -5.8743  -20.5407   21.1775 C.ar    1  UNL1        0.0031
     27 C          -4.9340  -20.7237   20.0232 C.ar    1  UNL1       -0.0001
     28 C          -3.6174  -20.0052   20.0073 C.ar    1  UNL1       -0.0009
     29 C          -3.2410  -19.1038   21.1457 C.ar    1  UNL1        0.0174
     30 C          -1.9244  -18.3854   21.1298 C.3     1  UNL1        0.0710
     31 C          -1.1635  -18.2424   19.8451 C.2     1  UNL1        0.0548
     32 O          -1.7702  -17.4977   18.6930 O.co2   1  UNL1       -0.5488
     33 O           0.2042  -18.8441   19.7124 O.co2   1  UNL1       -0.5488
@<TRIPOS>UNITY_ATOM_ATTR
32 1
charge -1
@<TRIPOS>BOND
     1    19    20    1
     2    20    21    1
     3    20     1    1
     4     1     2   ar
     5     2     3   ar
     6     3    22    1
     7    22    23    1
     8    23    24    1
     9    24    25   ar
    10    25    26   ar
    11    26    27   ar
    12    27    28   ar
    13    28    29   ar
    14    29    30    1
    15    30    31    1
    16    31    32   ar
    17    31    33   ar
    18     3     4   ar
    19     4     5   ar
    20     5     7    1
    21     7     8   ar
    22     8     9   ar
    23     9    10   ar
    24    10    11   ar
    25    11    12   ar
    26    11    13    1
    27    13    14    1
    28    13    15    1
    29    15    16    1
    30     5     6   ar
    31     6     1   ar
    32    29    24   ar
    33    12     7   ar
    34    16    10    1
    35    14    17    1
    36    14    18    1
@<TRIPOS>MOLECULE
*****
 33 36 0 0 0
SMALL
GASTEIGER

@<TRIPOS>ATOM
      1 C          -7.1483  -15.2922   26.0746 C.ar    1  UNL1       -0.0227
      2 C          -5.7733  -15.5555   25.5359 C.ar    1  UNL1       -0.0050
      3 C          -5.6049  -16.1731   24.1793 C.ar    1  UNL1        0.0208
      4 C          -6.8115  -16.5274   23.3615 C.ar    1  UNL1       -0.0007
      5 C          -8.1864  -16.2640   23.9002 C.ar    1  UNL1       -0.0005
      6 C          -8.3548  -15.6464   25.2568 C.ar    1  UNL1       -0.0043
      7 C          -9.3929  -16.6183   23.0824 C.ar    1  UNL1       -0.0001
      8 C          -9.3663  -16.4457   21.5926 C.ar    1  UNL1        0.0031
      9 C         -10.5728  -16.7999   20.7749 C.ar    1  UNL1        0.0366
     10 C         -11.8060  -17.3268   21.4469 C.ar    1  UNL1        0.1360
     11 C         -11.8327  -17.4994   22.9367 C.ar    1  UNL1        0.0294
     12 C         -10.6261  -17.1452   23.7544 C.ar    1  UNL1        0.0001
     13 C         -13.1805  -18.0366   23.3170 C.3     1  UNL1        0.1208
     14 N         -13.6412  -18.3580   24.7078 N.3     1  UNL1       -0.3157
     15 C         -13.9869  -18.1960   22.0622 C.3     1  UNL1        0.2253
     16 O         -13.1374  -17.7573   20.9064 O.3     1  UNL1       -0.4739
     17 H         -12.8920  -18.1548   25.3696 H       1  UNL1        0.1192
     18 H         -13.8864  -19.3464   24.7649 H       1  UNL1        0.1192
     19 C          -6.1978  -13.8811   28.0381 C.3     1  UNL1        0.0047
     20 C          -7.3167  -14.6746   27.4311 C.3     1  UNL1        0.0223
     21 C          -8.6040  -14.8504   28.1807 C.3     1  UNL1        0.0047
     22 C          -4.2300  -16.4365   23.6406 C.3     1  UNL1        0.2320
     23 O          -3.8590  -17.8121   23.1717 O.3     1  UNL1       -0.4710
     24 C          -3.2642  -18.0048   21.8083 C.ar    1  UNL1        0.1354
     25 C          -2.1131  -17.1514   21.3647 C.ar    1  UNL1        0.0366
     26 C          -1.5183  -17.3440   20.0012 C.ar    1  UNL1        0.0031
     27 C          -2.0746  -18.3901   19.0813 C.ar    1  UNL1       -0.0001
     28 C          -3.2257  -19.2435   19.5248 C.ar    1  UNL1       -0.0009
     29 C          -3.8204  -19.0509   20.8883 C.ar    1  UNL1        0.0174
     30 C          -4.9715  -19.9043   21.3318 C.3     1  UNL1        0.0710
     31 C          -6.3689  -19.3609   21.2873 C.2     1  UNL1        0.0548
     32 O          -7.3798  -19.8075   22.3014 O.co2   1  UNL1       -0.5488
     33 O          -6.7553  -18.3710   20.2287 O.co2   1  UNL1       -0.5488
@<TRIPOS>UNITY_ATOM_ATTR
32 1
charge -1
@<TRIPOS>BOND
     1    19    20    1
     2    20    21    1
     3    20     1    1
     4     1     2   ar
     5     2     3   ar
     6     3    22    1
     7    22    23    1
     8    23    24    1
     9    24    25   ar
    10    25    26   ar
    11    26    27   ar
    12    27    28   ar
    13    28    29   ar
    14    29    30    1
    15    30    31    1
    16    31    32   ar
    17    31    33   ar
    18     3     4   ar
    19     4     5   ar
    20     5     7    1
    21     7     8   ar
    22     8     9   ar
    23     9    10   ar
    24    10    11   ar
    25    11    12   ar
    26    11    13    1
    27    13    14    1
    28    13    15    1
    29    15    16    1
    30     5     6   ar
    31     6     1   ar
    32    29    24   ar
    33    12     7   ar
    34    16    10    1
    35    14    17    1
    36    14    18    1
@<TRIPOS>MOLECULE
*****
 33 36 0 0 0
SMALL
GASTEIGER

@<TRIPOS>ATOM
      1 C           7.9497   -6.1434   25.3873 C.ar    1  UNL1       -0.0227
      2 C           7.6596   -5.5189   24.0546 C.ar    1  UNL1       -0.0050
      3 C           7.0280   -4.1602   23.9847 C.ar    1  UNL1        0.0208
      4 C           6.6864   -3.4260   25.2474 C.ar    1  UNL1       -0.0007
      5 C           6.9765   -4.0505   26.5800 C.ar    1  UNL1       -0.0005
      6 C           7.6081   -5.4093   26.6499 C.ar    1  UNL1       -0.0043
      7 C           6.6349   -3.3164   27.8427 C.ar    1  UNL1       -0.0001
      8 C           6.2623   -1.8644   27.7887 C.ar    1  UNL1        0.0031
      9 C           5.9207   -1.1303   29.0514 C.ar    1  UNL1        0.0366
     10 C           5.9518   -1.8482   30.3681 C.ar    1  UNL1        0.1360
     11 C           6.3243   -3.3002   30.4221 C.ar    1  UNL1        0.0294
     12 C           6.6659   -4.0343   29.1594 C.ar    1  UNL1        0.0001
     13 C           6.2689   -3.7399   31.8551 C.3     1  UNL1        0.1208
     14 N           6.5678   -5.1179   32.3666 N.3     1  UNL1       -0.3157
     15 C           5.8621   -2.5597   32.6868 C.3     1  UNL1        0.2253
     16 O           5.6661   -1.3905   31.7677 O.3     1  UNL1       -0.4739
     17 H           6.8187   -5.7236   31.5853 H       1  UNL1        0.1192
     18 H           5.7435   -5.4925   32.8362 H       1  UNL1        0.1192
     19 C           9.5359   -7.9415   24.3867 C.3     1  UNL1        0.0047
     20 C           8.5813   -7.5022   25.4572 C.3     1  UNL1        0.0223
     21 C           8.2584   -8.4216   26.5975 C.3     1  UNL1        0.0047
     22 C           6.7380   -3.5356   22.6522 C.3     1  UNL1        0.2320
     23 O           5.5269   -3.9572   21.8739 O.3     1  UNL1       -0.4710
     24 C           4.4743   -2.9489   21.5200 C.ar    1  UNL1        0.1354
     25 C           4.0049   -1.9624   22.5479 C.ar    1  UNL1        0.0366
     26 C           2.9523   -0.9541   22.1940 C.ar    1  UNL1        0.0031
     27 C           2.3691   -0.9322   20.8122 C.ar    1  UNL1       -0.0001
     28 C           2.8385   -1.9186   19.7843 C.ar    1  UNL1       -0.0009
     29 C           3.8911   -2.9269   20.1382 C.ar    1  UNL1        0.0174
     30 C           4.3605   -3.9134   19.1103 C.3     1  UNL1        0.0710
     31 C           4.2068   -5.3848   19.3577 C.2     1  UNL1        0.0548
     32 O           5.1429   -6.3571   18.7033 O.co2   1  UNL1       -0.5488
     33 O           3.1170   -5.8839   20.2595 O.co2   1  UNL1       -0.5488
@<TRIPOS>UNITY_ATOM_ATTR
32 1
charge -1
@<TRIPOS>BOND
     1    19    20    1
     2    20    21    1
     3    20     1    1
     4     1     2   ar
     5     2     3   ar
     6     3    22    1
     7    22    23    1
     8    23    24    1
     9    24    25   ar
    10    25    26   ar
    11    26    27   ar
    12    27    28   ar
    13    28    29   ar
    14    29    30    1
    15    30    31    1
    16    31    32   ar
    17    31    33   ar
    18     3     4   ar
    19     4     5   ar
    20     5     7    1
    21     7     8   ar
    22     8     9   ar
    23     9    10   ar
    24    10    11   ar
    25    11    12   ar
    26    11    13    1
    27    13    14    1
    28    13    15    1
    29    15    16    1
    30     5     6   ar
    31     6     1   ar
    32    29    24   ar
    33    12     7   ar
    34    16    10    1
    35    14    17    1
    36    14    18    1
