@<TRIPOS>MOLECULE
*****
 38 40 0 0 0
SMALL
GASTEIGER

@<TRIPOS>ATOM
      1 C           6.5225   -2.9171   25.8459 C.2     1  UNL1        0.2486
      2 O           6.9770   -1.5707   25.3661 O.2     1  UNL1       -0.2726
      3 N           5.7454   -3.8164   24.9306 N.am    1  UNL1       -0.2823
      4 H           5.4470   -4.7002   25.2455 H       1  UNL1        0.1549
      5 C           8.5184   -5.3668   26.6615 C.2     1  UNL1        0.4058
      6 O           8.3900   -5.1511   25.1827 O.2     1  UNL1       -0.2262
      7 N           7.7624   -4.4905   27.6157 N.am    1  UNL1       -0.2314
      8 C           7.7911   -4.5862   29.1124 C.3     1  UNL1        0.1240
      9 C           6.8914   -3.5194   29.6625 C.ar    1  UNL1       -0.0029
     10 C           6.5291   -3.1380   31.0672 C.ar    1  UNL1        0.0155
     11 C           5.5821   -2.0015   31.3152 C.ar    1  UNL1        0.1054
     12 C           4.9974   -1.2465   30.1585 C.ar    1  UNL1        0.0181
     13 C           5.3597   -1.6278   28.7538 C.ar    1  UNL1       -0.0011
     14 C           6.3067   -2.7643   28.5058 C.ar    1  UNL1        0.0023
     15 C           6.8450   -3.3645   27.2408 C.3     1  UNL1        0.1777
     16 S           5.2198   -1.6201   32.7199 S.O2    1  UNL1        0.0104
     17 C           4.8574   -1.2387   34.1246 C.3     1  UNL1        0.1816
     18 O           6.6414   -1.2169   32.9772 O.2     1  UNL1       -0.1686
     19 O           3.7981   -2.0232   32.4626 O.2     1  UNL1       -0.1686
     20 C           8.8286   -7.8135   27.4783 C.3     1  UNL1        0.2573
     21 O           9.4027   -6.4589   27.1861 O.3     1  UNL1       -0.4304
     22 C           5.4229   -3.3691   23.5357 C.ar    1  UNL1        0.0503
     23 C           6.2298   -3.8797   22.3789 C.ar    1  UNL1        0.0144
     24 C           5.9073   -3.4324   20.9839 C.ar    1  UNL1       -0.0002
     25 C           4.7779   -2.4744   20.7459 C.ar    1  UNL1        0.0182
     26 C           3.9710   -1.9637   21.9027 C.ar    1  UNL1       -0.0002
     27 C           4.2935   -2.4111   23.2976 C.ar    1  UNL1        0.0144
     28 C           4.4553   -2.0270   19.3509 C.3     1  UNL1        0.2827
     29 O           5.2496   -0.7734   19.5692 O.3     1  UNL1       -0.3692
     30 H           5.2241   -0.2305   18.7658 H       1  UNL1        0.2112
     31 C           4.1327   -1.5797   17.9560 C.3     1  UNL1        0.4311
     32 F           3.8100   -1.1324   16.5611 F       1  UNL1       -0.1669
     33 F           3.0659   -0.6725   18.4936 F       1  UNL1       -0.1669
     34 F           4.7346   -2.0791   17.5404 F       1  UNL1       -0.1669
     35 C           3.6610   -3.2806   19.1327 C.3     1  UNL1        0.4311
     36 F           2.8666   -4.5341   18.9144 F       1  UNL1       -0.1669
     37 F           2.9055   -2.9943   19.4959 F       1  UNL1       -0.1669
     38 F           4.6247   -4.2072   18.4525 F       1  UNL1       -0.1669
@<TRIPOS>BOND
     1    20    21    1
     2    21     5    1
     3     5     6    2
     4     5     7   am
     5     7     8    1
     6     8     9    1
     7     9    10   ar
     8    10    11   ar
     9    11    16    1
    10    16    17    1
    11    16    18    2
    12    16    19    2
    13    11    12   ar
    14    12    13   ar
    15    13    14   ar
    16    14    15    1
    17    15     1    1
    18     1     2    2
    19     1     3   am
    20     3    22    1
    21    22    23   ar
    22    23    24   ar
    23    24    25   ar
    24    25    28    1
    25    28    29    1
    26    28    31    1
    27    31    32    1
    28    31    33    1
    29    31    34    1
    30    28    35    1
    31    35    36    1
    32    35    37    1
    33    35    38    1
    34    25    26   ar
    35    26    27   ar
    36    15     7    1
    37    27    22   ar
    38    14     9   ar
    39     3     4    1
    40    29    30    1
@<TRIPOS>MOLECULE
*****
 38 40 0 0 0
SMALL
GASTEIGER

@<TRIPOS>ATOM
      1 C           5.1111   -1.0849   26.1701 C.2     1  UNL1        0.2486
      2 O           5.8615    0.0297   25.5036 O.2     1  UNL1       -0.2726
      3 N           4.2977   -2.0391   25.3465 N.am    1  UNL1       -0.2823
      4 H           3.8051   -2.7707   25.7839 H       1  UNL1        0.1549
      5 C           6.9035   -3.2794   27.7890 C.2     1  UNL1        0.4058
      6 O           7.0444   -3.3573   26.2977 O.2     1  UNL1       -0.2262
      7 N           5.9977   -2.2543   28.4043 N.am    1  UNL1       -0.2314
      8 C           5.7568   -2.0578   29.8717 C.3     1  UNL1        0.1240
      9 C           4.7839   -0.9277   30.0345 C.ar    1  UNL1       -0.0029
     10 C           4.1796   -0.2909   31.2507 C.ar    1  UNL1        0.0155
     11 C           3.2151    0.8479   31.1001 C.ar    1  UNL1        0.1054
     12 C           2.8548    1.3499   29.7333 C.ar    1  UNL1        0.0181
     13 C           3.4591    0.7131   28.5171 C.ar    1  UNL1       -0.0011
     14 C           4.4236   -0.4257   28.6677 C.ar    1  UNL1        0.0023
     15 C           5.1738   -1.2456   27.6602 C.3     1  UNL1        0.1777
     16 S           2.6107    1.4847   32.3164 S.O2    1  UNL1        0.0104
     17 C           2.0063    2.1216   33.5326 C.3     1  UNL1        0.1816
     18 O           3.9732    1.6007   32.9328 O.2     1  UNL1       -0.1686
     19 O           1.2481    1.3687   31.7001 O.2     1  UNL1       -0.1686
     20 C           8.3870   -5.3953   28.0582 C.3     1  UNL1        0.2573
     21 O           7.6685   -4.2267   28.6650 O.3     1  UNL1       -0.4304
     22 C           4.2350   -1.8784   23.8564 C.ar    1  UNL1        0.0503
     23 C           3.2809   -0.8939   23.2477 C.ar    1  UNL1        0.0144
     24 C           3.2182   -0.7333   21.7577 C.ar    1  UNL1       -0.0002
     25 C           4.1095   -1.5571   20.8764 C.ar    1  UNL1        0.0182
     26 C           5.0635   -2.5417   21.4851 C.ar    1  UNL1       -0.0002
     27 C           5.1263   -2.7023   22.9751 C.ar    1  UNL1        0.0144
     28 C           4.0468   -1.3966   19.3863 C.3     1  UNL1        0.2827
     29 O           4.6171   -0.0148   19.5111 O.3     1  UNL1       -0.3692
     30 H           4.7018    0.3808   18.6295 H       1  UNL1        0.2112
     31 C           3.9841   -1.2361   17.8962 C.3     1  UNL1        0.4311
     32 F           3.9213   -1.0756   16.4061 F       1  UNL1       -0.1669
     33 F           5.4805   -1.3117   17.8251 F       1  UNL1       -0.1669
     34 F           3.1025   -1.1802   17.8306 F       1  UNL1       -0.1669
     35 C           3.4764   -2.7783   19.2615 C.3     1  UNL1        0.4311
     36 F           2.9060   -4.1600   19.1367 F       1  UNL1       -0.1669
     37 F           2.7041   -2.6129   19.6624 F       1  UNL1       -0.1669
     38 F           4.5490   -3.5511   18.5527 F       1  UNL1       -0.1669
@<TRIPOS>BOND
     1    20    21    1
     2    21     5    1
     3     5     6    2
     4     5     7   am
     5     7     8    1
     6     8     9    1
     7     9    10   ar
     8    10    11   ar
     9    11    16    1
    10    16    17    1
    11    16    18    2
    12    16    19    2
    13    11    12   ar
    14    12    13   ar
    15    13    14   ar
    16    14    15    1
    17    15     1    1
    18     1     2    2
    19     1     3   am
    20     3    22    1
    21    22    23   ar
    22    23    24   ar
    23    24    25   ar
    24    25    28    1
    25    28    29    1
    26    28    31    1
    27    31    32    1
    28    31    33    1
    29    31    34    1
    30    28    35    1
    31    35    36    1
    32    35    37    1
    33    35    38    1
    34    25    26   ar
    35    26    27   ar
    36    15     7    1
    37    27    22   ar
    38    14     9   ar
    39     3     4    1
    40    29    30    1
@<TRIPOS>MOLECULE
*****
 38 40 0 0 0
SMALL
GASTEIGER

@<TRIPOS>ATOM
      1 C           3.6186   -0.0290   26.2407 C.2     1  UNL1        0.2486
      2 O           4.6314    0.9775   26.7000 O.2     1  UNL1       -0.2726
      3 N           3.0265   -0.9981   27.2208 N.am    1  UNL1       -0.2823
      4 H           2.3617   -1.6587   26.9193 H       1  UNL1        0.1549
      5 C           1.5831    2.0637   24.7821 C.2     1  UNL1        0.4058
      6 O           1.8179    2.3533   26.2350 O.2     1  UNL1       -0.2262
      7 N           2.2622    0.8953   24.1310 N.am    1  UNL1       -0.2314
      8 C           2.1248    0.4838   22.6951 C.3     1  UNL1        0.1240
      9 C           2.9755   -0.7325   22.4781 C.ar    1  UNL1       -0.0029
     10 C           3.2320   -1.5742   21.2634 C.ar    1  UNL1        0.0155
     11 C           4.1515   -2.7560   21.3504 C.ar    1  UNL1        0.1054
     12 C           4.8147   -3.0961   22.6521 C.ar    1  UNL1        0.0181
     13 C           4.5582   -2.2544   23.8669 C.ar    1  UNL1       -0.0011
     14 C           3.6386   -1.0726   23.7799 C.ar    1  UNL1        0.0023
     15 C           3.1977   -0.0665   24.8014 C.3     1  UNL1        0.1777
     16 S           4.4081   -3.5978   20.1356 S.O2    1  UNL1        0.0104
     17 C           4.6645   -4.4395   18.9208 C.3     1  UNL1        0.1816
     18 O           5.4603   -4.3595   20.8855 O.2     1  UNL1       -0.1686
     19 O           3.3558   -2.8361   19.3856 O.2     1  UNL1       -0.1686
     20 C          -0.7771    3.0633   24.3583 C.3     1  UNL1        0.2573
     21 O           0.6694    2.9424   23.9803 O.3     1  UNL1       -0.4304
     22 C           3.4473   -0.9605   28.6600 C.ar    1  UNL1        0.0503
     23 C           4.8600   -1.2951   29.0373 C.ar    1  UNL1        0.0144
     24 C           5.2808   -1.2576   30.4766 C.ar    1  UNL1       -0.0002
     25 C           4.2890   -0.8854   31.5385 C.ar    1  UNL1        0.0182
     26 C           2.8763   -0.5509   31.1612 C.ar    1  UNL1       -0.0002
     27 C           2.4554   -0.5884   29.7219 C.ar    1  UNL1        0.0144
     28 C           4.7097   -0.8479   32.9778 C.3     1  UNL1        0.2827
     29 O           4.2735    0.5845   33.0680 O.3     1  UNL1       -0.3692
     30 H           4.4361    0.9161   33.9650 H       1  UNL1        0.2112
     31 C           5.1305   -0.8104   34.4171 C.3     1  UNL1        0.4311
     32 F           5.5513   -0.7729   35.8564 F       1  UNL1       -0.1669
     33 F           6.2416    0.1347   34.0676 F       1  UNL1       -0.1669
     34 F           4.5096   -1.3616   34.7256 F       1  UNL1       -0.1669
     35 C           5.1459   -2.2802   32.8876 C.3     1  UNL1        0.4311
     36 F           5.5820   -3.7126   32.7974 F       1  UNL1       -0.1669
     37 F           4.3384   -2.6337   32.8001 F       1  UNL1       -0.1669
     38 F           6.6401   -2.2125   32.9998 F       1  UNL1       -0.1669
@<TRIPOS>BOND
     1    20    21    1
     2    21     5    1
     3     5     6    2
     4     5     7   am
     5     7     8    1
     6     8     9    1
     7     9    10   ar
     8    10    11   ar
     9    11    16    1
    10    16    17    1
    11    16    18    2
    12    16    19    2
    13    11    12   ar
    14    12    13   ar
    15    13    14   ar
    16    14    15    1
    17    15     1    1
    18     1     2    2
    19     1     3   am
    20     3    22    1
    21    22    23   ar
    22    23    24   ar
    23    24    25   ar
    24    25    28    1
    25    28    29    1
    26    28    31    1
    27    31    32    1
    28    31    33    1
    29    31    34    1
    30    28    35    1
    31    35    36    1
    32    35    37    1
    33    35    38    1
    34    25    26   ar
    35    26    27   ar
    36    15     7    1
    37    27    22   ar
    38    14     9   ar
    39     3     4    1
    40    29    30    1
@<TRIPOS>MOLECULE
*****
 38 40 0 0 0
SMALL
GASTEIGER

@<TRIPOS>ATOM
      1 C           1.3874    1.4277   24.4747 C.2     1  UNL1        0.2486
      2 O           2.0726    2.4413   23.6071 O.2     1  UNL1       -0.2726
      3 N           1.5888   -0.0368   24.2195 N.am    1  UNL1       -0.2823
      4 H           1.1390   -0.7021   24.7890 H       1  UNL1        0.1549
      5 C           1.9662    1.0155   27.6598 C.2     1  UNL1        0.4058
      6 O           3.0359    0.4580   26.7682 O.2     1  UNL1       -0.2262
      7 N           0.7668    1.6888   27.0615 N.am    1  UNL1       -0.2314
      8 C          -0.3773    2.2910   27.8222 C.3     1  UNL1        0.1240
      9 C          -1.3504    2.8525   26.8284 C.ar    1  UNL1       -0.0029
     10 C          -2.6604    3.5632   26.9978 C.ar    1  UNL1        0.0155
     11 C          -3.4278    4.0188   25.7922 C.ar    1  UNL1        0.1054
     12 C          -2.8852    3.7637   24.4172 C.ar    1  UNL1        0.0181
     13 C          -1.5752    3.0531   24.2478 C.ar    1  UNL1       -0.0011
     14 C          -0.8077    2.5975   25.4534 C.ar    1  UNL1        0.0023
     15 C           0.5007    1.8783   25.5975 C.3     1  UNL1        0.1777
     16 S          -4.7379    4.7295   25.9616 S.O2    1  UNL1        0.0104
     17 C          -6.0480    5.4401   26.1309 C.3     1  UNL1        0.1816
     18 O          -5.4515    3.5595   25.3516 O.2     1  UNL1       -0.1686
     19 O          -4.0244    5.8994   26.5715 O.2     1  UNL1       -0.1686
     20 C           2.0685   -0.4506   29.8022 C.3     1  UNL1        0.2573
     21 O           2.0961    0.8997   29.1496 O.3     1  UNL1       -0.4304
     22 C           2.4755   -0.4874   23.0967 C.ar    1  UNL1        0.0503
     23 C           3.8077   -1.1084   23.3960 C.ar    1  UNL1        0.0144
     24 C           4.6944   -1.5591   22.2732 C.ar    1  UNL1       -0.0002
     25 C           4.2488   -1.3886   20.8511 C.ar    1  UNL1        0.0182
     26 C           2.9166   -0.7676   20.5518 C.ar    1  UNL1       -0.0002
     27 C           2.0299   -0.3170   21.6746 C.ar    1  UNL1        0.0144
     28 C           5.1354   -1.8392   19.7282 C.3     1  UNL1        0.2827
     29 O           6.1449   -0.7963   20.1066 O.3     1  UNL1       -0.3692
     30 H           6.9030   -0.8462   19.5036 H       1  UNL1        0.2112
     31 C           6.0220   -2.2899   18.6053 C.3     1  UNL1        0.4311
     32 F           6.9086   -2.7406   17.4824 F       1  UNL1       -0.1669
     33 F           5.7504   -1.0075   17.8761 F       1  UNL1       -0.1669
     34 F           6.2450   -3.0740   18.9517 F       1  UNL1       -0.1669
     35 C           4.1260   -2.8822   19.3497 C.3     1  UNL1        0.4311
     36 F           3.1164   -3.9251   18.9712 F       1  UNL1       -0.1669
     37 F           3.8569   -2.5034   18.5957 F       1  UNL1       -0.1669
     38 F           4.2068   -3.8860   20.4614 F       1  UNL1       -0.1669
@<TRIPOS>BOND
     1    20    21    1
     2    21     5    1
     3     5     6    2
     4     5     7   am
     5     7     8    1
     6     8     9    1
     7     9    10   ar
     8    10    11   ar
     9    11    16    1
    10    16    17    1
    11    16    18    2
    12    16    19    2
    13    11    12   ar
    14    12    13   ar
    15    13    14   ar
    16    14    15    1
    17    15     1    1
    18     1     2    2
    19     1     3   am
    20     3    22    1
    21    22    23   ar
    22    23    24   ar
    23    24    25   ar
    24    25    28    1
    25    28    29    1
    26    28    31    1
    27    31    32    1
    28    31    33    1
    29    31    34    1
    30    28    35    1
    31    35    36    1
    32    35    37    1
    33    35    38    1
    34    25    26   ar
    35    26    27   ar
    36    15     7    1
    37    27    22   ar
    38    14     9   ar
    39     3     4    1
    40    29    30    1
@<TRIPOS>MOLECULE
*****
 38 40 0 0 0
SMALL
GASTEIGER

@<TRIPOS>ATOM
      1 C           4.7624   -1.1995   32.3736 C.2     1  UNL1        0.2486
      2 O           3.5371   -1.9152   32.8596 O.2     1  UNL1       -0.2726
      3 N           5.2885   -0.0153   33.1293 N.am    1  UNL1       -0.2823
      4 H           6.0927    0.4545   32.8103 H       1  UNL1        0.1549
      5 C           4.8564    0.3736   29.5159 C.2     1  UNL1        0.4058
      6 O           4.0779    1.0882   30.5804 O.2     1  UNL1       -0.2262
      7 N           5.5049   -0.9448   29.8184 N.am    1  UNL1       -0.2314
      8 C           6.3104   -1.7715   28.8605 C.3     1  UNL1        0.1240
      9 C           6.7650   -3.0056   29.5820 C.ar    1  UNL1       -0.0029
     10 C           7.5888   -4.1793   29.1420 C.ar    1  UNL1        0.0155
     11 C           7.8881   -5.2889   30.1059 C.ar    1  UNL1        0.1054
     12 C           7.3636   -5.2248   31.5097 C.ar    1  UNL1        0.0181
     13 C           6.5397   -4.0511   31.9497 C.ar    1  UNL1       -0.0011
     14 C           6.2405   -2.9415   30.9858 C.ar    1  UNL1        0.0023
     15 C           5.4616   -1.6678   31.1319 C.3     1  UNL1        0.1777
     16 S           8.7120   -6.4627   29.6660 S.O2    1  UNL1        0.0104
     17 C           9.5358   -7.6365   29.2260 C.3     1  UNL1        0.1816
     18 O           9.1148   -6.7134   31.0889 O.2     1  UNL1       -0.1686
     19 O           8.3092   -6.2121   28.2430 O.2     1  UNL1       -0.1686
     20 C           3.7687    1.1672   27.2940 C.3     1  UNL1        0.2573
     21 O           4.9865    0.9772   28.1489 O.3     1  UNL1       -0.4304
     22 C           4.5892    0.4530   34.3709 C.ar    1  UNL1        0.0503
     23 C           3.4722    1.4492   34.2722 C.ar    1  UNL1        0.0144
     24 C           2.7729    1.9176   35.5138 C.ar    1  UNL1       -0.0002
     25 C           3.1908    1.3896   36.8542 C.ar    1  UNL1        0.0182
     26 C           4.3078    0.3934   36.9530 C.ar    1  UNL1       -0.0002
     27 C           5.0071   -0.0749   35.7113 C.ar    1  UNL1        0.0144
     28 C           2.4915    1.8579   38.0959 C.3     1  UNL1        0.2827
     29 O           2.3466    0.4358   38.5507 O.3     1  UNL1       -0.3692
     30 H           1.8890    0.4149   39.4057 H       1  UNL1        0.2112
     31 C           1.7923    2.3262   39.3376 C.3     1  UNL1        0.4311
     32 F           1.0931    2.7946   40.5793 F       1  UNL1       -0.1669
     33 F           0.5382    1.6342   38.8924 F       1  UNL1       -0.1669
     34 F           2.4770    2.7656   39.6880 F       1  UNL1       -0.1669
     35 C           2.6365    3.2799   37.6412 C.3     1  UNL1        0.4311
     36 F           2.7816    4.7020   37.1864 F       1  UNL1       -0.1669
     37 F           3.5193    3.3225   37.6998 F       1  UNL1       -0.1669
     38 F           1.2275    3.7230   37.3799 F       1  UNL1       -0.1669
@<TRIPOS>BOND
     1    20    21    1
     2    21     5    1
     3     5     6    2
     4     5     7   am
     5     7     8    1
     6     8     9    1
     7     9    10   ar
     8    10    11   ar
     9    11    16    1
    10    16    17    1
    11    16    18    2
    12    16    19    2
    13    11    12   ar
    14    12    13   ar
    15    13    14   ar
    16    14    15    1
    17    15     1    1
    18     1     2    2
    19     1     3   am
    20     3    22    1
    21    22    23   ar
    22    23    24   ar
    23    24    25   ar
    24    25    28    1
    25    28    29    1
    26    28    31    1
    27    31    32    1
    28    31    33    1
    29    31    34    1
    30    28    35    1
    31    35    36    1
    32    35    37    1
    33    35    38    1
    34    25    26   ar
    35    26    27   ar
    36    15     7    1
    37    27    22   ar
    38    14     9   ar
    39     3     4    1
    40    29    30    1
@<TRIPOS>MOLECULE
*****
 38 40 0 0 0
SMALL
GASTEIGER

@<TRIPOS>ATOM
      1 C           1.9033    1.0926   24.6888 C.2     1  UNL1        0.2486
      2 O           3.1468    1.7830   25.1652 O.2     1  UNL1       -0.2726
      3 N           0.7920    0.7996   25.6528 N.am    1  UNL1       -0.2823
      4 H          -0.0242    0.3465   25.3401 H       1  UNL1        0.1549
      5 C          -0.0947    2.4566   22.4985 C.2     1  UNL1        0.4058
      6 O          -0.1813    3.0664   23.8662 O.2     1  UNL1       -0.2262
      7 N           0.8526    1.3223   22.2417 N.am    1  UNL1       -0.2314
      8 C           1.0479    0.6157   20.9330 C.3     1  UNL1        0.1240
      9 C           2.0869   -0.4479   21.1309 C.ar    1  UNL1       -0.0029
     10 C           2.6838   -1.4548   20.1930 C.ar    1  UNL1        0.0155
     11 C           3.7276   -2.4125   20.6861 C.ar    1  UNL1        0.1054
     12 C           4.1745   -2.3633   22.1171 C.ar    1  UNL1        0.0181
     13 C           3.5776   -1.3564   23.0551 C.ar    1  UNL1       -0.0011
     14 C           2.5338   -0.3987   22.5620 C.ar    1  UNL1        0.0023
     15 C           1.7710    0.6953   23.2484 C.3     1  UNL1        0.1777
     16 S           4.3246   -3.4195   19.7482 S.O2    1  UNL1        0.0104
     17 C           4.9215   -4.4265   18.8102 C.3     1  UNL1        0.1816
     18 O           4.5742   -4.3457   20.9013 O.2     1  UNL1       -0.1686
     19 O           4.0750   -2.4933   18.5950 O.2     1  UNL1       -0.1686
     20 C          -2.2986    3.5735   21.6954 C.3     1  UNL1        0.2573
     21 O          -0.9553    2.9811   21.3876 O.3     1  UNL1       -0.4304
     22 C           0.9243    1.1969   27.0932 C.ar    1  UNL1        0.0503
     23 C           0.3309    2.4884   27.5725 C.ar    1  UNL1        0.0144
     24 C           0.4632    2.8857   29.0129 C.ar    1  UNL1       -0.0002
     25 C           1.1890    1.9914   29.9738 C.ar    1  UNL1        0.0182
     26 C           1.7824    0.6999   29.4945 C.ar    1  UNL1       -0.0002
     27 C           1.6501    0.3026   28.0541 C.ar    1  UNL1        0.0144
     28 C           1.3214    2.3887   31.4142 C.3     1  UNL1        0.2827
     29 O           0.0291    1.6933   31.7249 O.3     1  UNL1       -0.3692
     30 H          -0.1688    1.7857   32.6700 H       1  UNL1        0.2112
     31 C           1.4538    2.7859   32.8546 C.3     1  UNL1        0.4311
     32 F           1.5863    3.1832   34.2950 F       1  UNL1       -0.1669
     33 F           2.0479    1.4451   33.1698 F       1  UNL1       -0.1669
     34 F           1.1152    3.6004   32.7736 F       1  UNL1       -0.1669
     35 C           2.6137    3.0840   31.1036 C.3     1  UNL1        0.4311
     36 F           3.9060    3.7793   30.7930 F       1  UNL1       -0.1669
     37 F           3.1472    2.3936   31.2565 F       1  UNL1       -0.1669
     38 F           2.1972    4.4780   30.7383 F       1  UNL1       -0.1669
@<TRIPOS>BOND
     1    20    21    1
     2    21     5    1
     3     5     6    2
     4     5     7   am
     5     7     8    1
     6     8     9    1
     7     9    10   ar
     8    10    11   ar
     9    11    16    1
    10    16    17    1
    11    16    18    2
    12    16    19    2
    13    11    12   ar
    14    12    13   ar
    15    13    14   ar
    16    14    15    1
    17    15     1    1
    18     1     2    2
    19     1     3   am
    20     3    22    1
    21    22    23   ar
    22    23    24   ar
    23    24    25   ar
    24    25    28    1
    25    28    29    1
    26    28    31    1
    27    31    32    1
    28    31    33    1
    29    31    34    1
    30    28    35    1
    31    35    36    1
    32    35    37    1
    33    35    38    1
    34    25    26   ar
    35    26    27   ar
    36    15     7    1
    37    27    22   ar
    38    14     9   ar
    39     3     4    1
    40    29    30    1
@<TRIPOS>MOLECULE
*****
 38 40 0 0 0
SMALL
GASTEIGER

@<TRIPOS>ATOM
      1 C           2.8259    0.6374   25.7177 C.2     1  UNL1        0.2486
      2 O           4.0416    1.4546   25.3953 O.2     1  UNL1       -0.2726
      3 N           2.1350   -0.1382   24.6354 N.am    1  UNL1       -0.2823
      4 H           1.3371   -0.6747   24.8470 H       1  UNL1        0.1549
      5 C          -0.0725    1.7561   26.7163 C.2     1  UNL1        0.4058
      6 O           0.1778    1.9355   25.2483 O.2     1  UNL1       -0.2262
      7 N           0.9688    1.1098   27.5813 N.am    1  UNL1       -0.2314
      8 C           0.8606    0.8642   29.0571 C.3     1  UNL1        0.1240
      9 C           2.1260    0.1983   29.5101 C.ar    1  UNL1       -0.0029
     10 C           2.5826   -0.2784   30.8571 C.ar    1  UNL1        0.0155
     11 C           3.9295   -0.9211   31.0082 C.ar    1  UNL1        0.1054
     12 C           4.8197   -1.0872   29.8124 C.ar    1  UNL1        0.0181
     13 C           4.3631   -0.6105   28.4655 C.ar    1  UNL1       -0.0011
     14 C           3.0162    0.0322   28.3144 C.ar    1  UNL1        0.0023
     15 C           2.3010    0.5956   27.1223 C.3     1  UNL1        0.1777
     16 S           4.3862   -1.3979   32.3552 S.O2    1  UNL1        0.0104
     17 C           4.8428   -1.8746   33.7020 C.3     1  UNL1        0.1816
     18 O           3.3734   -0.5085   33.0134 O.2     1  UNL1       -0.1686
     19 O           5.3989   -2.2872   31.6970 O.2     1  UNL1       -0.1686
     20 C          -2.1698    3.2873   26.6352 C.3     1  UNL1        0.2573
     21 O          -1.3640    2.2231   27.3194 O.3     1  UNL1       -0.4304
     22 C           2.6600   -0.0965   23.2309 C.ar    1  UNL1        0.0503
     23 C           2.4493    1.1260   22.3875 C.ar    1  UNL1        0.0144
     24 C           2.9742    1.1678   20.9830 C.ar    1  UNL1       -0.0002
     25 C           3.7098   -0.0129   20.4219 C.ar    1  UNL1        0.0182
     26 C           3.9204   -1.2354   21.2652 C.ar    1  UNL1       -0.0002
     27 C           3.3955   -1.2771   22.6698 C.ar    1  UNL1        0.0144
     28 C           4.2347    0.0288   19.0173 C.3     1  UNL1        0.2827
     29 O           5.6339   -0.1254   19.5356 O.3     1  UNL1       -0.3692
     30 H           6.2555   -0.1332   18.7910 H       1  UNL1        0.2112
     31 C           4.7596    0.0705   17.6128 C.3     1  UNL1        0.4311
     32 F           5.2845    0.1122   16.2082 F       1  UNL1       -0.1669
     33 F           4.2552   -1.3233   17.3829 F       1  UNL1       -0.1669
     34 F           5.0930    0.8904   17.6463 F       1  UNL1       -0.1669
     35 C           2.8356    0.1830   18.4991 C.3     1  UNL1        0.4311
     36 F           1.4364    0.3372   17.9808 F       1  UNL1       -0.1669
     37 F           2.9585    0.9561   18.0847 F       1  UNL1       -0.1669
     38 F           2.1267   -1.0412   18.9979 F       1  UNL1       -0.1669
@<TRIPOS>BOND
     1    20    21    1
     2    21     5    1
     3     5     6    2
     4     5     7   am
     5     7     8    1
     6     8     9    1
     7     9    10   ar
     8    10    11   ar
     9    11    16    1
    10    16    17    1
    11    16    18    2
    12    16    19    2
    13    11    12   ar
    14    12    13   ar
    15    13    14   ar
    16    14    15    1
    17    15     1    1
    18     1     2    2
    19     1     3   am
    20     3    22    1
    21    22    23   ar
    22    23    24   ar
    23    24    25   ar
    24    25    28    1
    25    28    29    1
    26    28    31    1
    27    31    32    1
    28    31    33    1
    29    31    34    1
    30    28    35    1
    31    35    36    1
    32    35    37    1
    33    35    38    1
    34    25    26   ar
    35    26    27   ar
    36    15     7    1
    37    27    22   ar
    38    14     9   ar
    39     3     4    1
    40    29    30    1
@<TRIPOS>MOLECULE
*****
 38 40 0 0 0
SMALL
GASTEIGER

@<TRIPOS>ATOM
      1 C           3.5980    0.2591   26.3659 C.2     1  UNL1        0.2486
      2 O           4.9554    0.7678   25.9808 O.2     1  UNL1       -0.2726
      3 N           2.8295   -0.6168   25.4212 N.am    1  UNL1       -0.2823
      4 H           1.9385   -0.9507   25.6739 H       1  UNL1        0.1549
      5 C           1.0539    2.2436   26.8549 C.2     1  UNL1        0.4058
      6 O           1.4186    2.0636   25.4111 O.2     1  UNL1       -0.2262
      7 N           1.8395    1.5383   27.9205 N.am    1  UNL1       -0.2314
      8 C           1.5937    1.6213   29.3978 C.3     1  UNL1        0.1240
      9 C           2.6111    0.7604   30.0862 C.ar    1  UNL1       -0.0029
     10 C           2.8541    0.4571   31.5349 C.ar    1  UNL1        0.0155
     11 C           3.9717   -0.4613   31.9317 C.ar    1  UNL1        0.1054
     12 C           4.8463   -1.0763   30.8797 C.ar    1  UNL1        0.0181
     13 C           4.6034   -0.7731   29.4309 C.ar    1  UNL1       -0.0011
     14 C           3.4857    0.1453   29.0342 C.ar    1  UNL1        0.0023
     15 C           3.0089    0.6261   27.6957 C.3     1  UNL1        0.1777
     16 S           4.2147   -0.7646   33.3805 S.O2    1  UNL1        0.0104
     17 C           4.4578   -1.0680   34.8292 C.3     1  UNL1        0.1816
     18 O           4.5676    0.6731   33.6224 O.2     1  UNL1       -0.1686
     19 O           3.8619   -2.2023   33.1386 O.2     1  UNL1       -0.1686
     20 C          -1.4912    2.7640   26.8197 C.3     1  UNL1        0.2573
     21 O          -0.0963    3.1289   27.2332 O.3     1  UNL1       -0.4304
     22 C           3.4186   -0.9838   24.0914 C.ar    1  UNL1        0.0503
     23 C           4.4047   -2.1097   23.9930 C.ar    1  UNL1        0.0144
     24 C           4.9938   -2.4768   22.6633 C.ar    1  UNL1       -0.0002
     25 C           4.5967   -1.7178   21.4319 C.ar    1  UNL1        0.0182
     26 C           3.6105   -0.5918   21.5303 C.ar    1  UNL1       -0.0002
     27 C           3.0214   -0.2248   22.8601 C.ar    1  UNL1        0.0144
     28 C           5.1858   -2.0847   20.1021 C.3     1  UNL1        0.2827
     29 O           5.9588   -0.7993   20.0897 O.3     1  UNL1       -0.3692
     30 H           6.4845   -0.7460   19.2763 H       1  UNL1        0.2112
     31 C           5.7748   -2.4518   18.7723 C.3     1  UNL1        0.4311
     32 F           6.3638   -2.8188   17.4425 F       1  UNL1       -0.1669
     33 F           4.5115   -2.0143   18.0920 F       1  UNL1       -0.1669
     34 F           6.5576   -2.7346   19.0752 F       1  UNL1       -0.1669
     35 C           4.4128   -3.3702   20.1145 C.3     1  UNL1        0.4311
     36 F           3.6398   -4.6557   20.1269 F       1  UNL1       -0.1669
     37 F           5.0987   -3.9071   20.2752 F       1  UNL1       -0.1669
     38 F           2.9981   -2.9456   19.8529 F       1  UNL1       -0.1669
@<TRIPOS>BOND
     1    20    21    1
     2    21     5    1
     3     5     6    2
     4     5     7   am
     5     7     8    1
     6     8     9    1
     7     9    10   ar
     8    10    11   ar
     9    11    16    1
    10    16    17    1
    11    16    18    2
    12    16    19    2
    13    11    12   ar
    14    12    13   ar
    15    13    14   ar
    16    14    15    1
    17    15     1    1
    18     1     2    2
    19     1     3   am
    20     3    22    1
    21    22    23   ar
    22    23    24   ar
    23    24    25   ar
    24    25    28    1
    25    28    29    1
    26    28    31    1
    27    31    32    1
    28    31    33    1
    29    31    34    1
    30    28    35    1
    31    35    36    1
    32    35    37    1
    33    35    38    1
    34    25    26   ar
    35    26    27   ar
    36    15     7    1
    37    27    22   ar
    38    14     9   ar
    39     3     4    1
    40    29    30    1
@<TRIPOS>MOLECULE
*****
 38 40 0 0 0
SMALL
GASTEIGER

@<TRIPOS>ATOM
      1 C           3.4745    0.0728   26.0800 C.2     1  UNL1        0.2486
      2 O           4.4262    1.1190   26.5797 O.2     1  UNL1       -0.2726
      3 N           2.9197   -0.9499   27.0268 N.am    1  UNL1       -0.2823
      4 H           2.2951   -1.6366   26.6989 H       1  UNL1        0.1549
      5 C           1.5037    2.2094   24.5966 C.2     1  UNL1        0.4058
      6 O           1.7190    2.4885   26.0546 O.2     1  UNL1       -0.2262
      7 N           2.1718    1.0313   23.9518 N.am    1  UNL1       -0.2314
      8 C           2.0513    0.6284   22.5120 C.3     1  UNL1        0.1240
      9 C           2.8827   -0.6027   22.3040 C.ar    1  UNL1       -0.0029
     10 C           3.1441   -1.4439   21.0899 C.ar    1  UNL1        0.0155
     11 C           4.0398   -2.6432   21.1872 C.ar    1  UNL1        0.1054
     12 C           4.6741   -3.0011   22.4985 C.ar    1  UNL1        0.0181
     13 C           4.4127   -2.1599   23.7125 C.ar    1  UNL1       -0.0011
     14 C           3.5170   -0.9606   23.6152 C.ar    1  UNL1        0.0023
     15 C           3.0777    0.0492   24.6337 C.3     1  UNL1        0.1777
     16 S           4.3012   -3.4845   19.9731 S.O2    1  UNL1        0.0104
     17 C           4.5626   -4.3257   18.7591 C.3     1  UNL1        0.1816
     18 O           4.4854   -4.6892   20.8476 O.2     1  UNL1       -0.1686
     19 O           4.1170   -2.2798   19.0987 O.2     1  UNL1       -0.1686
     20 C          -0.2180    4.1505   24.4627 C.3     1  UNL1        0.2573
     21 O           0.6204    3.1085   23.7834 O.3     1  UNL1       -0.4304
     22 C           3.3166   -0.9263   28.4732 C.ar    1  UNL1        0.0503
     23 C           4.7295   -1.2382   28.8684 C.ar    1  UNL1        0.0144
     24 C           5.1264   -1.2146   30.3147 C.ar    1  UNL1       -0.0002
     25 C           4.1103   -0.8792   31.3658 C.ar    1  UNL1        0.0182
     26 C           2.6973   -0.5673   30.9706 C.ar    1  UNL1       -0.0002
     27 C           2.3004   -0.5909   29.5242 C.ar    1  UNL1        0.0144
     28 C           4.5070   -0.8555   32.8122 C.3     1  UNL1        0.2827
     29 O           5.0288   -2.2568   32.6921 O.3     1  UNL1       -0.3692
     30 H           5.3831   -2.5443   33.5480 H       1  UNL1        0.2112
     31 C           4.9038   -0.8318   34.2586 C.3     1  UNL1        0.4311
     32 F           5.3005   -0.8081   35.7050 F       1  UNL1       -0.1669
     33 F           3.9421   -1.9479   34.5407 F       1  UNL1       -0.1669
     34 F           5.4960   -0.1760   34.1975 F       1  UNL1       -0.1669
     35 C           3.9853    0.5457   32.9324 C.3     1  UNL1        0.4311
     36 F           3.4635    1.9469   33.0526 F       1  UNL1       -0.1669
     37 F           3.2763    0.3548   33.4277 F       1  UNL1       -0.1669
     38 F           4.9707    1.3678   32.1557 F       1  UNL1       -0.1669
@<TRIPOS>BOND
     1    20    21    1
     2    21     5    1
     3     5     6    2
     4     5     7   am
     5     7     8    1
     6     8     9    1
     7     9    10   ar
     8    10    11   ar
     9    11    16    1
    10    16    17    1
    11    16    18    2
    12    16    19    2
    13    11    12   ar
    14    12    13   ar
    15    13    14   ar
    16    14    15    1
    17    15     1    1
    18     1     2    2
    19     1     3   am
    20     3    22    1
    21    22    23   ar
    22    23    24   ar
    23    24    25   ar
    24    25    28    1
    25    28    29    1
    26    28    31    1
    27    31    32    1
    28    31    33    1
    29    31    34    1
    30    28    35    1
    31    35    36    1
    32    35    37    1
    33    35    38    1
    34    25    26   ar
    35    26    27   ar
    36    15     7    1
    37    27    22   ar
    38    14     9   ar
    39     3     4    1
    40    29    30    1
