@<TRIPOS>MOLECULE
*****
 27 30 0 0 0
SMALL
GASTEIGER

@<TRIPOS>ATOM
      1 N          -9.1338  -15.5600   24.5105 N.pl3   1  UNL1       -0.2671
      2 H          -9.5727  -15.0103   25.1993 H       1  UNL1        0.1565
      3 C          -9.9564  -16.2362   23.4540 C.ar    1  UNL1        0.1388
      4 C         -11.4234  -15.9432   23.3438 C.ar    1  UNL1        0.0552
      5 C         -12.2459  -16.6194   22.2873 C.ar    1  UNL1        0.1047
      6 N         -11.6015  -17.5887   21.3412 N.ar    1  UNL1       -0.2120
      7 C         -10.1346  -17.8818   21.4514 C.ar    1  UNL1        0.2215
      8 N          -9.3120  -17.2055   22.5079 N.ar    1  UNL1       -0.1985
      9 N          -9.4902  -18.8510   20.5052 N.pl3   1  UNL1       -0.2730
     10 C          -8.0367  -19.1905   20.6540 C.3     1  UNL1        0.1257
     11 C          -7.3923  -20.1598   19.7078 C.3     1  UNL1        0.1637
     12 O          -8.2014  -20.7896   18.6129 O.3     1  UNL1       -0.3501
     13 C          -9.6548  -20.4501   18.4641 C.3     1  UNL1        0.1637
     14 C         -10.2993  -19.4808   19.4103 C.3     1  UNL1        0.1257
     15 C          -5.3857  -16.3488   23.8821 C.ar    1  UNL1        0.1244
     16 C          -6.8275  -16.4299   23.4765 C.ar    1  UNL1        0.0785
     17 C          -7.6425  -15.7212   24.5174 C.ar    1  UNL1        0.2316
     18 O          -6.7044  -15.2020   25.5663 O.2     1  UNL1       -0.3381
     19 N          -5.3096  -15.5899   25.1737 N.ar    1  UNL1       -0.0754
     20 C          -1.9004  -18.0783   21.6212 C.ar    1  UNL1        0.1387
     21 C          -2.0313  -16.5920   21.7753 C.ar    1  UNL1        0.0370
     22 C          -3.1930  -16.0155   22.5290 C.ar    1  UNL1        0.0047
     23 C          -4.2240  -16.9253   23.1285 C.ar    1  UNL1        0.0212
     24 C          -4.0931  -18.4116   22.9743 C.ar    1  UNL1        0.0047
     25 C          -2.9314  -18.9881   22.2207 C.ar    1  UNL1        0.0370
     26 C          -0.0216  -17.8243   19.8449 C.3     1  UNL1        0.2525
     27 O          -0.7387  -18.6548   20.8676 O.3     1  UNL1       -0.4714
@<TRIPOS>BOND
     1    26    27    1
     2    27    20    1
     3    20    21   ar
     4    21    22   ar
     5    22    23   ar
     6    23    15    1
     7    15    16   ar
     8    16    17   ar
     9    17     1    1
    10     1     3    1
    11     3     4   ar
    12     4     5   ar
    13     5     6   ar
    14     6     7   ar
    15     7     9    1
    16     9    10    1
    17    10    11    1
    18    11    12    1
    19    12    13    1
    20    13    14    1
    21     7     8   ar
    22    17    18   ar
    23    18    19   ar
    24    23    24   ar
    25    24    25   ar
    26    25    20   ar
    27    19    15   ar
    28     8     3   ar
    29    14     9    1
    30     1     2    1
@<TRIPOS>MOLECULE
*****
 27 30 0 0 0
SMALL
GASTEIGER

@<TRIPOS>ATOM
      1 N           9.1580   -9.7745   27.7008 N.pl3   1  UNL1       -0.2671
      2 H          10.1361   -9.8714   27.7577 H       1  UNL1        0.1565
      3 C           8.5542   -8.4404   27.3759 C.ar    1  UNL1        0.1388
      4 C           8.3285   -8.0475   25.9460 C.ar    1  UNL1        0.0552
      5 C           7.7247   -6.7134   25.6211 C.ar    1  UNL1        0.1047
      6 N           7.3465   -5.7723   26.7261 N.ar    1  UNL1       -0.2120
      7 C           7.5721   -6.1651   28.1560 C.ar    1  UNL1        0.2215
      8 N           8.1760   -7.4993   28.4810 N.ar    1  UNL1       -0.1985
      9 N           7.1939   -5.2239   29.2611 N.pl3   1  UNL1       -0.2730
     10 C           7.1613   -5.7082   30.6804 C.3     1  UNL1        0.1257
     11 C           6.7832   -4.7670   31.7854 C.3     1  UNL1        0.1637
     12 O           6.4376   -3.3416   31.4712 O.3     1  UNL1       -0.3501
     13 C           6.4702   -2.8573   30.0519 C.3     1  UNL1        0.1637
     14 C           6.8484   -3.7985   28.9469 C.3     1  UNL1        0.1257
     15 C           6.3025  -12.3505   28.2265 C.ar    1  UNL1        0.1244
     16 C           6.7717  -10.9526   27.9510 C.ar    1  UNL1        0.0785
     17 C           8.2716  -10.9609   27.9390 C.ar    1  UNL1        0.2316
     18 O           8.7295  -12.3639   28.2071 O.2     1  UNL1       -0.3381
     19 N           7.5126  -13.2227   28.3847 N.ar    1  UNL1       -0.0754
     20 C           2.0175  -13.6918   28.5257 C.ar    1  UNL1        0.1387
     21 C           2.5434  -12.6464   29.4640 C.ar    1  UNL1        0.0370
     22 C           3.9718  -12.1993   29.3643 C.ar    1  UNL1        0.0047
     23 C           4.8742  -12.7976   28.3262 C.ar    1  UNL1        0.0212
     24 C           4.3483  -13.8429   27.3879 C.ar    1  UNL1        0.0047
     25 C           2.9199  -14.2900   27.4876 C.ar    1  UNL1        0.0370
     26 C           0.2189  -15.5499   28.2765 C.3     1  UNL1        0.2525
     27 O           0.5892  -14.1389   28.6254 O.3     1  UNL1       -0.4714
@<TRIPOS>BOND
     1    26    27    1
     2    27    20    1
     3    20    21   ar
     4    21    22   ar
     5    22    23   ar
     6    23    15    1
     7    15    16   ar
     8    16    17   ar
     9    17     1    1
    10     1     3    1
    11     3     4   ar
    12     4     5   ar
    13     5     6   ar
    14     6     7   ar
    15     7     9    1
    16     9    10    1
    17    10    11    1
    18    11    12    1
    19    12    13    1
    20    13    14    1
    21     7     8   ar
    22    17    18   ar
    23    18    19   ar
    24    23    24   ar
    25    24    25   ar
    26    25    20   ar
    27    19    15   ar
    28     8     3   ar
    29    14     9    1
    30     1     2    1
@<TRIPOS>MOLECULE
*****
 27 30 0 0 0
SMALL
GASTEIGER

@<TRIPOS>ATOM
      1 N          -8.1689  -15.8317   25.8034 N.pl3   1  UNL1       -0.2671
      2 H          -8.4576  -15.2616   26.5523 H       1  UNL1        0.1565
      3 C          -9.1246  -16.8177   25.1997 C.ar    1  UNL1        0.1388
      4 C          -9.6198  -17.9768   26.0130 C.ar    1  UNL1        0.0552
      5 C         -10.5754  -18.9628   25.4092 C.ar    1  UNL1        0.1047
      6 N         -11.0359  -18.7897   23.9922 N.ar    1  UNL1       -0.2120
      7 C         -10.5409  -17.6307   23.1789 C.ar    1  UNL1        0.2215
      8 N          -9.5851  -16.6446   23.7827 N.ar    1  UNL1       -0.1985
      9 N         -11.0014  -17.4576   21.7619 N.pl3   1  UNL1       -0.2730
     10 C         -11.7346  -16.2129   21.3584 C.3     1  UNL1        0.1257
     11 C         -12.1951  -16.0398   19.9413 C.3     1  UNL1        0.1637
     12 O         -11.9224  -17.1115   18.9279 O.3     1  UNL1       -0.3501
     13 C         -11.1892  -18.3563   19.3314 C.3     1  UNL1        0.1637
     14 C         -10.7287  -18.5294   20.7484 C.3     1  UNL1        0.1257
     15 C          -4.7363  -16.1453   24.0190 C.ar    1  UNL1        0.1244
     16 C          -6.1318  -16.6346   24.2703 C.ar    1  UNL1        0.0785
     17 C          -6.7734  -15.7144   25.2661 C.ar    1  UNL1        0.2316
     18 O          -5.7744  -14.6564   25.6302 O.2     1  UNL1       -0.3381
     19 N          -4.5155  -14.9227   24.8595 N.ar    1  UNL1       -0.0754
     20 C          -1.7387  -18.0166   21.2328 C.ar    1  UNL1        0.1387
     21 C          -2.6426  -18.8860   22.0556 C.ar    1  UNL1        0.0370
     22 C          -3.6418  -18.2622   22.9843 C.ar    1  UNL1        0.0047
     23 C          -3.7371  -16.7691   23.0902 C.ar    1  UNL1        0.0212
     24 C          -2.8332  -15.8996   22.2674 C.ar    1  UNL1        0.0047
     25 C          -1.8341  -16.5234   21.3387 C.ar    1  UNL1        0.0370
     26 C           0.3750  -17.8127   19.7360 C.3     1  UNL1        0.2525
     27 O          -0.7395  -18.6403   20.3041 O.3     1  UNL1       -0.4714
@<TRIPOS>BOND
     1    26    27    1
     2    27    20    1
     3    20    21   ar
     4    21    22   ar
     5    22    23   ar
     6    23    15    1
     7    15    16   ar
     8    16    17   ar
     9    17     1    1
    10     1     3    1
    11     3     4   ar
    12     4     5   ar
    13     5     6   ar
    14     6     7   ar
    15     7     9    1
    16     9    10    1
    17    10    11    1
    18    11    12    1
    19    12    13    1
    20    13    14    1
    21     7     8   ar
    22    17    18   ar
    23    18    19   ar
    24    23    24   ar
    25    24    25   ar
    26    25    20   ar
    27    19    15   ar
    28     8     3   ar
    29    14     9    1
    30     1     2    1
@<TRIPOS>MOLECULE
*****
 27 30 0 0 0
SMALL
GASTEIGER

@<TRIPOS>ATOM
      1 N          -1.3678    3.9202   19.2709 N.pl3   1  UNL1       -0.2671
      2 H          -0.8725    4.7216   18.9851 H       1  UNL1        0.1565
      3 C          -2.8633    3.9617   19.3791 C.ar    1  UNL1        0.1388
      4 C          -3.7075    3.8720   18.1424 C.ar    1  UNL1        0.0552
      5 C          -5.2030    3.9135   18.2505 C.ar    1  UNL1        0.1047
      6 N          -5.8543    4.0447   19.5954 N.ar    1  UNL1       -0.2120
      7 C          -5.0103    4.1343   20.8320 C.ar    1  UNL1        0.2215
      8 N          -3.5147    4.0929   20.7239 N.ar    1  UNL1       -0.1985
      9 N          -5.6616    4.2655   22.1768 N.pl3   1  UNL1       -0.2730
     10 C          -7.0994    4.6813   22.2764 C.3     1  UNL1        0.1257
     11 C          -7.7507    4.8124   23.6213 C.3     1  UNL1        0.1637
     12 O          -6.9643    4.5278   24.8665 O.3     1  UNL1       -0.3501
     13 C          -5.5265    4.1121   24.7669 C.3     1  UNL1        0.1637
     14 C          -4.8752    3.9809   23.4220 C.3     1  UNL1        0.1257
     15 C           0.9618    0.8250   19.5112 C.ar    1  UNL1        0.1244
     16 C           0.5345    2.0938   18.8347 C.ar    1  UNL1        0.0785
     17 C          -0.6270    2.6577   19.5983 C.ar    1  UNL1        0.2316
     18 O          -0.9175    1.7374   20.7466 O.2     1  UNL1       -0.3381
     19 N           0.0645    0.6048   20.6928 N.ar    1  UNL1       -0.0754
     20 C           4.3424   -1.8509   18.2220 C.ar    1  UNL1        0.1387
     21 C           3.6052   -2.1351   19.4970 C.ar    1  UNL1        0.0370
     22 C           2.4784   -1.2432   19.9268 C.ar    1  UNL1        0.0047
     23 C           2.0887   -0.0670   19.0814 C.ar    1  UNL1        0.0212
     24 C           2.8258    0.2173   17.8064 C.ar    1  UNL1        0.0047
     25 C           3.9526   -0.6747   17.3766 C.ar    1  UNL1        0.0370
     26 C           6.8835   -2.3857   18.1417 C.3     1  UNL1        0.2525
     27 O           5.4692   -2.7428   17.7923 O.3     1  UNL1       -0.4714
@<TRIPOS>BOND
     1    26    27    1
     2    27    20    1
     3    20    21   ar
     4    21    22   ar
     5    22    23   ar
     6    23    15    1
     7    15    16   ar
     8    16    17   ar
     9    17     1    1
    10     1     3    1
    11     3     4   ar
    12     4     5   ar
    13     5     6   ar
    14     6     7   ar
    15     7     9    1
    16     9    10    1
    17    10    11    1
    18    11    12    1
    19    12    13    1
    20    13    14    1
    21     7     8   ar
    22    17    18   ar
    23    18    19   ar
    24    23    24   ar
    25    24    25   ar
    26    25    20   ar
    27    19    15   ar
    28     8     3   ar
    29    14     9    1
    30     1     2    1
@<TRIPOS>MOLECULE
*****
 27 30 0 0 0
SMALL
GASTEIGER

@<TRIPOS>ATOM
      1 N           6.4333   -4.6691   32.3079 N.pl3   1  UNL1       -0.2671
      2 H           5.9901   -5.1885   33.0173 H       1  UNL1        0.1565
      3 C           6.3774   -3.1703   32.3294 C.ar    1  UNL1        0.1388
      4 C           7.6009   -2.3792   32.6862 C.ar    1  UNL1        0.0552
      5 C           7.5450   -0.8804   32.7076 C.ar    1  UNL1        0.1047
      6 N           6.2657   -0.1728   32.3722 N.ar    1  UNL1       -0.2120
      7 C           5.0423   -0.9638   32.0155 C.ar    1  UNL1        0.2215
      8 N           5.0981   -2.4627   31.9940 N.ar    1  UNL1       -0.1985
      9 N           3.7629   -0.2561   31.6801 N.pl3   1  UNL1       -0.2730
     10 C           3.0027   -0.6277   30.4415 C.3     1  UNL1        0.1257
     11 C           1.7234    0.0800   30.1062 C.3     1  UNL1        0.1637
     12 O           1.2042    1.1593   31.0093 O.3     1  UNL1       -0.3501
     13 C           1.9644    1.5308   32.2479 C.3     1  UNL1        0.1637
     14 C           3.2438    0.8232   32.5833 C.3     1  UNL1        0.1257
     15 C           7.8698   -6.1075   29.0014 C.ar    1  UNL1        0.1244
     16 C           6.9151   -5.2134   29.7357 C.ar    1  UNL1        0.0785
     17 C           7.1644   -5.3767   31.2058 C.ar    1  UNL1        0.2316
     18 O           8.2732   -6.3718   31.3801 O.2     1  UNL1       -0.3381
     19 N           8.7091   -6.8234   30.0178 N.ar    1  UNL1       -0.0754
     20 C           8.1642   -6.5622   24.5342 C.ar    1  UNL1        0.1387
     21 C           8.3027   -5.2065   25.1608 C.ar    1  UNL1        0.0370
     22 C           8.2046   -5.0549   26.6499 C.ar    1  UNL1        0.0047
     23 C           7.9680   -6.2591   27.5123 C.ar    1  UNL1        0.0212
     24 C           7.8295   -7.6148   26.8857 C.ar    1  UNL1        0.0047
     25 C           7.9276   -7.7664   25.3966 C.ar    1  UNL1        0.0370
     26 C           8.7253   -5.5622   22.2029 C.3     1  UNL1        0.2525
     27 O           8.2624   -6.7138   23.0451 O.3     1  UNL1       -0.4714
@<TRIPOS>BOND
     1    26    27    1
     2    27    20    1
     3    20    21   ar
     4    21    22   ar
     5    22    23   ar
     6    23    15    1
     7    15    16   ar
     8    16    17   ar
     9    17     1    1
    10     1     3    1
    11     3     4   ar
    12     4     5   ar
    13     5     6   ar
    14     6     7   ar
    15     7     9    1
    16     9    10    1
    17    10    11    1
    18    11    12    1
    19    12    13    1
    20    13    14    1
    21     7     8   ar
    22    17    18   ar
    23    18    19   ar
    24    23    24   ar
    25    24    25   ar
    26    25    20   ar
    27    19    15   ar
    28     8     3   ar
    29    14     9    1
    30     1     2    1
@<TRIPOS>MOLECULE
*****
 27 30 0 0 0
SMALL
GASTEIGER

@<TRIPOS>ATOM
      1 N          -9.1351  -15.3456   24.6074 N.pl3   1  UNL1       -0.2671
      2 H          -9.6782  -14.6473   25.0393 H       1  UNL1        0.1565
      3 C          -7.7106  -15.5552   25.0278 C.ar    1  UNL1        0.1388
      4 C          -7.2967  -15.2734   26.4418 C.ar    1  UNL1        0.0552
      5 C          -5.8722  -15.4830   26.8622 C.ar    1  UNL1        0.1047
      6 N          -4.8615  -15.9744   25.8686 N.ar    1  UNL1       -0.2120
      7 C          -5.2753  -16.2563   24.4548 C.ar    1  UNL1        0.2215
      8 N          -6.7000  -16.0467   24.0343 N.ar    1  UNL1       -0.1985
      9 N          -4.2647  -16.7477   23.4612 N.pl3   1  UNL1       -0.2730
     10 C          -3.3723  -15.7714   22.7538 C.3     1  UNL1        0.1257
     11 C          -2.3617  -16.2628   21.7603 C.3     1  UNL1        0.1637
     12 O          -2.2435  -17.7306   21.4741 O.3     1  UNL1       -0.3501
     13 C          -3.1359  -18.7068   22.1815 C.3     1  UNL1        0.1637
     14 C          -4.1465  -18.2154   23.1751 C.3     1  UNL1        0.1257
     15 C          -9.9656  -17.7516   21.6770 C.ar    1  UNL1        0.1244
     16 C          -8.9743  -17.0850   22.5841 C.ar    1  UNL1        0.0785
     17 C          -9.7322  -16.2001   23.5288 C.ar    1  UNL1        0.2316
     18 O         -11.1921  -16.3198   23.2056 O.2     1  UNL1       -0.3381
     19 N         -11.3363  -17.2786   22.0611 N.ar    1  UNL1       -0.0754
     20 C          -8.9977  -20.6594   18.3819 C.ar    1  UNL1        0.1387
     21 C          -7.9464  -20.2840   19.3837 C.ar    1  UNL1        0.0370
     22 C          -8.2690  -19.3148   20.4821 C.ar    1  UNL1        0.0047
     23 C          -9.6430  -18.7208   20.5786 C.ar    1  UNL1        0.0212
     24 C         -10.6944  -19.0962   19.5768 C.ar    1  UNL1        0.0047
     25 C         -10.3717  -20.0655   18.4784 C.ar    1  UNL1        0.0370
     26 C          -9.4183  -21.5623   15.9823 C.3     1  UNL1        0.2525
     27 O          -8.6751  -21.6287   17.2835 O.3     1  UNL1       -0.4714
@<TRIPOS>BOND
     1    26    27    1
     2    27    20    1
     3    20    21   ar
     4    21    22   ar
     5    22    23   ar
     6    23    15    1
     7    15    16   ar
     8    16    17   ar
     9    17     1    1
    10     1     3    1
    11     3     4   ar
    12     4     5   ar
    13     5     6   ar
    14     6     7   ar
    15     7     9    1
    16     9    10    1
    17    10    11    1
    18    11    12    1
    19    12    13    1
    20    13    14    1
    21     7     8   ar
    22    17    18   ar
    23    18    19   ar
    24    23    24   ar
    25    24    25   ar
    26    25    20   ar
    27    19    15   ar
    28     8     3   ar
    29    14     9    1
    30     1     2    1
@<TRIPOS>MOLECULE
*****
 27 30 0 0 0
SMALL
GASTEIGER

@<TRIPOS>ATOM
      1 N           1.4980    1.9001   26.4477 N.pl3   1  UNL1       -0.2671
      2 H           1.4596    2.8137   26.0827 H       1  UNL1        0.1565
      3 C           0.7498    1.5619   27.7029 C.ar    1  UNL1        0.1388
      4 C          -0.4155    0.6189   27.6505 C.ar    1  UNL1        0.0552
      5 C          -1.1637    0.2806   28.9058 C.ar    1  UNL1        0.1047
      6 N          -0.7465    0.8853   30.2135 N.ar    1  UNL1       -0.2120
      7 C           0.4187    1.8283   30.2661 C.ar    1  UNL1        0.2215
      8 N           1.1670    2.1666   29.0107 N.ar    1  UNL1       -0.1985
      9 N           0.8359    2.4330   31.5738 N.pl3   1  UNL1       -0.2730
     10 C           0.2666    3.7518   32.0058 C.3     1  UNL1        0.1257
     11 C           0.6838    4.3566   33.3135 C.3     1  UNL1        0.1637
     12 O           1.6702    3.6425   34.1894 O.3     1  UNL1       -0.3501
     13 C           2.2395    2.3237   33.7574 C.3     1  UNL1        0.1637
     14 C           1.8223    1.7189   32.4497 C.3     1  UNL1        0.1257
     15 C           3.1653   -0.6464   24.0392 C.ar    1  UNL1        0.1244
     16 C           2.1626    0.4351   24.3129 C.ar    1  UNL1        0.0785
     17 C           2.3048    0.8464   25.7484 C.ar    1  UNL1        0.2316
     18 O           3.3953    0.0191   26.3618 O.2     1  UNL1       -0.3381
     19 N           3.9271   -0.9035   25.3055 N.ar    1  UNL1       -0.0754
     20 C           3.7799   -2.7504   20.1090 C.ar    1  UNL1        0.1387
     21 C           2.8935   -1.5425   20.1826 C.ar    1  UNL1        0.0370
     22 C           2.6887   -0.8412   21.4926 C.ar    1  UNL1        0.0047
     23 C           3.3701   -1.3477   22.7291 C.ar    1  UNL1        0.0212
     24 C           4.2565   -2.5556   22.6556 C.ar    1  UNL1        0.0047
     25 C           4.4614   -3.2569   21.3455 C.ar    1  UNL1        0.0370
     26 C           4.6205   -4.8098   18.7667 C.3     1  UNL1        0.2525
     27 O           3.9847   -3.4517   18.7990 O.3     1  UNL1       -0.4714
@<TRIPOS>BOND
     1    26    27    1
     2    27    20    1
     3    20    21   ar
     4    21    22   ar
     5    22    23   ar
     6    23    15    1
     7    15    16   ar
     8    16    17   ar
     9    17     1    1
    10     1     3    1
    11     3     4   ar
    12     4     5   ar
    13     5     6   ar
    14     6     7   ar
    15     7     9    1
    16     9    10    1
    17    10    11    1
    18    11    12    1
    19    12    13    1
    20    13    14    1
    21     7     8   ar
    22    17    18   ar
    23    18    19   ar
    24    23    24   ar
    25    24    25   ar
    26    25    20   ar
    27    19    15   ar
    28     8     3   ar
    29    14     9    1
    30     1     2    1
@<TRIPOS>MOLECULE
*****
 27 30 0 0 0
SMALL
GASTEIGER

@<TRIPOS>ATOM
      1 N          -5.8615  -15.1013   23.5582 N.pl3   1  UNL1       -0.2671
      2 H          -5.7185  -14.1978   23.9221 H       1  UNL1        0.1565
      3 C          -4.7324  -16.0885   23.5369 C.ar    1  UNL1        0.1388
      4 C          -4.3806  -16.8525   24.7789 C.ar    1  UNL1        0.0552
      5 C          -3.2515  -17.8398   24.7577 C.ar    1  UNL1        0.1047
      6 N          -2.4742  -18.0630   23.4944 N.ar    1  UNL1       -0.2120
      7 C          -2.8259  -17.2991   22.2524 C.ar    1  UNL1        0.2215
      8 N          -3.9551  -16.3118   22.2736 N.ar    1  UNL1       -0.1985
      9 N          -2.0486  -17.5224   20.9891 N.pl3   1  UNL1       -0.2730
     10 C          -2.7709  -17.7397   19.6926 C.3     1  UNL1        0.1257
     11 C          -1.9936  -17.9630   18.4293 C.3     1  UNL1        0.1637
     12 O          -0.4940  -17.9689   18.4625 O.3     1  UNL1       -0.3501
     13 C           0.2284  -17.7516   19.7590 C.3     1  UNL1        0.1637
     14 C          -0.5489  -17.5284   21.0223 C.3     1  UNL1        0.1257
     15 C          -9.4843  -16.3225   22.8881 C.ar    1  UNL1        0.1244
     16 C          -8.3290  -16.0958   23.8175 C.ar    1  UNL1        0.0785
     17 C          -7.2083  -15.4907   23.0250 C.ar    1  UNL1        0.2316
     18 O          -7.6710  -15.3436   21.6058 O.2     1  UNL1       -0.3381
     19 N          -9.0777  -15.8576   21.5212 N.ar    1  UNL1       -0.0754
     20 C         -13.4704  -18.0874   24.0045 C.ar    1  UNL1        0.1387
     21 C         -13.4038  -16.9189   23.0665 C.ar    1  UNL1        0.0370
     22 C         -12.0752  -16.3306   22.6943 C.ar    1  UNL1        0.0047
     23 C         -10.8130  -16.9108   23.2602 C.ar    1  UNL1        0.0212
     24 C         -10.8796  -18.0794   24.1983 C.ar    1  UNL1        0.0047
     25 C         -12.2082  -18.6677   24.5705 C.ar    1  UNL1        0.0370
     26 C         -15.2247  -18.7172   25.8144 C.3     1  UNL1        0.2525
     27 O         -14.7991  -18.6758   24.3767 O.3     1  UNL1       -0.4714
@<TRIPOS>BOND
     1    26    27    1
     2    27    20    1
     3    20    21   ar
     4    21    22   ar
     5    22    23   ar
     6    23    15    1
     7    15    16   ar
     8    16    17   ar
     9    17     1    1
    10     1     3    1
    11     3     4   ar
    12     4     5   ar
    13     5     6   ar
    14     6     7   ar
    15     7     9    1
    16     9    10    1
    17    10    11    1
    18    11    12    1
    19    12    13    1
    20    13    14    1
    21     7     8   ar
    22    17    18   ar
    23    18    19   ar
    24    23    24   ar
    25    24    25   ar
    26    25    20   ar
    27    19    15   ar
    28     8     3   ar
    29    14     9    1
    30     1     2    1
@<TRIPOS>MOLECULE
*****
 27 30 0 0 0
SMALL
GASTEIGER

@<TRIPOS>ATOM
      1 N           8.8739   -4.8746   23.8481 N.pl3   1  UNL1       -0.2671
      2 H           9.7927   -4.5314   23.7632 H       1  UNL1        0.1565
      3 C           8.4952   -5.7202   25.0278 C.ar    1  UNL1        0.1388
      4 C           8.5025   -7.2157   24.9118 C.ar    1  UNL1        0.0552
      5 C           8.1237   -8.0613   26.0915 C.ar    1  UNL1        0.1047
      6 N           7.7377   -7.4113   27.3870 N.ar    1  UNL1       -0.2120
      7 C           7.7304   -5.9159   27.5031 C.ar    1  UNL1        0.2215
      8 N           8.1091   -5.0702   26.3233 N.ar    1  UNL1       -0.1985
      9 N           7.3443   -5.2659   28.7986 N.pl3   1  UNL1       -0.2730
     10 C           7.4613   -6.0291   30.0846 C.3     1  UNL1        0.1257
     11 C           7.0753   -5.3791   31.3802 C.3     1  UNL1        0.1637
     12 O           6.5722   -3.9660   31.3898 O.3     1  UNL1       -0.3501
     13 C           6.4552   -3.2029   30.1037 C.3     1  UNL1        0.1637
     14 C           6.8413   -3.8528   28.8082 C.3     1  UNL1        0.1257
     15 C           5.9533   -3.5699   21.6497 C.ar    1  UNL1        0.1244
     16 C           6.7218   -3.5766   22.9378 C.ar    1  UNL1        0.0785
     17 C           7.8527   -4.5520   22.7979 C.ar    1  UNL1        0.2316
     18 O           7.7831   -5.1482   21.4232 O.2     1  UNL1       -0.3381
     19 N           6.6092   -4.5412   20.7136 N.ar    1  UNL1       -0.0754
     20 C           2.3182   -1.0741   20.7514 C.ar    1  UNL1        0.1387
     21 C           2.9275   -1.9255   19.6773 C.ar    1  UNL1        0.0370
     22 C           4.1392   -2.7574   19.9767 C.ar    1  UNL1        0.0047
     23 C           4.7416   -2.7380   21.3503 C.ar    1  UNL1        0.0212
     24 C           4.1322   -1.8866   22.4244 C.ar    1  UNL1        0.0047
     25 C           2.9205   -1.0547   22.1250 C.ar    1  UNL1        0.0370
     26 C           1.0676    0.6092   19.2176 C.3     1  UNL1        0.2525
     27 O           1.1065   -0.2422   20.4519 O.3     1  UNL1       -0.4714
@<TRIPOS>BOND
     1    26    27    1
     2    27    20    1
     3    20    21   ar
     4    21    22   ar
     5    22    23   ar
     6    23    15    1
     7    15    16   ar
     8    16    17   ar
     9    17     1    1
    10     1     3    1
    11     3     4   ar
    12     4     5   ar
    13     5     6   ar
    14     6     7   ar
    15     7     9    1
    16     9    10    1
    17    10    11    1
    18    11    12    1
    19    12    13    1
    20    13    14    1
    21     7     8   ar
    22    17    18   ar
    23    18    19   ar
    24    23    24   ar
    25    24    25   ar
    26    25    20   ar
    27    19    15   ar
    28     8     3   ar
    29    14     9    1
    30     1     2    1
