@<TRIPOS>MOLECULE
*****
 28 31 0 0 0
SMALL
GASTEIGER

@<TRIPOS>ATOM
      1 C          -9.3425  -18.9718   21.6350 C.3     1  UNL1        0.1139
      2 C          -7.9188  -19.3619   21.3690 C.ar    1  UNL1       -0.0029
      3 C          -6.8693  -19.1290   22.4152 C.ar    1  UNL1       -0.0026
      4 C          -5.4456  -19.5190   22.1492 C.ar    1  UNL1       -0.0003
      5 C          -5.0712  -20.1420   20.8370 C.ar    1  UNL1       -0.0000
      6 C          -6.1206  -20.3749   19.7908 C.ar    1  UNL1       -0.0003
      7 C          -7.5444  -19.9848   20.0568 C.ar    1  UNL1       -0.0026
      8 C         -10.7680  -18.0619   19.6627 C.3     1  UNL1        0.1153
      9 N          -9.9539  -17.8169   20.8985 N.am    1  UNL1       -0.2714
     10 C          -9.7512  -16.4171   21.3978 C.2     1  UNL1        0.2665
     11 O         -10.3625  -15.2622   20.6613 O.2     1  UNL1       -0.2710
     12 C          -8.9370  -16.1721   22.6336 C.3     1  UNL1        0.2456
     13 C          -9.4375  -16.2359   24.0462 C.3     1  UNL1        0.0825
     14 C          -8.2893  -15.9235   24.9594 C.ar    1  UNL1        0.0159
     15 C          -8.1893  -15.8398   26.4537 C.ar    1  UNL1       -0.0011
     16 C          -6.8792  -15.4992   27.0998 C.ar    1  UNL1       -0.0001
     17 C          -5.6690  -15.2423   26.2516 C.ar    1  UNL1        0.0031
     18 C          -5.7689  -15.3260   24.7573 C.ar    1  UNL1        0.0366
     19 C          -7.0791  -15.6666   24.1112 C.ar    1  UNL1        0.1352
     20 O          -7.4794  -15.8202   22.6738 O.3     1  UNL1       -0.4699
     21 C         -10.1549  -19.7367   22.6375 C.3     1  UNL1        0.0968
     22 N         -11.4062  -19.1348   23.2049 N.3     1  UNL1       -0.2689
     23 C         -12.3953  -18.2900   22.4581 C.3     1  UNL1        0.0748
     24 C         -13.4885  -17.9050   23.4103 C.3     1  UNL1        0.0480
     25 C         -13.1749  -18.5120   24.7457 C.3     1  UNL1        0.1278
     26 O         -14.0030  -18.3818   25.9897 O.3     1  UNL1       -0.3830
     27 C         -11.8880  -19.2720   24.6188 C.3     1  UNL1        0.1017
     28 H         -13.5783  -18.8688   26.7132 H       1  UNL1        0.2104
@<TRIPOS>BOND
     1     8     9    1
     2     9    10   am
     3    10    11    2
     4    12    10    1
     5    12    13    1
     6    13    14    1
     7    14    15   ar
     8    15    16   ar
     9    16    17   ar
    10    17    18   ar
    11    18    19   ar
    12    19    20    1
    13     9     1    1
    14     1    21    1
    15    21    22    1
    16    22    23    1
    17    23    24    1
    18    24    25    1
    19    25    26    1
    20    25    27    1
    21     1     2    1
    22     2     3   ar
    23     3     4   ar
    24     4     5   ar
    25     5     6   ar
    26     6     7   ar
    27    20    12    1
    28    27    22    1
    29     7     2   ar
    30    19    14   ar
    31    26    28    1
@<TRIPOS>MOLECULE
*****
 28 31 0 0 0
SMALL
GASTEIGER

@<TRIPOS>ATOM
      1 C          -6.6065  -19.1182   21.6942 C.3     1  UNL1        0.1139
      2 C          -8.0239  -19.5305   21.9601 C.ar    1  UNL1       -0.0029
      3 C          -9.0452  -19.4549   20.8639 C.ar    1  UNL1       -0.0026
      4 C         -10.4627  -19.8672   21.1298 C.ar    1  UNL1       -0.0003
      5 C         -10.8590  -20.3550   22.4917 C.ar    1  UNL1       -0.0000
      6 C          -9.8379  -20.4306   23.5879 C.ar    1  UNL1       -0.0003
      7 C          -8.4203  -20.0183   23.3220 C.ar    1  UNL1       -0.0026
      8 C          -4.5080  -18.3117   22.9966 C.3     1  UNL1        0.1153
      9 N          -5.9373  -18.1149   22.5863 N.am    1  UNL1       -0.2714
     10 C          -6.6974  -16.9149   23.0681 C.2     1  UNL1        0.2665
     11 O          -6.0282  -15.9118   23.9602 O.2     1  UNL1       -0.2710
     12 C          -8.1267  -16.7181   22.6579 C.3     1  UNL1        0.2456
     13 C          -9.3254  -16.8417   23.5511 C.3     1  UNL1        0.0825
     14 C         -10.5479  -16.5631   22.7277 C.ar    1  UNL1        0.0159
     15 C         -12.0072  -16.5405   23.0735 C.ar    1  UNL1       -0.0011
     16 C         -13.0235  -16.2222   22.0172 C.ar    1  UNL1       -0.0001
     17 C         -12.5803  -15.9265   20.6150 C.ar    1  UNL1        0.0031
     18 C         -11.1209  -15.9491   20.2691 C.ar    1  UNL1        0.0366
     19 C         -10.1047  -16.2674   21.3255 C.ar    1  UNL1        0.1352
     20 O          -8.6084  -16.3632   21.2824 O.3     1  UNL1       -0.4699
     21 C          -5.8581  -19.7091   20.5363 C.3     1  UNL1        0.0968
     22 N          -4.4164  -19.3578   20.3172 N.3     1  UNL1       -0.2689
     23 C          -3.2393  -20.0116   20.9783 C.3     1  UNL1        0.0748
     24 C          -1.9941  -19.3488   20.4682 C.3     1  UNL1        0.0480
     25 C          -2.4016  -18.2854   19.4920 C.3     1  UNL1        0.1278
     26 O          -1.4747  -17.3760   18.7409 O.3     1  UNL1       -0.3830
     27 C          -3.8986  -18.2909   19.3987 C.3     1  UNL1        0.1017
     28 H          -1.9926  -16.7814   18.1760 H       1  UNL1        0.2104
@<TRIPOS>BOND
     1     8     9    1
     2     9    10   am
     3    10    11    2
     4    12    10    1
     5    12    13    1
     6    13    14    1
     7    14    15   ar
     8    15    16   ar
     9    16    17   ar
    10    17    18   ar
    11    18    19   ar
    12    19    20    1
    13     9     1    1
    14     1    21    1
    15    21    22    1
    16    22    23    1
    17    23    24    1
    18    24    25    1
    19    25    26    1
    20    25    27    1
    21     1     2    1
    22     2     3   ar
    23     3     4   ar
    24     4     5   ar
    25     5     6   ar
    26     6     7   ar
    27    20    12    1
    28    27    22    1
    29     7     2   ar
    30    19    14   ar
    31    26    28    1
