@<TRIPOS>MOLECULE
*****
 45 49 0 0 0
SMALL
GASTEIGER

@<TRIPOS>ATOM
      1 N           5.7124   -3.5502   24.5044 N.am    1  UNL1       -0.2825
      2 C           7.1893   -3.3556   24.6797 C.2     1  UNL1        0.2461
      3 O           7.9987   -2.7290   23.5832 O.2     1  UNL1       -0.2729
      4 H           5.1812   -3.9614   25.2241 H       1  UNL1        0.1549
      5 C           3.7094   -2.2538   20.6889 C.ar    1  UNL1       -0.0022
      6 C           3.6135   -1.3956   21.9154 C.ar    1  UNL1       -0.0017
      7 C           4.2811   -1.8277   23.1872 C.ar    1  UNL1        0.0144
      8 C           5.0447   -3.1180   23.2325 C.ar    1  UNL1        0.0503
      9 C           5.1406   -3.9762   22.0061 C.ar    1  UNL1        0.0182
     10 C           4.4730   -3.5441   20.7342 C.ar    1  UNL1        0.0700
     11 C           4.5689   -4.4023   19.5077 C.3     1  UNL1        0.4184
     12 F           4.6648   -5.2605   18.2813 F       1  UNL1       -0.1659
     13 F           3.3428   -5.1524   19.9367 F       1  UNL1       -0.1659
     14 F           5.7950   -3.6522   19.0788 F       1  UNL1       -0.1659
     15 C           3.0417   -1.8217   19.4171 C.3     1  UNL1        0.0992
     16 N           0.8724    2.1169   19.2405 N.3     1  UNL1       -0.2703
     17 C           2.2021    1.9621   18.5639 C.3     1  UNL1        0.0897
     18 C           2.9252    0.6492   18.6228 C.3     1  UNL1        0.0899
     19 N           2.3186   -0.5088   19.3582 N.3     1  UNL1       -0.2665
     20 C           0.9889   -0.3540   20.0348 C.3     1  UNL1        0.0899
     21 C           0.2658    0.9589   19.9759 C.3     1  UNL1        0.0897
     22 C          -0.8376    3.6939   18.0833 C.3     1  UNL1        0.0188
     23 C           0.1493    3.4298   19.1816 C.3     1  UNL1        0.0722
     24 C           7.8569   -3.7878   25.9515 C.3     1  UNL1        0.1739
     25 N           7.0876   -4.5709   26.9738 N.pl3   1  UNL1       -0.3253
     26 H           6.7996   -5.4910   26.7745 H       1  UNL1        0.1473
     27 C           6.7573   -3.9523   28.2997 C.ar    1  UNL1        0.0450
     28 C           6.1865   -2.5664   28.3593 C.ar    1  UNL1        0.0143
     29 C           5.8561   -1.9477   29.6852 C.ar    1  UNL1        0.0013
     30 C           6.0965   -2.7149   30.9516 C.ar    1  UNL1        0.0016
     31 C           6.6672   -4.1008   30.8919 C.ar    1  UNL1        0.0013
     32 C           6.9976   -4.7195   29.5660 C.ar    1  UNL1        0.0143
     33 C           5.7661   -2.0962   32.2774 C.ar    1  UNL1        0.0193
     34 C           6.7539   -1.1885   32.9486 C.ar    1  UNL1        0.0044
     35 C           6.4235   -0.5698   34.2745 C.ar    1  UNL1        0.0345
     36 C           5.1054   -0.8588   34.9293 C.ar    1  UNL1        0.1342
     37 N           4.1175   -1.7665   34.2583 N.ar    1  UNL1       -0.2290
     38 C           4.4479   -2.3852   32.9323 C.ar    1  UNL1        0.1003
     39 N           4.7750   -0.2402   36.2552 N.am    1  UNL1       -0.2694
     40 C           3.9713    1.0251   36.3131 C.2     1  UNL1        0.2267
     41 O           3.4981    1.6717   35.0450 O.2     1  UNL1       -0.2748
     42 H           5.0856   -0.6645   37.0875 H       1  UNL1        0.1563
     43 C           3.6410    1.6438   37.6390 C.3     1  UNL1        0.0769
     44 C           4.0773    2.3552   38.8853 C.3     1  UNL1        0.0096
     45 C           2.6323    2.0039   38.6892 C.3     1  UNL1        0.0096
@<TRIPOS>BOND
     1    22    23    1
     2    23    16    1
     3    16    17    1
     4    17    18    1
     5    18    19    1
     6    19    15    1
     7    15     5    1
     8     5     6   ar
     9     6     7   ar
    10     7     8   ar
    11     8     1    1
    12     1     2   am
    13     2     3    2
    14     2    24    1
    15    24    25    1
    16    25    27    1
    17    27    28   ar
    18    28    29   ar
    19    29    30   ar
    20    30    33    1
    21    33    34   ar
    22    34    35   ar
    23    35    36   ar
    24    36    39    1
    25    39    40   am
    26    40    41    2
    27    40    43    1
    28    43    44    1
    29    44    45    1
    30    36    37   ar
    31    37    38   ar
    32    30    31   ar
    33    31    32   ar
    34     8     9   ar
    35     9    10   ar
    36    10    11    1
    37    11    12    1
    38    11    13    1
    39    11    14    1
    40    19    20    1
    41    20    21    1
    42    21    16    1
    43    10     5   ar
    44    32    27   ar
    45    38    33   ar
    46    45    43    1
    47     1     4    1
    48    25    26    1
    49    39    42    1
@<TRIPOS>MOLECULE
*****
 45 49 0 0 0
SMALL
GASTEIGER

@<TRIPOS>ATOM
      1 N           5.7796   -3.6715   24.3019 N.am    1  UNL1       -0.2825
      2 C           6.7524   -4.7099   24.7763 C.2     1  UNL1        0.2461
      3 O           7.7051   -5.3439   23.8066 O.2     1  UNL1       -0.2729
      4 H           5.1543   -3.2554   24.9384 H       1  UNL1        0.1549
      5 C           5.7189   -2.4580   19.9689 C.ar    1  UNL1       -0.0022
      6 C           6.7518   -1.8854   20.8938 C.ar    1  UNL1       -0.0017
      7 C           6.7720   -2.2899   22.3381 C.ar    1  UNL1        0.0144
      8 C           5.7593   -3.2670   22.8575 C.ar    1  UNL1        0.0503
      9 C           4.7265   -3.8395   21.9327 C.ar    1  UNL1        0.0182
     10 C           4.7063   -3.4350   20.4884 C.ar    1  UNL1        0.0700
     11 C           3.6734   -4.0076   19.5635 C.3     1  UNL1        0.4184
     12 F           2.6406   -4.5802   18.6387 F       1  UNL1       -0.1659
     13 F           2.8072   -2.8033   19.7853 F       1  UNL1       -0.1659
     14 F           4.5396   -5.2120   19.3418 F       1  UNL1       -0.1659
     15 C           5.6988   -2.0534   18.5247 C.3     1  UNL1        0.0992
     16 N           5.6637    2.3060   17.4093 N.3     1  UNL1       -0.2703
     17 C           4.5430    1.7312   18.2240 C.3     1  UNL1        0.0897
     18 C           4.5547    0.2781   18.5958 C.3     1  UNL1        0.0899
     19 N           5.6871   -0.6003   18.1529 N.3     1  UNL1       -0.2665
     20 C           6.8077   -0.0255   17.3382 C.3     1  UNL1        0.0899
     21 C           6.7960    1.4276   16.9664 C.3     1  UNL1        0.0897
     22 C           4.4031    4.5698   17.2193 C.3     1  UNL1        0.0188
     23 C           5.6520    3.7591   17.0375 C.3     1  UNL1        0.0722
     24 C           6.7726   -5.1143   26.2206 C.3     1  UNL1        0.1739
     25 N           7.7645   -4.4940   27.1594 N.pl3   1  UNL1       -0.3253
     26 H           8.7210   -4.4810   26.9268 H       1  UNL1        0.1473
     27 C           7.2990   -3.8934   28.4527 C.ar    1  UNL1        0.0450
     28 C           6.8954   -2.4498   28.5069 C.ar    1  UNL1        0.0143
     29 C           6.4299   -1.8491   29.8002 C.ar    1  UNL1        0.0013
     30 C           6.3680   -2.6922   31.0393 C.ar    1  UNL1        0.0016
     31 C           6.7717   -4.1359   30.9851 C.ar    1  UNL1        0.0013
     32 C           7.2372   -4.7365   29.6918 C.ar    1  UNL1        0.0143
     33 C           5.9025   -2.0916   32.3326 C.ar    1  UNL1        0.0193
     34 C           6.7977   -1.1564   33.0904 C.ar    1  UNL1        0.0044
     35 C           6.3322   -0.5558   34.3836 C.ar    1  UNL1        0.0345
     36 C           4.9716   -0.8904   34.9192 C.ar    1  UNL1        0.1342
     37 N           4.0765   -1.8256   34.1615 N.ar    1  UNL1       -0.2290
     38 C           4.5420   -2.4262   32.8682 C.ar    1  UNL1        0.1003
     39 N           4.5061   -0.2899   36.2125 N.am    1  UNL1       -0.2694
     40 C           3.8731    1.0700   36.2230 C.2     1  UNL1        0.2267
     41 O           3.7056    1.8293   34.9403 O.2     1  UNL1       -0.2748
     42 H           4.6161   -0.7882   37.0544 H       1  UNL1        0.1563
     43 C           3.4076    1.6706   37.5163 C.3     1  UNL1        0.0769
     44 C           2.3158    1.9203   38.5140 C.3     1  UNL1        0.0096
     45 C           3.6933    2.4612   38.7586 C.3     1  UNL1        0.0096
@<TRIPOS>BOND
     1    22    23    1
     2    23    16    1
     3    16    17    1
     4    17    18    1
     5    18    19    1
     6    19    15    1
     7    15     5    1
     8     5     6   ar
     9     6     7   ar
    10     7     8   ar
    11     8     1    1
    12     1     2   am
    13     2     3    2
    14     2    24    1
    15    24    25    1
    16    25    27    1
    17    27    28   ar
    18    28    29   ar
    19    29    30   ar
    20    30    33    1
    21    33    34   ar
    22    34    35   ar
    23    35    36   ar
    24    36    39    1
    25    39    40   am
    26    40    41    2
    27    40    43    1
    28    43    44    1
    29    44    45    1
    30    36    37   ar
    31    37    38   ar
    32    30    31   ar
    33    31    32   ar
    34     8     9   ar
    35     9    10   ar
    36    10    11    1
    37    11    12    1
    38    11    13    1
    39    11    14    1
    40    19    20    1
    41    20    21    1
    42    21    16    1
    43    10     5   ar
    44    32    27   ar
    45    38    33   ar
    46    45    43    1
    47     1     4    1
    48    25    26    1
    49    39    42    1
@<TRIPOS>MOLECULE
*****
 45 49 0 0 0
SMALL
GASTEIGER

@<TRIPOS>ATOM
      1 N           1.9386    0.2810   21.3670 N.am    1  UNL1       -0.2825
      2 C           1.5330    1.3525   20.3989 C.2     1  UNL1        0.2461
      3 O           2.4061    1.6686   19.2208 O.2     1  UNL1       -0.2729
      4 H           1.3656    0.0735   22.1402 H       1  UNL1        0.1549
      5 C           5.7752   -1.9851   20.7374 C.ar    1  UNL1       -0.0022
      6 C           5.7678   -0.7410   21.5754 C.ar    1  UNL1       -0.0017
      7 C           4.4890    0.0144   21.7852 C.ar    1  UNL1        0.0144
      8 C           3.2175   -0.4744   21.1571 C.ar    1  UNL1        0.0503
      9 C           3.2248   -1.7185   20.3192 C.ar    1  UNL1        0.0182
     10 C           4.5037   -2.4739   20.1093 C.ar    1  UNL1        0.0700
     11 C           4.5110   -3.7180   19.2714 C.3     1  UNL1        0.4184
     12 F           4.5184   -4.9621   18.4335 F       1  UNL1       -0.1659
     13 F           4.2562   -4.5447   20.4968 F       1  UNL1       -0.1659
     14 F           4.7658   -2.8912   18.0461 F       1  UNL1       -0.1659
     15 C           7.0540   -2.7405   20.5276 C.3     1  UNL1        0.0992
     16 N           8.1416   -6.1315   23.2786 N.3     1  UNL1       -0.2703
     17 C           8.7748   -6.0333   21.9224 C.3     1  UNL1        0.0897
     18 C           8.4123   -4.9030   21.0054 C.3     1  UNL1        0.0899
     19 N           7.4165   -3.8708   21.4446 N.3     1  UNL1       -0.2665
     20 C           6.7833   -3.9689   22.8008 C.3     1  UNL1        0.0899
     21 C           7.1458   -5.0993   23.7178 C.3     1  UNL1        0.0897
     22 C           7.7577   -7.4525   25.4826 C.3     1  UNL1        0.0188
     23 C           8.5042   -7.2618   24.1956 C.3     1  UNL1        0.0722
     24 C           0.2542    2.1078   20.6088 C.3     1  UNL1        0.1739
     25 N           0.0197    2.8429   21.8952 N.pl3   1  UNL1       -0.3253
     26 H           0.7789    3.0611   22.4828 H       1  UNL1        0.1473
     27 C          -1.3713    3.2455   22.2862 C.ar    1  UNL1        0.0450
     28 C          -1.6727    3.6177   23.7076 C.ar    1  UNL1        0.0143
     29 C          -3.0638    4.0203   24.0987 C.ar    1  UNL1        0.0013
     30 C          -4.1534    4.0508   23.0682 C.ar    1  UNL1        0.0016
     31 C          -3.8519    3.6786   21.6467 C.ar    1  UNL1        0.0013
     32 C          -2.4609    3.2760   21.2557 C.ar    1  UNL1        0.0143
     33 C          -5.5444    4.4534   23.4592 C.ar    1  UNL1        0.0193
     34 C          -5.8439    4.8344   24.8789 C.ar    1  UNL1        0.0044
     35 C          -7.2349    5.2370   25.2699 C.ar    1  UNL1        0.0345
     36 C          -8.3265    5.2587   24.2413 C.ar    1  UNL1        0.1342
     37 N          -8.0271    4.8777   22.8218 N.ar    1  UNL1       -0.2290
     38 C          -6.6360    4.4751   22.4307 C.ar    1  UNL1        0.1003
     39 N          -9.7175    5.6613   24.6323 N.am    1  UNL1       -0.2694
     40 C         -10.8231    4.6475   24.6203 C.2     1  UNL1        0.2267
     41 O         -10.5375    3.2312   24.2173 O.2     1  UNL1       -0.2748
     42 H          -9.9049    6.5909   24.8968 H       1  UNL1        0.1563
     43 C         -12.2141    5.0501   25.0113 C.3     1  UNL1        0.0769
     44 C         -13.1968    6.1131   25.4039 C.3     1  UNL1        0.0096
     45 C         -13.6407    4.6844   25.2960 C.3     1  UNL1        0.0096
@<TRIPOS>BOND
     1    22    23    1
     2    23    16    1
     3    16    17    1
     4    17    18    1
     5    18    19    1
     6    19    15    1
     7    15     5    1
     8     5     6   ar
     9     6     7   ar
    10     7     8   ar
    11     8     1    1
    12     1     2   am
    13     2     3    2
    14     2    24    1
    15    24    25    1
    16    25    27    1
    17    27    28   ar
    18    28    29   ar
    19    29    30   ar
    20    30    33    1
    21    33    34   ar
    22    34    35   ar
    23    35    36   ar
    24    36    39    1
    25    39    40   am
    26    40    41    2
    27    40    43    1
    28    43    44    1
    29    44    45    1
    30    36    37   ar
    31    37    38   ar
    32    30    31   ar
    33    31    32   ar
    34     8     9   ar
    35     9    10   ar
    36    10    11    1
    37    11    12    1
    38    11    13    1
    39    11    14    1
    40    19    20    1
    41    20    21    1
    42    21    16    1
    43    10     5   ar
    44    32    27   ar
    45    38    33   ar
    46    45    43    1
    47     1     4    1
    48    25    26    1
    49    39    42    1
@<TRIPOS>MOLECULE
*****
 45 49 0 0 0
SMALL
GASTEIGER

@<TRIPOS>ATOM
      1 N           6.4340   -4.9643   26.4550 N.am    1  UNL1       -0.2825
      2 C           7.5725   -5.1010   25.4879 C.2     1  UNL1        0.2461
      3 O           8.9753   -4.8155   25.9357 O.2     1  UNL1       -0.2729
      4 H           5.5133   -5.1517   26.1611 H       1  UNL1        0.1549
      5 C           7.2272   -3.6972   30.6995 C.ar    1  UNL1       -0.0022
      6 C           6.6889   -2.7073   29.7094 C.ar    1  UNL1       -0.0017
      7 C           6.4245   -3.1296   28.2946 C.ar    1  UNL1        0.0144
      8 C           6.6985   -4.5419   27.8699 C.ar    1  UNL1        0.0503
      9 C           7.2368   -5.5318   28.8599 C.ar    1  UNL1        0.0182
     10 C           7.5012   -5.1095   30.2748 C.ar    1  UNL1        0.0700
     11 C           8.0396   -6.0994   31.2648 C.3     1  UNL1        0.4184
     12 F           8.5779   -7.0893   32.2548 F       1  UNL1       -0.1659
     13 F           6.6586   -6.3006   31.8146 F       1  UNL1       -0.1659
     14 F           9.4206   -5.8982   30.7150 F       1  UNL1       -0.1659
     15 C           7.4916   -3.2748   32.1143 C.3     1  UNL1        0.0992
     16 N           4.9089   -0.1364   34.0455 N.3     1  UNL1       -0.2703
     17 C           4.3186   -1.4604   33.6601 C.3     1  UNL1        0.0897
     18 C           5.1795   -2.5065   33.0164 C.3     1  UNL1        0.0899
     19 N           6.6307   -2.2287   32.7581 N.3     1  UNL1       -0.2665
     20 C           7.2210   -0.9047   33.1435 C.3     1  UNL1        0.0899
     21 C           6.3601    0.1414   33.7872 C.3     1  UNL1        0.0897
     22 C           4.2429    1.2554   36.1358 C.3     1  UNL1        0.0188
     23 C           4.0480    0.9098   34.6893 C.3     1  UNL1        0.0722
     24 C           7.3080   -5.5234   24.0732 C.3     1  UNL1        0.1739
     25 N           7.7193   -4.6356   22.9361 N.pl3   1  UNL1       -0.3253
     26 H           8.6610   -4.6062   22.6503 H       1  UNL1        0.1473
     27 C           6.6960   -3.7928   22.2345 C.ar    1  UNL1        0.0450
     28 C           5.3623   -3.5445   22.8747 C.ar    1  UNL1        0.0143
     29 C           4.3389   -2.7016   22.1732 C.ar    1  UNL1        0.0013
     30 C           4.6491   -2.1069   20.8315 C.ar    1  UNL1        0.0016
     31 C           5.9828   -2.3552   20.1913 C.ar    1  UNL1        0.0013
     32 C           7.0062   -3.1981   20.8929 C.ar    1  UNL1        0.0143
     33 C           3.6258   -1.2641   20.1299 C.ar    1  UNL1        0.0193
     34 C           2.2614   -1.0880   20.7280 C.ar    1  UNL1        0.0044
     35 C           1.2380   -0.2451   20.0265 C.ar    1  UNL1        0.0345
     36 C           1.5789    0.4218   18.7268 C.ar    1  UNL1        0.1342
     37 N           2.9432    0.2457   18.1287 N.ar    1  UNL1       -0.2290
     38 C           3.9666   -0.5972   18.8303 C.ar    1  UNL1        0.1003
     39 N           0.5555    1.2646   18.0253 N.am    1  UNL1       -0.2694
     40 C           0.4335    2.7235   18.3524 C.2     1  UNL1        0.2267
     41 O           1.3350    3.3394   19.3811 O.2     1  UNL1       -0.2748
     42 H          -0.0361    0.8604   17.3502 H       1  UNL1        0.1563
     43 C          -0.5898    3.5664   17.6509 C.3     1  UNL1        0.0769
     44 C          -1.0886    4.2348   16.4042 C.3     1  UNL1        0.0096
     45 C          -1.8636    4.3579   17.6825 C.3     1  UNL1        0.0096
@<TRIPOS>BOND
     1    22    23    1
     2    23    16    1
     3    16    17    1
     4    17    18    1
     5    18    19    1
     6    19    15    1
     7    15     5    1
     8     5     6   ar
     9     6     7   ar
    10     7     8   ar
    11     8     1    1
    12     1     2   am
    13     2     3    2
    14     2    24    1
    15    24    25    1
    16    25    27    1
    17    27    28   ar
    18    28    29   ar
    19    29    30   ar
    20    30    33    1
    21    33    34   ar
    22    34    35   ar
    23    35    36   ar
    24    36    39    1
    25    39    40   am
    26    40    41    2
    27    40    43    1
    28    43    44    1
    29    44    45    1
    30    36    37   ar
    31    37    38   ar
    32    30    31   ar
    33    31    32   ar
    34     8     9   ar
    35     9    10   ar
    36    10    11    1
    37    11    12    1
    38    11    13    1
    39    11    14    1
    40    19    20    1
    41    20    21    1
    42    21    16    1
    43    10     5   ar
    44    32    27   ar
    45    38    33   ar
    46    45    43    1
    47     1     4    1
    48    25    26    1
    49    39    42    1
@<TRIPOS>MOLECULE
*****
 45 49 0 0 0
SMALL
GASTEIGER

@<TRIPOS>ATOM
      1 N           1.3363    3.0215   21.0223 N.am    1  UNL1       -0.2825
      2 C          -0.1453    3.2540   21.0503 C.2     1  UNL1        0.2461
      3 O          -1.0871    2.1285   20.7402 O.2     1  UNL1       -0.2729
      4 H           1.9544    3.7602   21.2258 H       1  UNL1        0.1549
      5 C           2.9557   -1.0528   20.0080 C.ar    1  UNL1       -0.0022
      6 C           2.1267   -0.8614   21.2434 C.ar    1  UNL1       -0.0017
      7 C           1.5870    0.4967   21.5815 C.ar    1  UNL1        0.0144
      8 C           1.8761    1.6634   20.6842 C.ar    1  UNL1        0.0503
      9 C           2.7050    1.4720   19.4488 C.ar    1  UNL1        0.0182
     10 C           3.2448    0.1140   19.1106 C.ar    1  UNL1        0.0700
     11 C           4.0737   -0.0774   17.8752 C.3     1  UNL1        0.4184
     12 F           4.9026   -0.2687   16.6398 F       1  UNL1       -0.1659
     13 F           5.3181    0.1907   18.6687 F       1  UNL1       -0.1659
     14 F           2.8294   -0.3455   17.0818 F       1  UNL1       -0.1659
     15 C           3.4955   -2.4108   19.6699 C.3     1  UNL1        0.0992
     16 N           6.9630   -4.0956   21.9910 N.3     1  UNL1       -0.2703
     17 C           5.6369   -3.8961   22.6629 C.3     1  UNL1        0.0897
     18 C           4.4810   -3.3345   21.8892 C.3     1  UNL1        0.0899
     19 N           4.6513   -2.9724   20.4436 N.3     1  UNL1       -0.2665
     20 C           5.9774   -3.1719   19.7717 C.3     1  UNL1        0.0899
     21 C           7.1333   -3.7335   20.5454 C.3     1  UNL1        0.0897
     22 C           7.8744   -5.6437   23.8679 C.3     1  UNL1        0.0188
     23 C           8.1188   -4.6572   22.7647 C.3     1  UNL1        0.0722
     24 C          -0.6850    4.6120   21.3884 C.3     1  UNL1        0.1739
     25 N          -1.0340    4.9483   22.8080 N.pl3   1  UNL1       -0.3253
     26 H          -1.5950    5.7331   23.0043 H       1  UNL1        0.1473
     27 C          -0.5283    4.0888   23.9285 C.ar    1  UNL1        0.0450
     28 C           0.8473    4.3124   24.4831 C.ar    1  UNL1        0.0143
     29 C           1.3532    3.4529   25.6036 C.ar    1  UNL1        0.0013
     30 C           0.4833    2.3698   26.1694 C.ar    1  UNL1        0.0016
     31 C          -0.8924    2.1462   25.6147 C.ar    1  UNL1        0.0013
     32 C          -1.3981    3.0057   24.4943 C.ar    1  UNL1        0.0143
     33 C           0.9891    1.5103   27.2898 C.ar    1  UNL1        0.0193
     34 C           2.1948    0.6420   27.0836 C.ar    1  UNL1        0.0044
     35 C           2.7006   -0.2175   28.2041 C.ar    1  UNL1        0.0345
     36 C           2.0006   -0.2088   29.5307 C.ar    1  UNL1        0.1342
     37 N           0.7949    0.6594   29.7370 N.ar    1  UNL1       -0.2290
     38 C           0.2891    1.5189   28.6165 C.ar    1  UNL1        0.1003
     39 N           2.5064   -1.0683   30.6512 N.am    1  UNL1       -0.2694
     40 C           3.6303   -0.5847   31.5190 C.2     1  UNL1        0.2267
     41 O           4.2484    0.7585   31.2662 O.2     1  UNL1       -0.2748
     42 H           2.1007   -1.9499   30.8170 H       1  UNL1        0.1563
     43 C           4.1360   -1.4442   32.6394 C.3     1  UNL1        0.0769
     44 C           4.8390   -2.6823   33.1113 C.3     1  UNL1        0.0096
     45 C           4.3091   -1.6947   34.1082 C.3     1  UNL1        0.0096
@<TRIPOS>BOND
     1    22    23    1
     2    23    16    1
     3    16    17    1
     4    17    18    1
     5    18    19    1
     6    19    15    1
     7    15     5    1
     8     5     6   ar
     9     6     7   ar
    10     7     8   ar
    11     8     1    1
    12     1     2   am
    13     2     3    2
    14     2    24    1
    15    24    25    1
    16    25    27    1
    17    27    28   ar
    18    28    29   ar
    19    29    30   ar
    20    30    33    1
    21    33    34   ar
    22    34    35   ar
    23    35    36   ar
    24    36    39    1
    25    39    40   am
    26    40    41    2
    27    40    43    1
    28    43    44    1
    29    44    45    1
    30    36    37   ar
    31    37    38   ar
    32    30    31   ar
    33    31    32   ar
    34     8     9   ar
    35     9    10   ar
    36    10    11    1
    37    11    12    1
    38    11    13    1
    39    11    14    1
    40    19    20    1
    41    20    21    1
    42    21    16    1
    43    10     5   ar
    44    32    27   ar
    45    38    33   ar
    46    45    43    1
    47     1     4    1
    48    25    26    1
    49    39    42    1
@<TRIPOS>MOLECULE
*****
 45 49 0 0 0
SMALL
GASTEIGER

@<TRIPOS>ATOM
      1 N           2.1227    0.5203   20.7917 N.am    1  UNL1       -0.2825
      2 C           1.5393    0.7424   22.1556 C.2     1  UNL1        0.2461
      3 O           2.1448    0.0659   23.3497 O.2     1  UNL1       -0.2729
      4 H           1.7253    0.9643   20.0081 H       1  UNL1        0.1549
      5 C           5.6896   -2.1756   20.2820 C.ar    1  UNL1       -0.0022
      6 C           5.8858   -0.7303   20.6323 C.ar    1  UNL1       -0.0017
      7 C           4.6968    0.1683   20.8022 C.ar    1  UNL1        0.0144
      8 C           3.3117   -0.3784   20.6218 C.ar    1  UNL1        0.0503
      9 C           3.1155   -1.8236   20.2716 C.ar    1  UNL1        0.0182
     10 C           4.3045   -2.7223   20.1017 C.ar    1  UNL1        0.0700
     11 C           4.1083   -4.1675   19.7514 C.3     1  UNL1        0.4184
     12 F           3.9121   -5.6128   19.4012 F       1  UNL1       -0.1659
     13 F           3.9835   -4.5035   21.2079 F       1  UNL1       -0.1659
     14 F           4.2332   -3.8315   18.2949 F       1  UNL1       -0.1659
     15 C           6.8786   -3.0742   20.1121 C.3     1  UNL1        0.0992
     16 N           8.3726   -5.5106   23.5880 N.3     1  UNL1       -0.2703
     17 C           8.9539   -5.7190   22.2211 C.3     1  UNL1        0.0897
     18 C           8.4559   -4.9069   21.0624 C.3     1  UNL1        0.0899
     19 N           7.3766   -3.8863   21.2708 N.3     1  UNL1       -0.2665
     20 C           6.7953   -3.6778   22.6377 C.3     1  UNL1        0.0899
     21 C           7.2933   -4.4899   23.7963 C.3     1  UNL1        0.0897
     22 C           8.4039   -7.7367   24.9271 C.3     1  UNL1        0.0188
     23 C           8.8706   -6.3227   24.7467 C.3     1  UNL1        0.0722
     24 C           0.3504    1.6410   22.3255 C.3     1  UNL1        0.1739
     25 N           0.4556    2.8712   23.1773 N.pl3   1  UNL1       -0.3253
     26 H           0.4333    3.7625   22.7598 H       1  UNL1        0.1473
     27 C           0.5950    2.7435   24.6653 C.ar    1  UNL1        0.0450
     28 C           1.5104    3.6655   25.4148 C.ar    1  UNL1        0.0143
     29 C           1.6498    3.5378   26.9029 C.ar    1  UNL1        0.0013
     30 C           0.8737    2.4880   27.6414 C.ar    1  UNL1        0.0016
     31 C          -0.0418    1.5659   26.8919 C.ar    1  UNL1        0.0013
     32 C          -0.1812    1.6936   25.4039 C.ar    1  UNL1        0.0143
     33 C           1.0130    2.3602   29.1294 C.ar    1  UNL1        0.0193
     34 C           0.7165    3.5347   30.0141 C.ar    1  UNL1        0.0044
     35 C           0.8558    3.4070   31.5021 C.ar    1  UNL1        0.0345
     36 C           1.2917    2.1047   32.1056 C.ar    1  UNL1        0.1342
     37 N           1.5882    0.9302   31.2210 N.ar    1  UNL1       -0.2290
     38 C           1.4489    1.0579   29.7329 C.ar    1  UNL1        0.1003
     39 N           1.4310    1.9769   33.5936 N.am    1  UNL1       -0.2694
     40 C           2.6615    2.4931   34.2787 C.2     1  UNL1        0.2267
     41 O           3.7527    3.1370   33.4758 O.2     1  UNL1       -0.2748
     42 H           0.7148    1.5543   34.1205 H       1  UNL1        0.1563
     43 C           2.8009    2.3653   35.7667 C.3     1  UNL1        0.0769
     44 C           2.5563    2.9035   37.1453 C.3     1  UNL1        0.0096
     45 C           3.2868    1.6058   36.9655 C.3     1  UNL1        0.0096
@<TRIPOS>BOND
     1    22    23    1
     2    23    16    1
     3    16    17    1
     4    17    18    1
     5    18    19    1
     6    19    15    1
     7    15     5    1
     8     5     6   ar
     9     6     7   ar
    10     7     8   ar
    11     8     1    1
    12     1     2   am
    13     2     3    2
    14     2    24    1
    15    24    25    1
    16    25    27    1
    17    27    28   ar
    18    28    29   ar
    19    29    30   ar
    20    30    33    1
    21    33    34   ar
    22    34    35   ar
    23    35    36   ar
    24    36    39    1
    25    39    40   am
    26    40    41    2
    27    40    43    1
    28    43    44    1
    29    44    45    1
    30    36    37   ar
    31    37    38   ar
    32    30    31   ar
    33    31    32   ar
    34     8     9   ar
    35     9    10   ar
    36    10    11    1
    37    11    12    1
    38    11    13    1
    39    11    14    1
    40    19    20    1
    41    20    21    1
    42    21    16    1
    43    10     5   ar
    44    32    27   ar
    45    38    33   ar
    46    45    43    1
    47     1     4    1
    48    25    26    1
    49    39    42    1
@<TRIPOS>MOLECULE
*****
 45 49 0 0 0
SMALL
GASTEIGER

@<TRIPOS>ATOM
      1 N           7.6457   -3.3810   24.5877 N.am    1  UNL1       -0.2825
      2 C           8.1576   -4.7072   25.0663 C.2     1  UNL1        0.2461
      3 O           7.8774   -5.9497   24.2740 O.2     1  UNL1       -0.2729
      4 H           7.8296   -2.5656   25.1077 H       1  UNL1        0.1549
      5 C           5.2689   -3.1297   20.7748 C.ar    1  UNL1       -0.0022
      6 C           4.6815   -3.7988   21.9820 C.ar    1  UNL1       -0.0017
      7 C           5.4738   -3.8826   23.2529 C.ar    1  UNL1        0.0144
      8 C           6.8534   -3.2972   23.3167 C.ar    1  UNL1        0.0503
      9 C           7.4408   -2.6281   22.1095 C.ar    1  UNL1        0.0182
     10 C           6.6485   -2.5443   20.8385 C.ar    1  UNL1        0.0700
     11 C           7.2358   -1.8752   19.6314 C.3     1  UNL1        0.4184
     12 F           7.8232   -1.2061   18.4242 F       1  UNL1       -0.1659
     13 F           7.8943   -3.1641   19.2374 F       1  UNL1       -0.1659
     14 F           6.5774   -0.5864   20.0254 F       1  UNL1       -0.1659
     15 C           4.4766   -3.0459   19.5039 C.3     1  UNL1        0.0992
     16 N           1.8017    0.4931   18.7490 N.3     1  UNL1       -0.2703
     17 C           1.5130   -0.4351   19.8914 C.3     1  UNL1        0.0897
     18 C           2.4046   -1.6148   20.1430 C.3     1  UNL1        0.0899
     19 N           3.5850   -1.8662   19.2523 N.3     1  UNL1       -0.2665
     20 C           3.8737   -0.9380   18.1099 C.3     1  UNL1        0.0899
     21 C           2.9821    0.2417   17.8583 C.3     1  UNL1        0.0897
     22 C           1.4614    3.0643   18.5964 C.3     1  UNL1        0.0188
     23 C           0.9101    1.6728   18.4974 C.3     1  UNL1        0.0722
     24 C           8.9498   -4.7910   26.3372 C.3     1  UNL1        0.1739
     25 N           8.3637   -5.4629   27.5435 N.pl3   1  UNL1       -0.3253
     26 H           8.3773   -6.4447   27.6153 H       1  UNL1        0.1473
     27 C           7.7570   -4.6390   28.6403 C.ar    1  UNL1        0.0450
     28 C           7.5392   -3.1684   28.4408 C.ar    1  UNL1        0.0143
     29 C           6.9324   -2.3445   29.5376 C.ar    1  UNL1        0.0013
     30 C           6.5436   -2.9912   30.8340 C.ar    1  UNL1        0.0016
     31 C           6.7615   -4.4618   31.0335 C.ar    1  UNL1        0.0013
     32 C           7.3682   -5.2857   29.9367 C.ar    1  UNL1        0.0143
     33 C           5.9369   -2.1673   31.9308 C.ar    1  UNL1        0.0193
     34 C           4.9609   -2.7901   32.8846 C.ar    1  UNL1        0.0044
     35 C           4.3542   -1.9663   33.9814 C.ar    1  UNL1        0.0345
     36 C           4.7235   -0.5195   34.1245 C.ar    1  UNL1        0.1342
     37 N           5.6994    0.1034   33.1709 N.ar    1  UNL1       -0.2290
     38 C           6.3061   -0.7205   32.0740 C.ar    1  UNL1        0.1003
     39 N           4.1168    0.3044   35.2214 N.am    1  UNL1       -0.2694
     40 C           4.7267    0.2947   36.5918 C.2     1  UNL1        0.2267
     41 O           5.9433   -0.5390   36.8653 O.2     1  UNL1       -0.2748
     42 H           3.3182    0.8516   35.0418 H       1  UNL1        0.1563
     43 C           4.1200    1.1186   37.6886 C.3     1  UNL1        0.0769
     44 C           2.9099    1.6153   38.4226 C.3     1  UNL1        0.0096
     45 C           4.2793    2.0489   38.8544 C.3     1  UNL1        0.0096
@<TRIPOS>BOND
     1    22    23    1
     2    23    16    1
     3    16    17    1
     4    17    18    1
     5    18    19    1
     6    19    15    1
     7    15     5    1
     8     5     6   ar
     9     6     7   ar
    10     7     8   ar
    11     8     1    1
    12     1     2   am
    13     2     3    2
    14     2    24    1
    15    24    25    1
    16    25    27    1
    17    27    28   ar
    18    28    29   ar
    19    29    30   ar
    20    30    33    1
    21    33    34   ar
    22    34    35   ar
    23    35    36   ar
    24    36    39    1
    25    39    40   am
    26    40    41    2
    27    40    43    1
    28    43    44    1
    29    44    45    1
    30    36    37   ar
    31    37    38   ar
    32    30    31   ar
    33    31    32   ar
    34     8     9   ar
    35     9    10   ar
    36    10    11    1
    37    11    12    1
    38    11    13    1
    39    11    14    1
    40    19    20    1
    41    20    21    1
    42    21    16    1
    43    10     5   ar
    44    32    27   ar
    45    38    33   ar
    46    45    43    1
    47     1     4    1
    48    25    26    1
    49    39    42    1
@<TRIPOS>MOLECULE
*****
 45 49 0 0 0
SMALL
GASTEIGER

@<TRIPOS>ATOM
      1 N           7.9950   -4.1166   21.5658 N.am    1  UNL1       -0.2825
      2 C           6.8381   -3.2186   21.2418 C.2     1  UNL1        0.2461
      3 O           6.0044   -2.6409   22.3469 O.2     1  UNL1       -0.2729
      4 H           8.5421   -4.4957   20.8405 H       1  UNL1        0.1549
      5 C           8.9650   -5.0777   25.8537 C.ar    1  UNL1       -0.0022
      6 C           9.5139   -3.8332   25.2213 C.ar    1  UNL1       -0.0017
      7 C           9.1906   -3.5129   23.7921 C.ar    1  UNL1        0.0144
      8 C           8.3183   -4.4370   22.9952 C.ar    1  UNL1        0.0503
      9 C           7.7694   -5.6815   23.6275 C.ar    1  UNL1        0.0182
     10 C           8.0927   -6.0019   25.0568 C.ar    1  UNL1        0.0700
     11 C           7.5437   -7.2464   25.6891 C.3     1  UNL1        0.4184
     12 F           6.9948   -8.4908   26.3214 F       1  UNL1       -0.1659
     13 F           6.4692   -6.4359   26.3513 F       1  UNL1       -0.1659
     14 F           8.6183   -8.0568   25.0270 F       1  UNL1       -0.1659
     15 C           9.2883   -5.3981   27.2830 C.3     1  UNL1        0.0992
     16 N           6.8209   -3.6219   30.6007 N.3     1  UNL1       -0.2703
     17 C           7.5200   -2.7246   29.6229 C.3     1  UNL1        0.0897
     18 C           8.3425   -3.3167   28.5170 C.3     1  UNL1        0.0899
     19 N           8.4658   -4.8060   28.3889 N.3     1  UNL1       -0.2665
     20 C           7.7667   -5.7034   29.3666 C.3     1  UNL1        0.0899
     21 C           6.9443   -5.1113   30.4725 C.3     1  UNL1        0.0897
     22 C           5.3836   -1.6719   31.5396 C.3     1  UNL1        0.0188
     23 C           5.9984   -3.0298   31.7066 C.3     1  UNL1        0.0722
     24 C           6.5148   -2.8982   19.8125 C.3     1  UNL1        0.1739
     25 N           5.1375   -3.1589   19.2784 N.pl3   1  UNL1       -0.3253
     26 H           4.9192   -4.0353   18.8867 H       1  UNL1        0.1473
     27 C           4.0929   -2.0843   19.3413 C.ar    1  UNL1        0.0450
     28 C           3.1559   -2.0167   20.5106 C.ar    1  UNL1        0.0143
     29 C           2.1113   -0.9420   20.5735 C.ar    1  UNL1        0.0013
     30 C           2.0036    0.0649   19.4670 C.ar    1  UNL1        0.0016
     31 C           2.9406   -0.0028   18.2975 C.ar    1  UNL1        0.0013
     32 C           3.9852   -1.0774   18.2347 C.ar    1  UNL1        0.0143
     33 C           0.9590    1.1395   19.5298 C.ar    1  UNL1        0.0193
     34 C           0.7423    2.0446   18.3533 C.ar    1  UNL1        0.0044
     35 C          -0.3023    3.1192   18.4161 C.ar    1  UNL1        0.0345
     36 C          -1.1303    3.2888   19.6554 C.ar    1  UNL1        0.1342
     37 N          -0.9136    2.3838   20.8318 N.ar    1  UNL1       -0.2290
     38 C           0.1310    1.3091   20.7690 C.ar    1  UNL1        0.1003
     39 N          -2.1749    4.3634   19.7182 N.am    1  UNL1       -0.2694
     40 C          -3.5159    4.0713   20.3236 C.2     1  UNL1        0.2267
     41 O          -3.8122    2.7046   20.8662 O.2     1  UNL1       -0.2748
     42 H          -1.9804    5.2604   19.3621 H       1  UNL1        0.1563
     43 C          -4.5605    5.1459   20.3864 C.3     1  UNL1        0.0769
     44 C          -5.4887    6.0975   19.6916 C.3     1  UNL1        0.0096
     45 C          -5.4417    6.0556   21.1902 C.3     1  UNL1        0.0096
@<TRIPOS>BOND
     1    22    23    1
     2    23    16    1
     3    16    17    1
     4    17    18    1
     5    18    19    1
     6    19    15    1
     7    15     5    1
     8     5     6   ar
     9     6     7   ar
    10     7     8   ar
    11     8     1    1
    12     1     2   am
    13     2     3    2
    14     2    24    1
    15    24    25    1
    16    25    27    1
    17    27    28   ar
    18    28    29   ar
    19    29    30   ar
    20    30    33    1
    21    33    34   ar
    22    34    35   ar
    23    35    36   ar
    24    36    39    1
    25    39    40   am
    26    40    41    2
    27    40    43    1
    28    43    44    1
    29    44    45    1
    30    36    37   ar
    31    37    38   ar
    32    30    31   ar
    33    31    32   ar
    34     8     9   ar
    35     9    10   ar
    36    10    11    1
    37    11    12    1
    38    11    13    1
    39    11    14    1
    40    19    20    1
    41    20    21    1
    42    21    16    1
    43    10     5   ar
    44    32    27   ar
    45    38    33   ar
    46    45    43    1
    47     1     4    1
    48    25    26    1
    49    39    42    1
@<TRIPOS>MOLECULE
*****
 45 49 0 0 0
SMALL
GASTEIGER

@<TRIPOS>ATOM
      1 N          -1.2076    4.1869   21.6603 N.am    1  UNL1       -0.2825
      2 C          -2.6708    3.9774   21.9152 C.2     1  UNL1        0.2461
      3 O          -3.3915    2.8392   21.2556 O.2     1  UNL1       -0.2729
      4 H          -0.7346    4.9340   22.0932 H       1  UNL1        0.1549
      5 C           1.0201    1.4008   18.9171 C.ar    1  UNL1       -0.0022
      6 C           0.3227    2.6054   18.3578 C.ar    1  UNL1       -0.0017
      7 C          -0.4198    3.5340   19.2722 C.ar    1  UNL1        0.0144
      8 C          -0.4650    3.2582   20.7459 C.ar    1  UNL1        0.0503
      9 C           0.2324    2.0537   21.3052 C.ar    1  UNL1        0.0182
     10 C           0.9750    1.1250   20.3908 C.ar    1  UNL1        0.0700
     11 C           1.6723   -0.0795   20.9502 C.3     1  UNL1        0.4184
     12 F           2.3697   -1.2840   21.5095 F       1  UNL1       -0.1659
     13 F           0.5082   -0.9379   20.5529 F       1  UNL1       -0.1659
     14 F           2.8364    0.7790   21.3474 F       1  UNL1       -0.1659
     15 C           1.7627    0.4722   18.0027 C.3     1  UNL1        0.0992
     16 N           6.2581    0.5933   17.8392 N.3     1  UNL1       -0.2703
     17 C           5.4897    1.8118   18.2571 C.3     1  UNL1        0.0897
     18 C           3.9912    1.7715   18.3115 C.3     1  UNL1        0.0899
     19 N           3.2612    0.5125   17.9482 N.3     1  UNL1       -0.2665
     20 C           4.0296   -0.7060   17.5304 C.3     1  UNL1        0.0899
     21 C           5.5280   -0.6656   17.4759 C.3     1  UNL1        0.0897
     22 C           8.5400    1.0530   18.9932 C.3     1  UNL1        0.0188
     23 C           7.7566    0.6337   17.7847 C.3     1  UNL1        0.0722
     24 C          -3.4133    4.9061   22.8295 C.3     1  UNL1        0.1739
     25 N          -2.7359    5.4592   24.0483 N.pl3   1  UNL1       -0.3253
     26 H          -2.7778    6.4240   24.2396 H       1  UNL1        0.1473
     27 C          -1.9947    4.5423   24.9755 C.ar    1  UNL1        0.0450
     28 C          -2.7533    3.6208   25.8839 C.ar    1  UNL1        0.0143
     29 C          -2.0121    2.7038   26.8112 C.ar    1  UNL1        0.0013
     30 C          -0.5122    2.7084   26.8300 C.ar    1  UNL1        0.0016
     31 C           0.2464    3.6299   25.9215 C.ar    1  UNL1        0.0013
     32 C          -0.4948    4.5469   24.9943 C.ar    1  UNL1        0.0143
     33 C           0.2290    1.7914   27.7572 C.ar    1  UNL1        0.0193
     34 C           1.4089    1.0121   27.2566 C.ar    1  UNL1        0.0044
     35 C           2.1502    0.0952   28.1838 C.ar    1  UNL1        0.0345
     36 C           1.7115   -0.0425   29.6117 C.ar    1  UNL1        0.1342
     37 N           0.5317    0.7368   30.1123 N.ar    1  UNL1       -0.2290
     38 C          -0.2096    1.6538   29.1850 C.ar    1  UNL1        0.1003
     39 N           2.4528   -0.9594   30.5389 N.am    1  UNL1       -0.2694
     40 C           3.3025   -0.3900   31.6361 C.2     1  UNL1        0.2267
     41 O           3.4109    1.0964   31.8060 O.2     1  UNL1       -0.2748
     42 H           2.3816   -1.9350   30.4273 H       1  UNL1        0.1563
     43 C           4.0437   -1.3069   32.5633 C.3     1  UNL1        0.0769
     44 C           4.8208   -2.5686   32.7958 C.3     1  UNL1        0.0096
     45 C           4.5504   -1.6333   33.9369 C.3     1  UNL1        0.0096
@<TRIPOS>BOND
     1    22    23    1
     2    23    16    1
     3    16    17    1
     4    17    18    1
     5    18    19    1
     6    19    15    1
     7    15     5    1
     8     5     6   ar
     9     6     7   ar
    10     7     8   ar
    11     8     1    1
    12     1     2   am
    13     2     3    2
    14     2    24    1
    15    24    25    1
    16    25    27    1
    17    27    28   ar
    18    28    29   ar
    19    29    30   ar
    20    30    33    1
    21    33    34   ar
    22    34    35   ar
    23    35    36   ar
    24    36    39    1
    25    39    40   am
    26    40    41    2
    27    40    43    1
    28    43    44    1
    29    44    45    1
    30    36    37   ar
    31    37    38   ar
    32    30    31   ar
    33    31    32   ar
    34     8     9   ar
    35     9    10   ar
    36    10    11    1
    37    11    12    1
    38    11    13    1
    39    11    14    1
    40    19    20    1
    41    20    21    1
    42    21    16    1
    43    10     5   ar
    44    32    27   ar
    45    38    33   ar
    46    45    43    1
    47     1     4    1
    48    25    26    1
    49    39    42    1
