@<TRIPOS>MOLECULE
*****
 44 46 0 0 0
SMALL
GASTEIGER

@<TRIPOS>ATOM
      1 C          -0.1481    2.4271   21.2256 C.ar    1  UNL1        0.0539
      2 S          -1.4821    2.8598   20.6935 S.2     1  UNL1       -0.0619
      3 C          -2.1344    3.7280   21.7282 C.ar    1  UNL1        0.1641
      4 N          -1.2035    3.8320   22.8998 N.ar    1  UNL1       -0.2291
      5 C           0.0241    3.0280   22.5891 C.ar    1  UNL1        0.1414
      6 C           1.2149    2.8552   23.4848 C.2     1  UNL1        0.2673
      7 O           2.5758    3.2730   23.0121 O.2     1  UNL1       -0.2682
      8 N           1.0448    2.2646   24.8530 N.am    1  UNL1       -0.2747
      9 C           2.2356    2.0919   25.7487 C.3     1  UNL1        0.0966
     10 C           2.0654    1.5013   27.1170 C.3     1  UNL1        0.0568
     11 C           0.7046    1.0835   27.5897 C.3     1  UNL1        0.1644
     12 F           0.5344    0.4929   28.9580 F       1  UNL1       -0.2372
     13 C          -0.4863    1.2562   26.6941 C.3     1  UNL1        0.0568
     14 C          -0.3161    1.8468   25.3258 C.3     1  UNL1        0.0966
     15 C           2.8169   -0.2105   19.1037 C.ar    1  UNL1        0.1333
     16 C           1.7056   -0.8234   19.9033 C.ar    1  UNL1        0.0208
     17 C           0.7173    0.0558   20.6106 C.ar    1  UNL1        0.0028
     18 C           0.8402    1.5479   20.5183 C.ar    1  UNL1        0.0191
     19 C           1.9515    2.1608   19.7186 C.ar    1  UNL1        0.0700
     20 CL          2.0745    3.6529   19.6263 Cl      1  UNL1       -0.0813
     21 C           2.9398    1.2816   19.0113 C.ar    1  UNL1        0.0867
     22 CL          4.0511    1.8946   18.2117 Cl      1  UNL1       -0.0800
     23 S           3.8052   -1.0897   18.3964 S.O2    1  UNL1        0.0613
     24 O           4.5831   -1.2398   19.6700 O.2     1  UNL1       -0.1530
     25 O           3.0272   -0.9395   17.1227 O.2     1  UNL1       -0.1530
     26 N           4.7935   -1.9688   17.6891 N.3     1  UNL1       -0.1723
     27 H           4.3182   -2.3458   16.8691 H       1  UNL1        0.1491
     28 C           5.4090   -3.1336   18.4063 C.3     1  UNL1        0.1700
     29 C           6.7746   -3.0041   19.0132 C.3     1  UNL1        0.4118
     30 F           8.1403   -2.8747   19.6201 F       1  UNL1       -0.1685
     31 F           6.3468   -3.8702   20.1608 F       1  UNL1       -0.1685
     32 F           7.2025   -2.1381   17.8656 F       1  UNL1       -0.1685
     33 C           3.3424   -4.4729   19.2344 C.3     1  UNL1        0.0018
     34 C           4.6588   -4.4279   18.5168 C.3     1  UNL1        0.0261
     35 C          -3.4812    4.3782   21.6118 C.2     1  UNL1        0.2699
     36 O          -4.1582    4.4671   20.2761 O.2     1  UNL1       -0.2679
     37 N          -4.1509    4.9395   22.8309 N.am    1  UNL1       -0.2969
     38 H          -3.7066    4.8812   23.7075 H       1  UNL1        0.1499
     39 C          -5.4977    5.5896   22.7145 C.3     1  UNL1        0.1166
     40 C          -6.7431    4.7648   22.8521 C.3     1  UNL1        0.1064
     41 C          -7.2391    5.2947   21.5394 C.3     1  UNL1        0.0311
     42 C          -6.2470    4.2350   24.1649 C.3     1  UNL1        0.0311
     43 O          -7.9884    3.9400   22.9899 O.3     1  UNL1       -0.3851
     44 H          -8.5592    4.0853   22.2192 H       1  UNL1        0.2103
@<TRIPOS>BOND
     1    33    34    1
     2    28    34    1
     3    28    26    1
     4    26    23    1
     5    23    24    2
     6    23    25    2
     7    23    15    1
     8    15    16   ar
     9    16    17   ar
    10    17    18   ar
    11    18     1    1
    12     1     2   ar
    13     2     3   ar
    14     3    35    1
    15    35    36    2
    16    35    37   am
    17    37    39    1
    18    39    40    1
    19    40    41    1
    20    40    42    1
    21    40    43    1
    22     3     4   ar
    23     4     5   ar
    24     5     6    1
    25     6     7    2
    26     6     8   am
    27     8     9    1
    28     9    10    1
    29    10    11    1
    30    11    12    1
    31    11    13    1
    32    13    14    1
    33    18    19   ar
    34    19    20    1
    35    19    21   ar
    36    21    22    1
    37    28    29    1
    38    29    30    1
    39    29    31    1
    40    29    32    1
    41    21    15   ar
    42     5     1   ar
    43    14     8    1
    44    26    27    1
    45    37    38    1
    46    43    44    1
@<TRIPOS>MOLECULE
*****
 44 46 0 0 0
SMALL
GASTEIGER

@<TRIPOS>ATOM
      1 C           0.7028    3.0285   19.1595 C.ar    1  UNL1        0.0539
      2 S          -0.4448    3.2299   18.2149 S.2     1  UNL1       -0.0619
      3 C          -1.2312    4.4167   18.6872 C.ar    1  UNL1        0.1641
      4 N          -0.5696    4.9488   19.9238 N.ar    1  UNL1       -0.2291
      5 C           0.6257    4.0908   20.2157 C.ar    1  UNL1        0.1414
      6 C           1.5769    4.2647   21.3624 C.2     1  UNL1        0.2673
      7 O           2.8111    5.1004   21.1930 O.2     1  UNL1       -0.2682
      8 N           1.2941    3.6031   22.6784 N.am    1  UNL1       -0.2747
      9 C           2.2453    3.7770   23.8252 C.3     1  UNL1        0.0966
     10 C           1.9623    3.1153   25.1413 C.3     1  UNL1        0.0568
     11 C           0.7282    2.2797   25.3107 C.3     1  UNL1        0.1644
     12 F           0.4453    1.6180   26.6268 F       1  UNL1       -0.2372
     13 C          -0.2230    2.1058   24.1640 C.3     1  UNL1        0.0568
     14 C           0.0599    2.7674   22.8479 C.3     1  UNL1        0.0966
     15 C           3.8283   -0.1965   18.8749 C.ar    1  UNL1        0.1333
     16 C           4.0990    1.1630   18.3019 C.ar    1  UNL1        0.0208
     17 C           3.0572    2.2380   18.3968 C.ar    1  UNL1        0.0028
     18 C           1.7446    1.9535   19.0647 C.ar    1  UNL1        0.0191
     19 C           1.4738    0.5940   19.6377 C.ar    1  UNL1        0.0700
     20 CL          0.1612    0.3094   20.3056 Cl      1  UNL1       -0.0813
     21 C           2.5157   -0.4810   19.5428 C.ar    1  UNL1        0.0867
     22 CL          2.2448   -1.8406   20.1159 Cl      1  UNL1       -0.0800
     23 S           4.8701   -1.2715   18.7801 S.O2    1  UNL1        0.0613
     24 O           4.3645   -1.6412   17.4170 O.2     1  UNL1       -0.1530
     25 O           5.3756   -0.9019   20.1431 O.2     1  UNL1       -0.1530
     26 N           5.9119   -2.3465   18.6852 N.3     1  UNL1       -0.1723
     27 H           5.8804   -2.7037   17.7303 H       1  UNL1        0.1491
     28 C           5.8460   -3.5372   19.5951 C.3     1  UNL1        0.1700
     29 C           4.5869   -4.3480   19.6794 C.3     1  UNL1        0.4118
     30 F           3.3277   -5.1588   19.7637 F       1  UNL1       -0.1685
     31 F           4.7267   -4.7156   18.2319 F       1  UNL1       -0.1685
     32 F           4.4470   -3.9803   21.1269 F       1  UNL1       -0.1685
     33 C           8.1574   -2.9368   20.6184 C.3     1  UNL1        0.0018
     34 C           7.0394   -3.9170   20.4208 C.3     1  UNL1        0.0261
     35 C          -2.4630    4.9736   18.0371 C.2     1  UNL1        0.2699
     36 O          -2.3827    6.2429   17.2418 O.2     1  UNL1       -0.2679
     37 N          -3.7750    4.2612   18.1823 N.am    1  UNL1       -0.2969
     38 H          -3.8277    3.4282   18.7043 H       1  UNL1        0.1499
     39 C          -5.0067    4.8181   17.5322 C.3     1  UNL1        0.1166
     40 C          -6.3624    4.4684   18.0708 C.3     1  UNL1        0.1064
     41 C          -6.9238    5.7244   17.4731 C.3     1  UNL1        0.0311
     42 C          -5.8008    3.2124   18.6686 C.3     1  UNL1        0.0311
     43 O          -7.7180    4.1187   18.6094 O.3     1  UNL1       -0.3851
     44 H          -8.3525    4.8091   18.3611 H       1  UNL1        0.2103
@<TRIPOS>BOND
     1    33    34    1
     2    28    34    1
     3    28    26    1
     4    26    23    1
     5    23    24    2
     6    23    25    2
     7    23    15    1
     8    15    16   ar
     9    16    17   ar
    10    17    18   ar
    11    18     1    1
    12     1     2   ar
    13     2     3   ar
    14     3    35    1
    15    35    36    2
    16    35    37   am
    17    37    39    1
    18    39    40    1
    19    40    41    1
    20    40    42    1
    21    40    43    1
    22     3     4   ar
    23     4     5   ar
    24     5     6    1
    25     6     7    2
    26     6     8   am
    27     8     9    1
    28     9    10    1
    29    10    11    1
    30    11    12    1
    31    11    13    1
    32    13    14    1
    33    18    19   ar
    34    19    20    1
    35    19    21   ar
    36    21    22    1
    37    28    29    1
    38    29    30    1
    39    29    31    1
    40    29    32    1
    41    21    15   ar
    42     5     1   ar
    43    14     8    1
    44    26    27    1
    45    37    38    1
    46    43    44    1
@<TRIPOS>MOLECULE
*****
 44 46 0 0 0
SMALL
GASTEIGER

@<TRIPOS>ATOM
      1 C           2.5608    0.8813   22.1189 C.ar    1  UNL1        0.0539
      2 S           1.2220    1.4792   22.4352 S.2     1  UNL1       -0.0619
      3 C           0.6764    2.0863   21.1767 C.ar    1  UNL1        0.1641
      4 N           1.6781    1.8637   20.0826 N.ar    1  UNL1       -0.2291
      5 C           2.8427    1.1190   20.6649 C.ar    1  UNL1        0.1414
      6 C           4.0732    0.6876   19.9234 C.2     1  UNL1        0.2673
      7 O           5.1439    1.6876   19.6012 O.2     1  UNL1       -0.2682
      8 N           4.2330   -0.7436   19.5040 N.am    1  UNL1       -0.2747
      9 C           5.4635   -1.1750   18.7624 C.3     1  UNL1        0.0966
     10 C           5.6233   -2.6062   18.3430 C.3     1  UNL1        0.0568
     11 C           4.5527   -3.6062   18.6651 C.3     1  UNL1        0.1644
     12 F           4.7124   -5.0375   18.2457 F       1  UNL1       -0.2372
     13 C           3.3221   -3.1749   19.4067 C.3     1  UNL1        0.0568
     14 C           3.1623   -1.7436   19.8261 C.3     1  UNL1        0.0966
     15 C           5.2581   -1.2508   25.0221 C.ar    1  UNL1        0.1333
     16 C           4.3550   -2.0386   24.1201 C.ar    1  UNL1        0.0208
     17 C           3.4559   -1.3279   23.1524 C.ar    1  UNL1        0.0028
     18 C           3.4599    0.1706   23.0866 C.ar    1  UNL1        0.0191
     19 C           4.3631    0.9584   23.9886 C.ar    1  UNL1        0.0700
     20 CL          4.3672    2.4570   23.9229 Cl      1  UNL1       -0.0813
     21 C           5.2622    0.2477   24.9564 C.ar    1  UNL1        0.0867
     22 CL          6.1654    1.0356   25.8584 Cl      1  UNL1       -0.0800
     23 S           6.1572   -1.9615   25.9899 S.O2    1  UNL1        0.0613
     24 O           7.2627   -1.9434   24.9761 O.2     1  UNL1       -0.1530
     25 O           5.0518   -1.9796   27.0036 O.2     1  UNL1       -0.1530
     26 N           7.0563   -2.6722   26.9576 N.3     1  UNL1       -0.1723
     27 H           8.0059   -2.5857   26.5953 H       1  UNL1        0.1491
     28 C           6.8375   -4.1258   27.2559 C.3     1  UNL1        0.1700
     29 C           6.6451   -4.5801   28.6724 C.3     1  UNL1        0.4118
     30 F           6.4527   -5.0344   30.0890 F       1  UNL1       -0.1685
     31 F           5.6454   -5.5984   28.2101 F       1  UNL1       -0.1685
     32 F           7.6448   -3.5618   29.1348 F       1  UNL1       -0.1685
     33 C           8.0753   -5.4656   25.4058 C.3     1  UNL1        0.0018
     34 C           6.8110   -5.1253   26.1376 C.3     1  UNL1        0.0261
     35 C          -0.6397    2.7922   21.0369 C.2     1  UNL1        0.2699
     36 O          -1.1841    3.1010   19.6738 O.2     1  UNL1       -0.2679
     37 N          -1.4115    3.1892   22.2604 N.am    1  UNL1       -0.2969
     38 H          -1.0542    2.9865   23.1551 H       1  UNL1        0.1499
     39 C          -2.7276    3.8950   22.1206 C.3     1  UNL1        0.1166
     40 C          -3.9460    3.3530   22.8077 C.3     1  UNL1        0.1064
     41 C          -4.5794    3.0866   21.4744 C.3     1  UNL1        0.0311
     42 C          -3.3124    3.6195   24.1411 C.3     1  UNL1        0.0311
     43 O          -5.1642    2.8111   23.4949 O.3     1  UNL1       -0.3851
     44 H          -5.8131    2.5319   22.8301 H       1  UNL1        0.2103
@<TRIPOS>BOND
     1    33    34    1
     2    28    34    1
     3    28    26    1
     4    26    23    1
     5    23    24    2
     6    23    25    2
     7    23    15    1
     8    15    16   ar
     9    16    17   ar
    10    17    18   ar
    11    18     1    1
    12     1     2   ar
    13     2     3   ar
    14     3    35    1
    15    35    36    2
    16    35    37   am
    17    37    39    1
    18    39    40    1
    19    40    41    1
    20    40    42    1
    21    40    43    1
    22     3     4   ar
    23     4     5   ar
    24     5     6    1
    25     6     7    2
    26     6     8   am
    27     8     9    1
    28     9    10    1
    29    10    11    1
    30    11    12    1
    31    11    13    1
    32    13    14    1
    33    18    19   ar
    34    19    20    1
    35    19    21   ar
    36    21    22    1
    37    28    29    1
    38    29    30    1
    39    29    31    1
    40    29    32    1
    41    21    15   ar
    42     5     1   ar
    43    14     8    1
    44    26    27    1
    45    37    38    1
    46    43    44    1
@<TRIPOS>MOLECULE
*****
 44 46 0 0 0
SMALL
GASTEIGER

@<TRIPOS>ATOM
      1 C           1.2642    2.1617   18.9329 C.ar    1  UNL1        0.0539
      2 S           1.5176    0.7199   18.6060 S.2     1  UNL1       -0.0619
      3 C           2.9379    0.5928   18.1404 C.ar    1  UNL1        0.1641
      4 N           3.5622    1.9562   18.1796 N.ar    1  UNL1       -0.2291
      5 C           2.5278    2.9258   18.6693 C.ar    1  UNL1        0.1414
      6 C           2.7228    4.4005   18.8617 C.2     1  UNL1        0.2673
      7 O           2.6224    5.3297   17.6884 O.2     1  UNL1       -0.2682
      8 N           3.0182    4.9462   20.2273 N.am    1  UNL1       -0.2747
      9 C           3.2132    6.4210   20.4197 C.3     1  UNL1        0.0966
     10 C           3.5086    6.9666   21.7853 C.3     1  UNL1        0.0568
     11 C           3.6090    6.0375   22.9586 C.3     1  UNL1        0.1644
     12 F           3.9044    6.5831   24.3243 F       1  UNL1       -0.2372
     13 C           3.4140    4.5627   22.7663 C.3     1  UNL1        0.0568
     14 C           3.1186    4.0171   21.4007 C.3     1  UNL1        0.0966
     15 C          -2.6073    3.8913   20.4395 C.ar    1  UNL1        0.1333
     16 C          -1.7175    3.1214   21.3698 C.ar    1  UNL1        0.0208
     17 C          -0.4270    2.5449   20.8675 C.ar    1  UNL1        0.0028
     18 C          -0.0263    2.7383   19.4351 C.ar    1  UNL1        0.0191
     19 C          -0.9161    3.5082   18.5048 C.ar    1  UNL1        0.0700
     20 CL         -0.5155    3.7016   17.0723 Cl      1  UNL1       -0.0813
     21 C          -2.2066    4.0847   19.0071 C.ar    1  UNL1        0.0867
     22 CL         -3.0964    4.8547   18.0767 Cl      1  UNL1       -0.0800
     23 S          -3.8978    4.4679   20.9417 S.O2    1  UNL1        0.0613
     24 O          -4.6251    3.2382   20.4847 O.2     1  UNL1       -0.1530
     25 O          -3.1706    5.6976   21.3988 O.2     1  UNL1       -0.1530
     26 N          -5.1883    5.0444   21.4440 N.3     1  UNL1       -0.1723
     27 H          -5.0173    6.0331   21.6278 H       1  UNL1        0.1491
     28 C          -5.8330    4.4802   22.6752 C.3     1  UNL1        0.1700
     29 C          -4.9868    4.0684   23.8432 C.3     1  UNL1        0.4118
     30 F          -4.1406    3.6565   25.0113 F       1  UNL1       -0.1685
     31 F          -5.1551    2.6286   23.4575 F       1  UNL1       -0.1685
     32 F          -4.8185    5.5081   24.2290 F       1  UNL1       -0.1685
     33 C          -8.0671    4.7306   23.9775 C.3     1  UNL1        0.0018
     34 C          -7.3239    4.3278   22.7384 C.3     1  UNL1        0.0261
     35 C           3.6149   -0.6750   17.7111 C.2     1  UNL1        0.2699
     36 O           3.9045   -0.9161   16.2592 O.2     1  UNL1       -0.2679
     37 N           4.0024   -1.7017   18.7338 N.am    1  UNL1       -0.2969
     38 H           3.8123   -1.5434   19.6867 H       1  UNL1        0.1499
     39 C           4.6794   -2.9695   18.3045 C.3     1  UNL1        0.1166
     40 C           5.3976   -3.8151   19.3141 C.3     1  UNL1        0.1064
     41 C           6.1871   -2.6183   19.7549 C.3     1  UNL1        0.0311
     42 C           4.6081   -5.0120   18.8732 C.3     1  UNL1        0.0311
     43 O           6.1158   -4.6608   20.3236 O.3     1  UNL1       -0.3851
     44 H           6.7519   -4.1134   20.8100 H       1  UNL1        0.2103
@<TRIPOS>BOND
     1    33    34    1
     2    28    34    1
     3    28    26    1
     4    26    23    1
     5    23    24    2
     6    23    25    2
     7    23    15    1
     8    15    16   ar
     9    16    17   ar
    10    17    18   ar
    11    18     1    1
    12     1     2   ar
    13     2     3   ar
    14     3    35    1
    15    35    36    2
    16    35    37   am
    17    37    39    1
    18    39    40    1
    19    40    41    1
    20    40    42    1
    21    40    43    1
    22     3     4   ar
    23     4     5   ar
    24     5     6    1
    25     6     7    2
    26     6     8   am
    27     8     9    1
    28     9    10    1
    29    10    11    1
    30    11    12    1
    31    11    13    1
    32    13    14    1
    33    18    19   ar
    34    19    20    1
    35    19    21   ar
    36    21    22    1
    37    28    29    1
    38    29    30    1
    39    29    31    1
    40    29    32    1
    41    21    15   ar
    42     5     1   ar
    43    14     8    1
    44    26    27    1
    45    37    38    1
    46    43    44    1
@<TRIPOS>MOLECULE
*****
 44 46 0 0 0
SMALL
GASTEIGER

@<TRIPOS>ATOM
      1 C           5.4520   -1.3516   26.8459 C.ar    1  UNL1        0.0539
      2 S           4.3304   -0.8671   27.7160 S.2     1  UNL1       -0.0619
      3 C           4.7254   -1.0862   29.1464 C.ar    1  UNL1        0.1641
      4 N           6.0912   -1.7062   29.1603 N.ar    1  UNL1       -0.2291
      5 C           6.5403   -1.8702   27.7385 C.ar    1  UNL1        0.1414
      6 C           7.8480   -2.4509   27.2885 C.2     1  UNL1        0.2673
      7 O           9.0712   -1.5847   27.2252 O.2     1  UNL1       -0.2682
      8 N           7.9328   -3.8976   26.9016 N.am    1  UNL1       -0.2747
      9 C           9.2406   -4.4783   26.4515 C.3     1  UNL1        0.0966
     10 C           9.3253   -5.9250   26.0647 C.3     1  UNL1        0.0568
     11 C           8.1023   -6.7912   26.1279 C.3     1  UNL1        0.1644
     12 F           8.1870   -8.2380   25.7410 F       1  UNL1       -0.2372
     13 C           6.7945   -6.2106   26.5779 C.3     1  UNL1        0.0568
     14 C           6.7098   -4.7638   26.9648 C.3     1  UNL1        0.0966
     15 C           5.5374   -1.2647   22.3475 C.ar    1  UNL1        0.1333
     16 C           4.7031   -2.2860   23.0622 C.ar    1  UNL1        0.0208
     17 C           4.6746   -2.3150   24.5617 C.ar    1  UNL1        0.0028
     18 C           5.4805   -1.3226   25.3464 C.ar    1  UNL1        0.0191
     19 C           6.3148   -0.3014   24.6317 C.ar    1  UNL1        0.0700
     20 CL          7.1207    0.6910   25.4164 Cl      1  UNL1       -0.0813
     21 C           6.3433   -0.2724   23.1323 C.ar    1  UNL1        0.0867
     22 CL          7.1776    0.7489   22.4175 Cl      1  UNL1       -0.0800
     23 S           5.5658   -1.2357   20.8481 S.O2    1  UNL1        0.0613
     24 O           4.4542   -0.2286   20.8464 O.2     1  UNL1       -0.1530
     25 O           6.6774   -2.2429   20.8497 O.2     1  UNL1       -0.1530
     26 N           5.5943   -1.2068   19.3486 N.3     1  UNL1       -0.1723
     27 H           5.6726   -0.2274   19.0745 H       1  UNL1        0.1491
     28 C           4.4534   -1.7857   18.5655 C.3     1  UNL1        0.1700
     29 C           3.9531   -3.1650   18.8775 C.3     1  UNL1        0.4118
     30 F           3.4528   -4.5442   19.1894 F       1  UNL1       -0.1685
     31 F           5.1262   -3.7546   18.1520 F       1  UNL1       -0.1685
     32 F           2.7801   -2.5754   19.6030 F       1  UNL1       -0.1685
     33 C           2.9455    0.1904   17.8097 C.3     1  UNL1        0.0018
     34 C           3.8129   -0.9854   17.4704 C.3     1  UNL1        0.0261
     35 C           3.8995   -0.7452   30.3512 C.2     1  UNL1        0.2699
     36 O           2.4026   -0.7342   30.2558 O.2     1  UNL1       -0.2679
     37 N           4.5706   -0.4152   31.6515 N.am    1  UNL1       -0.2969
     38 H           5.5531   -0.4224   31.7141 H       1  UNL1        0.1499
     39 C           3.7448   -0.0742   32.8563 C.3     1  UNL1        0.1166
     40 C           4.2656   -0.3719   34.2313 C.3     1  UNL1        0.1064
     41 C           4.4448   -1.8120   33.8515 C.3     1  UNL1        0.0311
     42 C           4.0863    1.0682   34.6109 C.3     1  UNL1        0.0311
     43 O           4.7864   -0.6696   35.6061 O.3     1  UNL1       -0.3851
     44 H           5.0079   -1.6117   35.6710 H       1  UNL1        0.2103
@<TRIPOS>BOND
     1    33    34    1
     2    28    34    1
     3    28    26    1
     4    26    23    1
     5    23    24    2
     6    23    25    2
     7    23    15    1
     8    15    16   ar
     9    16    17   ar
    10    17    18   ar
    11    18     1    1
    12     1     2   ar
    13     2     3   ar
    14     3    35    1
    15    35    36    2
    16    35    37   am
    17    37    39    1
    18    39    40    1
    19    40    41    1
    20    40    42    1
    21    40    43    1
    22     3     4   ar
    23     4     5   ar
    24     5     6    1
    25     6     7    2
    26     6     8   am
    27     8     9    1
    28     9    10    1
    29    10    11    1
    30    11    12    1
    31    11    13    1
    32    13    14    1
    33    18    19   ar
    34    19    20    1
    35    19    21   ar
    36    21    22    1
    37    28    29    1
    38    29    30    1
    39    29    31    1
    40    29    32    1
    41    21    15   ar
    42     5     1   ar
    43    14     8    1
    44    26    27    1
    45    37    38    1
    46    43    44    1
@<TRIPOS>MOLECULE
*****
 44 46 0 0 0
SMALL
GASTEIGER

@<TRIPOS>ATOM
      1 C           6.4586   -2.1617   31.5372 C.ar    1  UNL1        0.0539
      2 S           6.8884   -3.5975   31.4779 S.2     1  UNL1       -0.0619
      3 C           7.1253   -3.9515   30.0397 C.ar    1  UNL1        0.1641
      4 N           6.8419   -2.7344   29.2100 N.ar    1  UNL1       -0.2291
      5 C           6.4299   -1.6282   30.1356 C.ar    1  UNL1        0.1414
      6 C           6.0550   -0.2335   29.7305 C.2     1  UNL1        0.2673
      7 O           7.1247    0.7633   29.3951 O.2     1  UNL1       -0.2682
      8 N           4.6105    0.1646   29.6608 N.am    1  UNL1       -0.2747
      9 C           4.2356    1.5594   29.2558 C.3     1  UNL1        0.0966
     10 C           2.7911    1.9575   29.1861 C.3     1  UNL1        0.0568
     11 C           1.7214    0.9609   29.5214 C.3     1  UNL1        0.1644
     12 F           0.2769    1.3589   29.4518 F       1  UNL1       -0.2372
     13 C           2.0963   -0.4340   29.9265 C.3     1  UNL1        0.0568
     14 C           3.5408   -0.8320   29.9962 C.3     1  UNL1        0.0966
     15 C           5.4353    0.1414   35.2653 C.ar    1  UNL1        0.1333
     16 C           4.4394   -0.8134   34.6765 C.ar    1  UNL1        0.0208
     17 C           4.7806   -1.5810   33.4337 C.ar    1  UNL1        0.0028
     18 C           6.1175   -1.3940   32.7799 C.ar    1  UNL1        0.0191
     19 C           7.1133   -0.4393   33.3688 C.ar    1  UNL1        0.0700
     20 CL          8.4504   -0.2522   32.7150 Cl      1  UNL1       -0.0813
     21 C           6.7722    0.3284   34.6115 C.ar    1  UNL1        0.0867
     22 CL          7.7681    1.2832   35.2004 Cl      1  UNL1       -0.0800
     23 S           5.0941    0.9090   36.5080 S.O2    1  UNL1        0.0613
     24 O           4.5238    2.0139   35.6690 O.2     1  UNL1       -0.1530
     25 O           5.6644   -0.1958   37.3471 O.2     1  UNL1       -0.1530
     26 N           4.7530    1.6767   37.7507 N.3     1  UNL1       -0.1723
     27 H           5.1229    1.1430   38.5374 H       1  UNL1        0.1491
     28 C           3.3208    1.9853   38.0722 C.3     1  UNL1        0.1700
     29 C           2.8441    3.4075   38.0828 C.3     1  UNL1        0.4118
     30 F           2.3675    4.8297   38.0934 F       1  UNL1       -0.1685
     31 F           1.9964    3.1324   36.8763 F       1  UNL1       -0.1685
     32 F           3.6918    3.6826   39.2894 F       1  UNL1       -0.1685
     33 C           1.2203    1.1064   39.3235 C.3     1  UNL1        0.0018
     34 C           2.3651    0.8717   38.3831 C.3     1  UNL1        0.0261
     35 C           7.5678   -5.2880   29.5220 C.2     1  UNL1        0.2699
     36 O           7.3814   -6.5168   30.3618 O.2     1  UNL1       -0.2679
     37 N           8.1968   -5.3956   28.1645 N.am    1  UNL1       -0.2969
     38 H           8.3191   -4.5891   27.6133 H       1  UNL1        0.1499
     39 C           8.6393   -6.7321   27.6468 C.3     1  UNL1        0.1166
     40 C           7.6448   -7.6558   27.0080 C.3     1  UNL1        0.1064
     41 C           6.9544   -6.4799   26.3828 C.3     1  UNL1        0.0311
     42 C           8.3352   -8.8315   27.6334 C.3     1  UNL1        0.0311
     43 O           6.6503   -8.5794   26.3693 O.3     1  UNL1       -0.3851
     44 H           6.0150   -8.0616   25.8504 H       1  UNL1        0.2103
@<TRIPOS>BOND
     1    33    34    1
     2    28    34    1
     3    28    26    1
     4    26    23    1
     5    23    24    2
     6    23    25    2
     7    23    15    1
     8    15    16   ar
     9    16    17   ar
    10    17    18   ar
    11    18     1    1
    12     1     2   ar
    13     2     3   ar
    14     3    35    1
    15    35    36    2
    16    35    37   am
    17    37    39    1
    18    39    40    1
    19    40    41    1
    20    40    42    1
    21    40    43    1
    22     3     4   ar
    23     4     5   ar
    24     5     6    1
    25     6     7    2
    26     6     8   am
    27     8     9    1
    28     9    10    1
    29    10    11    1
    30    11    12    1
    31    11    13    1
    32    13    14    1
    33    18    19   ar
    34    19    20    1
    35    19    21   ar
    36    21    22    1
    37    28    29    1
    38    29    30    1
    39    29    31    1
    40    29    32    1
    41    21    15   ar
    42     5     1   ar
    43    14     8    1
    44    26    27    1
    45    37    38    1
    46    43    44    1
@<TRIPOS>MOLECULE
*****
 44 46 0 0 0
SMALL
GASTEIGER

@<TRIPOS>ATOM
      1 C           0.4795    2.1548   25.2221 C.ar    1  UNL1        0.0539
      2 S           0.7614    1.0605   24.2358 S.2     1  UNL1       -0.0619
      3 C           0.4646    1.5862   22.8627 C.ar    1  UNL1        0.1641
      4 N          -0.0007    3.0055   23.0003 N.ar    1  UNL1       -0.2291
      5 C           0.0085    3.3570   24.4585 C.ar    1  UNL1        0.1414
      6 C          -0.3844    4.6785   25.0494 C.2     1  UNL1        0.2673
      7 O           0.5782    5.8287   25.0210 O.2     1  UNL1       -0.2682
      8 N          -1.7397    4.8501   25.6687 N.am    1  UNL1       -0.2747
      9 C          -2.1325    6.1716   26.2596 C.3     1  UNL1        0.0966
     10 C          -3.4879    6.3431   26.8789 C.3     1  UNL1        0.0568
     11 C          -4.4505    5.1931   26.9074 C.3     1  UNL1        0.1644
     12 F          -5.8058    5.3646   27.5267 F       1  UNL1       -0.2372
     13 C          -4.0577    3.8714   26.3165 C.3     1  UNL1        0.0568
     14 C          -2.7023    3.7000   25.6972 C.3     1  UNL1        0.0966
     15 C           0.9619    1.8799   29.6877 C.ar    1  UNL1        0.1333
     16 C          -0.2416    1.2782   29.0250 C.ar    1  UNL1        0.0208
     17 C          -0.4024    1.3698   27.5364 C.ar    1  UNL1        0.0028
     18 C           0.6403    2.0632   26.7107 C.ar    1  UNL1        0.0191
     19 C           1.8438    2.6650   27.3735 C.ar    1  UNL1        0.0700
     20 CL          2.8866    3.3584   26.5477 Cl      1  UNL1       -0.0813
     21 C           2.0047    2.5733   28.8620 C.ar    1  UNL1        0.0867
     22 CL          3.2083    3.1751   29.5248 Cl      1  UNL1       -0.0800
     23 S           1.1228    1.7883   31.1763 S.O2    1  UNL1        0.0613
     24 O           0.4391    3.1143   31.3318 O.2     1  UNL1       -0.1530
     25 O           1.8064    0.4622   31.0208 O.2     1  UNL1       -0.1530
     26 N           1.2836    1.6966   32.6648 N.3     1  UNL1       -0.1723
     27 H           0.3781    1.9278   33.0736 H       1  UNL1        0.1491
     28 C           2.3035    2.5467   33.3627 C.3     1  UNL1        0.1700
     29 C           1.9347    3.2833   34.6163 C.3     1  UNL1        0.4118
     30 F           1.5660    4.0199   35.8699 F       1  UNL1       -0.1685
     31 F           1.5343    4.4751   33.7983 F       1  UNL1       -0.1685
     32 F           2.3351    2.0915   35.4344 F       1  UNL1       -0.1685
     33 C           4.7542    3.3805   33.5838 C.3     1  UNL1        0.0018
     34 C           3.6922    2.6603   32.8071 C.3     1  UNL1        0.0261
     35 C           0.6081    0.8261   21.5775 C.2     1  UNL1        0.2699
     36 O          -0.4271    0.9699   20.5015 O.2     1  UNL1       -0.2679
     37 N           1.7866   -0.0779   21.3684 N.am    1  UNL1       -0.2969
     38 H           2.4661   -0.1723   22.0746 H       1  UNL1        0.1499
     39 C           1.9301   -0.8380   20.0832 C.3     1  UNL1        0.1166
     40 C           3.2781   -0.9757   19.4397 C.3     1  UNL1        0.1064
     41 C           3.6430   -2.0399   20.4318 C.3     1  UNL1        0.0311
     42 C           2.9131    0.0886   18.4476 C.3     1  UNL1        0.0311
     43 O           4.6261   -1.1133   18.7962 O.3     1  UNL1       -0.3851
     44 H           5.1391   -1.7918   19.2623 H       1  UNL1        0.2103
@<TRIPOS>BOND
     1    33    34    1
     2    28    34    1
     3    28    26    1
     4    26    23    1
     5    23    24    2
     6    23    25    2
     7    23    15    1
     8    15    16   ar
     9    16    17   ar
    10    17    18   ar
    11    18     1    1
    12     1     2   ar
    13     2     3   ar
    14     3    35    1
    15    35    36    2
    16    35    37   am
    17    37    39    1
    18    39    40    1
    19    40    41    1
    20    40    42    1
    21    40    43    1
    22     3     4   ar
    23     4     5   ar
    24     5     6    1
    25     6     7    2
    26     6     8   am
    27     8     9    1
    28     9    10    1
    29    10    11    1
    30    11    12    1
    31    11    13    1
    32    13    14    1
    33    18    19   ar
    34    19    20    1
    35    19    21   ar
    36    21    22    1
    37    28    29    1
    38    29    30    1
    39    29    31    1
    40    29    32    1
    41    21    15   ar
    42     5     1   ar
    43    14     8    1
    44    26    27    1
    45    37    38    1
    46    43    44    1
@<TRIPOS>MOLECULE
*****
 44 46 0 0 0
SMALL
GASTEIGER

@<TRIPOS>ATOM
      1 C           5.1137   -2.1591   21.0469 C.ar    1  UNL1        0.0539
      2 S           5.5040   -2.9979   22.2276 S.2     1  UNL1       -0.0619
      3 C           6.7668   -3.7290   21.8797 C.ar    1  UNL1        0.1641
      4 N           7.1569   -3.3419   20.4840 N.ar    1  UNL1       -0.2291
      5 C           6.1353   -2.3717   19.9693 C.ar    1  UNL1        0.1414
      6 C           6.1352   -1.7272   18.6148 C.2     1  UNL1        0.2673
      7 O           5.4358   -2.3936   17.4672 O.2     1  UNL1       -0.2682
      8 N           6.8345   -0.4165   18.4078 N.am    1  UNL1       -0.2747
      9 C           6.8344    0.2279   17.0533 C.3     1  UNL1        0.0966
     10 C           7.5338    1.5387   16.8464 C.3     1  UNL1        0.0568
     11 C           8.2331    2.2051   17.9938 C.3     1  UNL1        0.1644
     12 F           8.9325    3.5158   17.7869 F       1  UNL1       -0.2372
     13 C           8.2332    1.5607   19.3484 C.3     1  UNL1        0.0568
     14 C           7.5339    0.2499   19.5554 C.3     1  UNL1        0.0966
     15 C           1.5108    0.5241   20.7838 C.ar    1  UNL1        0.1333
     16 C           1.4693   -0.8485   20.1805 C.ar    1  UNL1        0.0208
     17 C           2.6703   -1.7429   20.2682 C.ar    1  UNL1        0.0028
     18 C           3.9127   -1.2647   20.9592 C.ar    1  UNL1        0.0191
     19 C           3.9542    0.1080   21.5625 C.ar    1  UNL1        0.0700
     20 CL          5.1967    0.5863   22.2535 Cl      1  UNL1       -0.0813
     21 C           2.7532    1.0024   21.4748 C.ar    1  UNL1        0.0867
     22 CL          2.7947    2.3751   22.0781 Cl      1  UNL1       -0.0800
     23 S           0.3098    1.4185   20.6961 S.O2    1  UNL1        0.0613
     24 O          -0.1273    0.9651   22.0575 O.2     1  UNL1       -0.1530
     25 O           0.7469    1.8720   19.3348 O.2     1  UNL1       -0.1530
     26 N          -0.8912    2.3129   20.6084 N.3     1  UNL1       -0.1723
     27 H          -0.9014    2.7005   19.6650 H       1  UNL1        0.1491
     28 C          -1.0360    3.4690   21.5531 C.3     1  UNL1        0.1700
     29 C          -2.2681    3.5966   22.3991 C.3     1  UNL1        0.4118
     30 F          -3.5002    3.7242   23.2450 F       1  UNL1       -0.1685
     31 F          -3.1051    3.1104   21.2532 F       1  UNL1       -0.1685
     32 F          -1.4311    4.0828   23.5449 F       1  UNL1       -0.1685
     33 C           0.4874    5.2480   20.4286 C.3     1  UNL1        0.0018
     34 C           0.0514    4.4976   21.6519 C.3     1  UNL1        0.0261
     35 C           7.5090   -4.6800   22.7711 C.2     1  UNL1        0.2699
     36 O           8.3581   -5.7618   22.1719 O.2     1  UNL1       -0.2679
     37 N           7.4022   -4.5493   24.2615 N.am    1  UNL1       -0.2969
     38 H           6.8449   -3.8394   24.6547 H       1  UNL1        0.1499
     39 C           8.1445   -5.5004   25.1528 C.3     1  UNL1        0.1166
     40 C           7.3996   -6.5737   25.8901 C.3     1  UNL1        0.1064
     41 C           6.6778   -5.5264   26.6853 C.3     1  UNL1        0.0311
     42 C           8.1214   -7.6209   25.0948 C.3     1  UNL1        0.0311
     43 O           6.6547   -7.6469   26.6273 O.3     1  UNL1       -0.3851
     44 H           6.0541   -7.2397   27.2711 H       1  UNL1        0.2103
@<TRIPOS>BOND
     1    33    34    1
     2    28    34    1
     3    28    26    1
     4    26    23    1
     5    23    24    2
     6    23    25    2
     7    23    15    1
     8    15    16   ar
     9    16    17   ar
    10    17    18   ar
    11    18     1    1
    12     1     2   ar
    13     2     3   ar
    14     3    35    1
    15    35    36    2
    16    35    37   am
    17    37    39    1
    18    39    40    1
    19    40    41    1
    20    40    42    1
    21    40    43    1
    22     3     4   ar
    23     4     5   ar
    24     5     6    1
    25     6     7    2
    26     6     8   am
    27     8     9    1
    28     9    10    1
    29    10    11    1
    30    11    12    1
    31    11    13    1
    32    13    14    1
    33    18    19   ar
    34    19    20    1
    35    19    21   ar
    36    21    22    1
    37    28    29    1
    38    29    30    1
    39    29    31    1
    40    29    32    1
    41    21    15   ar
    42     5     1   ar
    43    14     8    1
    44    26    27    1
    45    37    38    1
    46    43    44    1
@<TRIPOS>MOLECULE
*****
 44 46 0 0 0
SMALL
GASTEIGER

@<TRIPOS>ATOM
      1 C           2.8317    1.9215   32.2153 C.ar    1  UNL1        0.0539
      2 S           2.0969    2.4887   33.3936 S.2     1  UNL1       -0.0619
      3 C           3.0453    2.5306   34.5550 C.ar    1  UNL1        0.1641
      4 N           4.3662    1.9892   34.0946 N.ar    1  UNL1       -0.2291
      5 C           4.2342    1.6128   32.6486 C.ar    1  UNL1        0.1414
      6 C           5.3150    1.0299   31.7871 C.2     1  UNL1        0.2673
      7 O           6.0906    1.9140   30.8560 O.2     1  UNL1       -0.2682
      8 N           5.6203   -0.4370   31.8566 N.am    1  UNL1       -0.2747
      9 C           6.7011   -1.0199   30.9951 C.3     1  UNL1        0.0966
     10 C           7.0063   -2.4868   31.0647 C.3     1  UNL1        0.0568
     11 C           6.2309   -3.3710   31.9957 C.3     1  UNL1        0.1644
     12 F           6.5361   -4.8379   32.0653 F       1  UNL1       -0.2372
     13 C           5.1500   -2.7882   32.8573 C.3     1  UNL1        0.0568
     14 C           4.8448   -1.3212   32.7877 C.3     1  UNL1        0.0966
     15 C           1.1278    1.2617   28.1030 C.ar    1  UNL1        0.1333
     16 C           1.4008    0.0898   28.9986 C.ar    1  UNL1        0.0208
     17 C           1.9688    0.3097   30.3694 C.ar    1  UNL1        0.0028
     18 C           2.2637    1.7015   30.8445 C.ar    1  UNL1        0.0191
     19 C           1.9908    2.8734   29.9489 C.ar    1  UNL1        0.0700
     20 CL          2.2857    4.2653   30.4241 Cl      1  UNL1       -0.0813
     21 C           1.4228    2.6535   28.5781 C.ar    1  UNL1        0.0867
     22 CL          1.1498    3.8254   27.6825 Cl      1  UNL1       -0.0800
     23 S           0.5599    1.0417   26.7322 S.O2    1  UNL1        0.0613
     24 O           1.9482    0.9434   26.1728 O.2     1  UNL1       -0.1530
     25 O          -0.8284    1.1401   27.2916 O.2     1  UNL1       -0.1530
     26 N          -0.0081    0.8218   25.3614 N.3     1  UNL1       -0.1723
     27 H           0.4139   -0.0344   25.0017 H       1  UNL1        0.1491
     28 C           0.1651    1.8684   24.3010 C.3     1  UNL1        0.1700
     29 C          -0.2890    3.2754   24.5547 C.3     1  UNL1        0.4118
     30 F          -0.7431    4.6823   24.8083 F       1  UNL1       -0.1685
     31 F          -1.7000    2.7915   24.7127 F       1  UNL1       -0.1685
     32 F           1.1220    3.7593   24.3966 F       1  UNL1       -0.1685
     33 C           0.1611    1.9635   21.7047 C.3     1  UNL1        0.0018
     34 C           0.7923    1.5082   22.9869 C.3     1  UNL1        0.0261
     35 C           2.7283    3.0268   35.9346 C.2     1  UNL1        0.2699
     36 O           2.9633    4.4659   36.2865 O.2     1  UNL1       -0.2679
     37 N           2.1763    2.0839   36.9623 N.am    1  UNL1       -0.2969
     38 H           2.0220    1.1394   36.7313 H       1  UNL1        0.1499
     39 C           1.8593    2.5800   38.3419 C.3     1  UNL1        0.1166
     40 C           1.3851    1.6209   39.3933 C.3     1  UNL1        0.1064
     41 C           0.1610    2.4610   39.6076 C.3     1  UNL1        0.0311
     42 C           2.6093    0.7808   39.1790 C.3     1  UNL1        0.0311
     43 O           0.9110    0.6618   40.4446 O.3     1  UNL1       -0.3851
     44 H           0.0624    0.9672   40.8019 H       1  UNL1        0.2103
@<TRIPOS>BOND
     1    33    34    1
     2    28    34    1
     3    28    26    1
     4    26    23    1
     5    23    24    2
     6    23    25    2
     7    23    15    1
     8    15    16   ar
     9    16    17   ar
    10    17    18   ar
    11    18     1    1
    12     1     2   ar
    13     2     3   ar
    14     3    35    1
    15    35    36    2
    16    35    37   am
    17    37    39    1
    18    39    40    1
    19    40    41    1
    20    40    42    1
    21    40    43    1
    22     3     4   ar
    23     4     5   ar
    24     5     6    1
    25     6     7    2
    26     6     8   am
    27     8     9    1
    28     9    10    1
    29    10    11    1
    30    11    12    1
    31    11    13    1
    32    13    14    1
    33    18    19   ar
    34    19    20    1
    35    19    21   ar
    36    21    22    1
    37    28    29    1
    38    29    30    1
    39    29    31    1
    40    29    32    1
    41    21    15   ar
    42     5     1   ar
    43    14     8    1
    44    26    27    1
    45    37    38    1
    46    43    44    1
