@<TRIPOS>MOLECULE
*****
 34 36 0 0 0
SMALL
GASTEIGER

@<TRIPOS>ATOM
      1 N           7.8586   -4.7398   28.4360 N.am    1  UNL1       -0.2560
      2 C           7.1922   -3.3982   28.3580 C.3     1  UNL1        0.1394
      3 C           6.7895   -2.9992   29.7468 C.ar    1  UNL1        0.0662
      4 C           6.1287   -1.9234   30.5568 C.ar    1  UNL1        0.0247
      5 C           6.1379   -2.3535   31.9937 C.ar    1  UNL1        0.0614
      6 C           6.8043   -3.6951   32.0718 C.ar    1  UNL1        0.0922
      7 N           7.2070   -4.0942   30.6831 N.ar    1  UNL1       -0.2624
      8 C           7.8677   -5.1699   29.8731 C.2     1  UNL1        0.3234
      9 O           8.4375   -6.4509   30.4064 O.2     1  UNL1       -0.2490
     10 C           5.5788   -1.5782   33.1497 C.1     1  UNL1       -0.0497
     11 C           5.0197   -0.8029   34.3057 C.1     1  UNL1       -0.0095
     12 C           4.4607   -0.0274   35.4617 C.1     1  UNL1       -0.0138
     13 C           3.9016    0.7479   36.6177 C.1     1  UNL1       -0.0760
     14 C           3.3426    1.5232   37.7736 C.3     1  UNL1        0.1001
     15 C           3.4067    2.7010   38.7003 C.3     1  UNL1        0.0519
     16 C           2.3102    1.6884   38.8493 C.3     1  UNL1        0.1726
     17 F           1.4710    0.4716   38.5938 F       1  UNL1       -0.2364
     18 C           1.5692    2.2761   40.0135 C.3     1  UNL1        0.1706
     19 O           0.6791    1.4073   40.8519 O.3     1  UNL1       -0.3793
     20 H          -0.0718    1.1034   40.3183 H       1  UNL1        0.2106
     21 C           8.4176   -5.5151   27.2801 C.3     1  UNL1        0.0977
     22 C           7.5422   -5.8524   26.1096 C.3     1  UNL1        0.0524
     23 C           8.6383   -7.4706   23.8337 C.3     1  UNL1        0.0331
     24 C           8.0902   -6.6615   24.9717 C.3     1  UNL1        0.1820
     25 C           8.1391   -7.8721   25.8560 C.2     1  UNL1        0.2640
     26 O           9.4546   -8.5247   26.1620 O.2     1  UNL1       -0.2713
     27 N           6.8726   -8.4302   26.4343 N.am    1  UNL1       -0.1956
     28 O           6.9215   -9.6408   27.3185 O.3     1  UNL1       -0.2951
     29 H           6.0092   -8.0019   26.2334 H       1  UNL1        0.1823
     30 H           7.8409   -9.9351   27.4133 H       1  UNL1        0.2414
     31 S           8.0413   -5.4509   24.0874 S.O2    1  UNL1       -0.0034
     32 C           7.9926   -4.2404   23.2030 C.3     1  UNL1        0.1765
     33 O           9.3682   -5.8279   23.4981 O.2     1  UNL1       -0.1726
     34 O           6.7145   -5.0739   24.6766 O.2     1  UNL1       -0.1726
@<TRIPOS>BOND
     1    24    23    1
     2    24    22    1
     3    22    21    1
     4    21     1    1
     5     1     2    1
     6     2     3    1
     7     3     4   ar
     8     4     5   ar
     9     5    10    1
    10    10    11    3
    11    11    12    1
    12    12    13    3
    13    14    13    1
    14    14    15    1
    15    15    16    1
    16    16    17    1
    17    16    18    1
    18    18    19    1
    19     5     6   ar
    20     6     7   ar
    21     7     8   am
    22     8     9    2
    23    24    25    1
    24    25    26    2
    25    25    27   am
    26    27    28    1
    27    24    31    1
    28    31    32    1
    29    31    33    2
    30    31    34    2
    31     8     1   am
    32     7     3   ar
    33    16    14    1
    34    19    20    1
    35    27    29    1
    36    28    30    1
@<TRIPOS>MOLECULE
*****
 34 36 0 0 0
SMALL
GASTEIGER

@<TRIPOS>ATOM
      1 N           4.5464   -1.1529   29.6661 N.am    1  UNL1       -0.2560
      2 C           3.2886   -0.8877   30.4392 C.3     1  UNL1        0.1394
      3 C           2.3522   -0.1216   29.5525 C.ar    1  UNL1        0.0662
      4 C           0.9961    0.5157   29.4824 C.ar    1  UNL1        0.0247
      5 C           0.8371    1.1179   28.1179 C.ar    1  UNL1        0.0614
      6 C           2.0948    0.8528   27.3447 C.ar    1  UNL1        0.0922
      7 N           3.0312    0.0867   28.2313 N.ar    1  UNL1       -0.2624
      8 C           4.3873   -0.5506   28.3015 C.2     1  UNL1        0.3234
      9 O           5.4055   -0.5805   27.2004 O.2     1  UNL1       -0.2490
     10 C          -0.3681    1.8557   27.6148 C.1     1  UNL1       -0.0497
     11 C          -1.5733    2.5936   27.1117 C.1     1  UNL1       -0.0095
     12 C          -2.7785    3.3315   26.6087 C.1     1  UNL1       -0.0138
     13 C          -3.9838    4.0693   26.1056 C.1     1  UNL1       -0.0760
     14 C          -5.1889    4.8071   25.6026 C.3     1  UNL1        0.1001
     15 C          -6.1625    5.9416   25.7256 C.3     1  UNL1        0.0519
     16 C          -6.3029    4.9507   24.6084 C.3     1  UNL1        0.1726
     17 F          -6.0226    3.7671   23.7306 F       1  UNL1       -0.2364
     18 C          -7.5142    5.5052   23.9190 C.3     1  UNL1        0.1706
     19 O          -8.2089    4.7007   22.8605 O.3     1  UNL1       -0.3793
     20 H          -7.6209    4.5958   22.0962 H       1  UNL1        0.2106
     21 C           5.7516   -1.8907   30.1691 C.3     1  UNL1        0.0977
     22 C           5.8942   -2.1843   31.6332 C.3     1  UNL1        0.0524
     23 C           8.6204   -2.3145   32.8784 C.3     1  UNL1        0.0331
     24 C           7.2573   -2.2494   32.2558 C.3     1  UNL1        0.1820
     25 C           7.3482   -3.7049   31.9047 C.2     1  UNL1        0.2640
     26 O           8.3718   -4.1749   30.9142 O.2     1  UNL1       -0.2713
     27 N           6.4155   -4.6903   32.5442 N.am    1  UNL1       -0.1956
     28 O           6.5064   -6.1458   32.1931 O.3     1  UNL1       -0.2951
     29 H           5.7437   -4.3818   33.1943 H       1  UNL1        0.1823
     30 H           7.2147   -6.2781   31.5437 H       1  UNL1        0.2414
     31 S           7.1665   -0.7939   32.6069 S.O2    1  UNL1       -0.0034
     32 C           7.0755    0.6616   32.9581 C.3     1  UNL1        0.1765
     33 O           5.9092   -1.0591   33.3808 O.2     1  UNL1       -0.1726
     34 O           8.4236   -0.5287   31.8330 O.2     1  UNL1       -0.1726
@<TRIPOS>BOND
     1    24    23    1
     2    24    22    1
     3    22    21    1
     4    21     1    1
     5     1     2    1
     6     2     3    1
     7     3     4   ar
     8     4     5   ar
     9     5    10    1
    10    10    11    3
    11    11    12    1
    12    12    13    3
    13    14    13    1
    14    14    15    1
    15    15    16    1
    16    16    17    1
    17    16    18    1
    18    18    19    1
    19     5     6   ar
    20     6     7   ar
    21     7     8   am
    22     8     9    2
    23    24    25    1
    24    25    26    2
    25    25    27   am
    26    27    28    1
    27    24    31    1
    28    31    32    1
    29    31    33    2
    30    31    34    2
    31     8     1   am
    32     7     3   ar
    33    16    14    1
    34    19    20    1
    35    27    29    1
    36    28    30    1
@<TRIPOS>MOLECULE
*****
 34 36 0 0 0
SMALL
GASTEIGER

@<TRIPOS>ATOM
      1 N           4.0583   -2.5236   20.4563 N.am    1  UNL1       -0.2560
      2 C           4.9713   -3.1926   21.4406 C.3     1  UNL1        0.1394
      3 C           4.7058   -2.6029   22.7940 C.ar    1  UNL1        0.0662
      4 C           5.1061   -2.6519   24.2388 C.ar    1  UNL1        0.0247
      5 C           4.2763   -1.6487   24.9839 C.ar    1  UNL1        0.0614
      6 C           3.3633   -0.9797   23.9996 C.ar    1  UNL1        0.0922
      7 N           3.6287   -1.5694   22.6462 N.ar    1  UNL1       -0.2624
      8 C           3.2285   -1.5204   21.2014 C.2     1  UNL1        0.3234
      9 O           2.1822   -0.6254   20.6062 O.2     1  UNL1       -0.2490
     10 C           4.3472   -1.3644   26.4550 C.1     1  UNL1       -0.0497
     11 C           4.4180   -1.0801   27.9261 C.1     1  UNL1       -0.0095
     12 C           4.4889   -0.7958   29.3973 C.1     1  UNL1       -0.0138
     13 C           4.5598   -0.5114   30.8684 C.1     1  UNL1       -0.0760
     14 C           4.6308   -0.2270   32.3394 C.3     1  UNL1        0.1001
     15 C           4.6791    0.7556   33.4716 C.3     1  UNL1        0.0519
     16 C           4.7054   -0.7170   33.7552 C.3     1  UNL1        0.1726
     17 F           4.7058   -2.1982   33.5183 F       1  UNL1       -0.2364
     18 C           4.7798   -0.6928   35.2531 C.3     1  UNL1        0.1706
     19 O           4.3711    0.5394   36.0045 O.3     1  UNL1       -0.3793
     20 H           4.9855    1.2616   35.7998 H       1  UNL1        0.2106
     21 C           3.9874   -2.8079   18.9852 C.3     1  UNL1        0.0977
     22 C           5.1022   -2.3699   18.0821 C.3     1  UNL1        0.0524
     23 C           6.1112    0.4526   18.2048 C.3     1  UNL1        0.0331
     24 C           5.6067   -0.9587   18.1434 C.3     1  UNL1        0.1820
     25 C           4.2838   -0.4638   17.6386 C.2     1  UNL1        0.2640
     26 O           3.7358   -0.9793   16.3409 O.2     1  UNL1       -0.2713
     27 N           3.5089    0.5466   18.4314 N.am    1  UNL1       -0.1956
     28 O           2.1859    1.0415   17.9265 O.3     1  UNL1       -0.2951
     29 H           3.8685    0.8850   19.2831 H       1  UNL1        0.1823
     30 H           1.9806    0.6111   17.0818 H       1  UNL1        0.2414
     31 S           6.9297   -1.4535   18.6483 S.O2    1  UNL1       -0.0034
     32 C           8.2526   -1.9483   19.1533 C.3     1  UNL1        0.1765
     33 O           6.7859   -0.5929   19.8684 O.2     1  UNL1       -0.1726
     34 O           7.0735   -2.3141   17.4283 O.2     1  UNL1       -0.1726
@<TRIPOS>BOND
     1    24    23    1
     2    24    22    1
     3    22    21    1
     4    21     1    1
     5     1     2    1
     6     2     3    1
     7     3     4   ar
     8     4     5   ar
     9     5    10    1
    10    10    11    3
    11    11    12    1
    12    12    13    3
    13    14    13    1
    14    14    15    1
    15    15    16    1
    16    16    17    1
    17    16    18    1
    18    18    19    1
    19     5     6   ar
    20     6     7   ar
    21     7     8   am
    22     8     9    2
    23    24    25    1
    24    25    26    2
    25    25    27   am
    26    27    28    1
    27    24    31    1
    28    31    32    1
    29    31    33    2
    30    31    34    2
    31     8     1   am
    32     7     3   ar
    33    16    14    1
    34    19    20    1
    35    27    29    1
    36    28    30    1
@<TRIPOS>MOLECULE
*****
 34 36 0 0 0
SMALL
GASTEIGER

@<TRIPOS>ATOM
      1 N           3.9488   -1.5827   23.2647 N.am    1  UNL1       -0.2560
      2 C           3.1623   -0.5644   24.0358 C.3     1  UNL1        0.1394
      3 C           3.5404   -0.6849   25.4823 C.ar    1  UNL1        0.0662
      4 C           3.2880   -0.1300   26.8529 C.ar    1  UNL1        0.0247
      5 C           4.1522   -0.8799   27.8229 C.ar    1  UNL1        0.0614
      6 C           4.9387   -1.8982   27.0518 C.ar    1  UNL1        0.0922
      7 N           4.5606   -1.7777   25.6053 N.ar    1  UNL1       -0.2624
      8 C           4.8130   -2.3326   24.2348 C.2     1  UNL1        0.3234
      9 O           5.7629   -3.4424   23.8940 O.2     1  UNL1       -0.2490
     10 C           4.2183   -0.6515   29.3039 C.1     1  UNL1       -0.0497
     11 C           4.2844   -0.4232   30.7850 C.1     1  UNL1       -0.0095
     12 C           4.3506   -0.1949   32.2660 C.1     1  UNL1       -0.0138
     13 C           4.4167    0.0336   33.7471 C.1     1  UNL1       -0.0760
     14 C           4.4829    0.2619   35.2280 C.3     1  UNL1        0.1001
     15 C           5.0646   -0.0732   36.5694 C.3     1  UNL1        0.0519
     16 C           4.0158    0.9927   36.4520 C.3     1  UNL1        0.1726
     17 F           3.0076    1.9162   35.8349 F       1  UNL1       -0.2364
     18 C           3.8987    1.4027   37.8901 C.3     1  UNL1        0.1706
     19 O           3.2359    0.4899   38.8787 O.3     1  UNL1       -0.3793
     20 H           2.2955    0.4024   38.6579 H       1  UNL1        0.2106
     21 C           3.8827   -1.8111   21.7837 C.3     1  UNL1        0.0977
     22 C           5.0948   -1.5716   20.9330 C.3     1  UNL1        0.0524
     23 C           5.3793   -2.9765   18.2977 C.3     1  UNL1        0.0331
     24 C           5.2371   -2.2740   19.6154 C.3     1  UNL1        0.1820
     25 C           5.6462   -3.5287   20.3284 C.2     1  UNL1        0.2640
     26 O           4.8025   -4.7638   20.2170 O.2     1  UNL1       -0.2713
     27 N           6.8992   -3.5482   21.1529 N.am    1  UNL1       -0.1956
     28 O           7.3084   -4.8029   21.8659 O.3     1  UNL1       -0.2951
     29 H           7.4530   -2.7375   21.2260 H       1  UNL1        0.1823
     30 H           6.6585   -5.5012   21.6901 H       1  UNL1        0.2414
     31 S           4.8279   -1.0194   18.9023 S.O2    1  UNL1       -0.0034
     32 C           4.4186    0.2351   18.1892 C.3     1  UNL1        0.1765
     33 O           3.6694   -1.7470   18.2871 O.2     1  UNL1       -0.1726
     34 O           5.9863   -0.2918   19.5175 O.2     1  UNL1       -0.1726
@<TRIPOS>BOND
     1    24    23    1
     2    24    22    1
     3    22    21    1
     4    21     1    1
     5     1     2    1
     6     2     3    1
     7     3     4   ar
     8     4     5   ar
     9     5    10    1
    10    10    11    3
    11    11    12    1
    12    12    13    3
    13    14    13    1
    14    14    15    1
    15    15    16    1
    16    16    17    1
    17    16    18    1
    18    18    19    1
    19     5     6   ar
    20     6     7   ar
    21     7     8   am
    22     8     9    2
    23    24    25    1
    24    25    26    2
    25    25    27   am
    26    27    28    1
    27    24    31    1
    28    31    32    1
    29    31    33    2
    30    31    34    2
    31     8     1   am
    32     7     3   ar
    33    16    14    1
    34    19    20    1
    35    27    29    1
    36    28    30    1
@<TRIPOS>MOLECULE
*****
 34 36 0 0 0
SMALL
GASTEIGER

@<TRIPOS>ATOM
      1 N           2.9837    1.1608   32.3032 N.am    1  UNL1       -0.2560
      2 C           4.2464    0.6778   31.6534 C.3     1  UNL1        0.1394
      3 C           3.9363    0.3527   30.2223 C.ar    1  UNL1        0.0662
      4 C           4.5251   -0.1467   28.9362 C.ar    1  UNL1        0.0247
      5 C           3.4345   -0.1734   27.9067 C.ar    1  UNL1        0.0614
      6 C           2.1717    0.3096   28.5565 C.ar    1  UNL1        0.0922
      7 N           2.4819    0.6347   29.9876 N.ar    1  UNL1       -0.2624
      8 C           1.8931    1.1341   31.2736 C.2     1  UNL1        0.3234
      9 O           0.4646    1.5363   31.4919 O.2     1  UNL1       -0.2490
     10 C           3.5809   -0.6068   26.4782 C.1     1  UNL1       -0.0497
     11 C           3.7274   -1.0403   25.0497 C.1     1  UNL1       -0.0095
     12 C           3.8739   -1.4739   23.6212 C.1     1  UNL1       -0.0138
     13 C           4.0203   -1.9074   22.1927 C.1     1  UNL1       -0.0760
     14 C           4.1668   -2.3410   20.7643 C.3     1  UNL1        0.1001
     15 C           3.6817   -3.1448   19.5944 C.3     1  UNL1        0.0519
     16 C           4.9055   -2.2881   19.4598 C.3     1  UNL1        0.1726
     17 F           6.0055   -1.3347   19.8220 F       1  UNL1       -0.2364
     18 C           5.2624   -2.5663   18.0297 C.3     1  UNL1        0.1706
     19 O           6.6647   -2.3384   17.5485 O.3     1  UNL1       -0.3793
     20 H           6.8693   -1.3910   17.5855 H       1  UNL1        0.2106
     21 C           2.8372    1.5943   33.7317 C.3     1  UNL1        0.0977
     22 C           4.0260    2.1167   34.4826 C.3     1  UNL1        0.0524
     23 C           4.5841    1.1507   37.2675 C.3     1  UNL1        0.0331
     24 C           4.3051    1.6337   35.8750 C.3     1  UNL1        0.1820
     25 C           3.3211    2.6277   36.4170 C.2     1  UNL1        0.2640
     26 O           3.4880    4.0880   36.1176 O.2     1  UNL1       -0.2713
     27 N           2.1702    2.1614   37.2585 N.am    1  UNL1       -0.1956
     28 O           1.1863    3.1554   37.8005 O.3     1  UNL1       -0.2951
     29 H           2.0607    1.2030   37.4550 H       1  UNL1        0.1823
     30 H           1.4381    4.0479   37.5157 H       1  UNL1        0.2414
     31 S           5.2890    0.6397   35.3331 S.O2    1  UNL1       -0.0034
     32 C           6.2731   -0.3543   34.7911 C.3     1  UNL1        0.1765
     33 O           6.0513    1.7523   34.6764 O.2     1  UNL1       -0.1726
     34 O           4.5269   -0.4728   35.9898 O.2     1  UNL1       -0.1726
@<TRIPOS>BOND
     1    24    23    1
     2    24    22    1
     3    22    21    1
     4    21     1    1
     5     1     2    1
     6     2     3    1
     7     3     4   ar
     8     4     5   ar
     9     5    10    1
    10    10    11    3
    11    11    12    1
    12    12    13    3
    13    14    13    1
    14    14    15    1
    15    15    16    1
    16    16    17    1
    17    16    18    1
    18    18    19    1
    19     5     6   ar
    20     6     7   ar
    21     7     8   am
    22     8     9    2
    23    24    25    1
    24    25    26    2
    25    25    27   am
    26    27    28    1
    27    24    31    1
    28    31    32    1
    29    31    33    2
    30    31    34    2
    31     8     1   am
    32     7     3   ar
    33    16    14    1
    34    19    20    1
    35    27    29    1
    36    28    30    1
@<TRIPOS>MOLECULE
*****
 34 36 0 0 0
SMALL
GASTEIGER

@<TRIPOS>ATOM
      1 N          -1.4577    4.3624   23.2161 N.am    1  UNL1       -0.2560
      2 C          -0.2917    4.1473   22.2972 C.3     1  UNL1        0.1394
      3 C           0.4627    2.9438   22.7795 C.ar    1  UNL1        0.0662
      4 C           1.6495    2.0671   22.5097 C.ar    1  UNL1        0.0247
      5 C           1.6833    0.9966   23.5599 C.ar    1  UNL1        0.0614
      6 C           0.5174    1.2117   24.4787 C.ar    1  UNL1        0.0922
      7 N          -0.2370    2.4152   23.9964 N.ar    1  UNL1       -0.2624
      8 C          -1.4239    3.2918   24.2663 C.2     1  UNL1        0.3234
      9 O          -2.4047    3.1270   25.3891 O.2     1  UNL1       -0.2490
     10 C           2.7039   -0.0970   23.6716 C.1     1  UNL1       -0.0497
     11 C           3.7244   -1.1906   23.7833 C.1     1  UNL1       -0.0095
     12 C           4.7449   -2.2843   23.8950 C.1     1  UNL1       -0.0138
     13 C           5.7655   -3.3779   24.0067 C.1     1  UNL1       -0.0760
     14 C           6.7860   -4.4715   24.1184 C.3     1  UNL1        0.1001
     15 C           7.5173   -5.4862   24.9463 C.3     1  UNL1        0.0519
     16 C           7.8223   -5.3511   23.4839 C.3     1  UNL1        0.1726
     17 F           7.7598   -4.8499   22.0715 F       1  UNL1       -0.2364
     18 C           8.8803   -6.4046   23.3399 C.3     1  UNL1        0.1706
     19 O           8.7742   -7.4301   22.2505 O.3     1  UNL1       -0.3793
     20 H           8.0030   -7.9957   22.4128 H       1  UNL1        0.2106
     21 C          -2.4782    5.4559   23.1044 C.3     1  UNL1        0.0977
     22 C          -3.4395    5.4700   21.9529 C.3     1  UNL1        0.0524
     23 C          -4.9640    2.9862   21.2410 C.3     1  UNL1        0.0331
     24 C          -4.2017    4.2282   21.5969 C.3     1  UNL1        0.1820
     25 C          -4.9231    4.2944   22.9104 C.2     1  UNL1        0.2640
     26 O          -5.6417    5.5493   23.3090 O.2     1  UNL1       -0.2713
     27 N          -4.9259    3.1058   23.8253 N.am    1  UNL1       -0.1956
     28 O          -5.6474    3.1720   25.1388 O.3     1  UNL1       -0.2951
     29 H          -4.4543    2.2822   23.5638 H       1  UNL1        0.1823
     30 H          -6.0548    4.0464   25.2402 H       1  UNL1        0.2414
     31 S          -3.4804    4.1618   20.2835 S.O2    1  UNL1       -0.0034
     32 C          -2.7591    4.0956   18.9700 C.3     1  UNL1        0.1765
     33 O          -3.9501    5.5482   19.9556 O.2     1  UNL1       -0.1726
     34 O          -3.0107    2.7756   20.6114 O.2     1  UNL1       -0.1726
@<TRIPOS>BOND
     1    24    23    1
     2    24    22    1
     3    22    21    1
     4    21     1    1
     5     1     2    1
     6     2     3    1
     7     3     4   ar
     8     4     5   ar
     9     5    10    1
    10    10    11    3
    11    11    12    1
    12    12    13    3
    13    14    13    1
    14    14    15    1
    15    15    16    1
    16    16    17    1
    17    16    18    1
    18    18    19    1
    19     5     6   ar
    20     6     7   ar
    21     7     8   am
    22     8     9    2
    23    24    25    1
    24    25    26    2
    25    25    27   am
    26    27    28    1
    27    24    31    1
    28    31    32    1
    29    31    33    2
    30    31    34    2
    31     8     1   am
    32     7     3   ar
    33    16    14    1
    34    19    20    1
    35    27    29    1
    36    28    30    1
@<TRIPOS>MOLECULE
*****
 34 36 0 0 0
SMALL
GASTEIGER

@<TRIPOS>ATOM
      1 N           4.6293   -0.1297   20.8706 N.am    1  UNL1       -0.2560
      2 C           4.2234    0.8847   19.8428 C.3     1  UNL1        0.1394
      3 C           2.7961    1.2643   20.1045 C.ar    1  UNL1        0.0662
      4 C           1.6631    2.1258   19.6311 C.ar    1  UNL1        0.0247
      5 C           0.4866    1.8785   20.5281 C.ar    1  UNL1        0.0614
      6 C           0.8924    0.8642   21.5559 C.ar    1  UNL1        0.0922
      7 N           2.3197    0.4845   21.2941 N.ar    1  UNL1       -0.2624
      8 C           3.4527   -0.3770   21.7676 C.2     1  UNL1        0.3234
      9 O           3.4156   -1.3202   22.9333 O.2     1  UNL1       -0.2490
     10 C          -0.8595    2.5311   20.4168 C.1     1  UNL1       -0.0497
     11 C          -2.2055    3.1836   20.3055 C.1     1  UNL1       -0.0095
     12 C          -3.5516    3.8362   20.1942 C.1     1  UNL1       -0.0138
     13 C          -4.8976    4.4888   20.0830 C.1     1  UNL1       -0.0760
     14 C          -6.2435    5.1415   19.9718 C.3     1  UNL1        0.1001
     15 C          -7.3546    5.9403   20.5860 C.3     1  UNL1        0.0519
     16 C          -7.4637    5.4731   19.1649 C.3     1  UNL1        0.1726
     17 F          -7.1059    4.8108   17.8674 F       1  UNL1       -0.2364
     18 C          -8.8082    6.0347   18.8085 C.3     1  UNL1        0.1706
     19 O          -9.8821    5.1311   18.2790 O.3     1  UNL1       -0.3793
     20 H          -9.6157    4.7855   17.4126 H       1  UNL1        0.2106
     21 C           5.9753   -0.7822   20.9819 C.3     1  UNL1        0.0977
     22 C           6.4872   -1.6412   19.8637 C.3     1  UNL1        0.0524
     23 C           4.9166   -4.0367   18.9724 C.3     1  UNL1        0.0331
     24 C           5.7019   -2.8389   19.4181 C.3     1  UNL1        0.1820
     25 C           5.4633   -2.1876   18.0881 C.2     1  UNL1        0.2640
     26 O           6.6248   -1.7126   17.2664 O.2     1  UNL1       -0.2713
     27 N           4.0631   -2.0115   17.5797 N.am    1  UNL1       -0.1956
     28 O           3.8245   -1.3602   16.2497 O.3     1  UNL1       -0.2951
     29 H           3.3007   -2.3233   18.1190 H       1  UNL1        0.1823
     30 H           4.6748   -1.1146   15.8527 H       1  UNL1        0.2414
     31 S           5.9405   -3.4902   20.7480 S.O2    1  UNL1       -0.0034
     32 C           6.1789   -4.1415   22.0780 C.3     1  UNL1        0.1765
     33 O           4.4609   -3.6529   20.9337 O.2     1  UNL1       -0.1726
     34 O           7.4199   -3.3275   20.5625 O.2     1  UNL1       -0.1726
@<TRIPOS>BOND
     1    24    23    1
     2    24    22    1
     3    22    21    1
     4    21     1    1
     5     1     2    1
     6     2     3    1
     7     3     4   ar
     8     4     5   ar
     9     5    10    1
    10    10    11    3
    11    11    12    1
    12    12    13    3
    13    14    13    1
    14    14    15    1
    15    15    16    1
    16    16    17    1
    17    16    18    1
    18    18    19    1
    19     5     6   ar
    20     6     7   ar
    21     7     8   am
    22     8     9    2
    23    24    25    1
    24    25    26    2
    25    25    27   am
    26    27    28    1
    27    24    31    1
    28    31    32    1
    29    31    33    2
    30    31    34    2
    31     8     1   am
    32     7     3   ar
    33    16    14    1
    34    19    20    1
    35    27    29    1
    36    28    30    1
@<TRIPOS>MOLECULE
*****
 34 36 0 0 0
SMALL
GASTEIGER

@<TRIPOS>ATOM
      1 N           4.2698    0.0859   21.0100 N.am    1  UNL1       -0.2560
      2 C           4.2548    1.3627   21.7971 C.3     1  UNL1        0.1394
      3 C           2.8297    1.6761   22.1450 C.ar    1  UNL1        0.0662
      4 C           1.9398    2.6589   22.8465 C.ar    1  UNL1        0.0247
      5 C           0.5240    2.1831   22.7079 C.ar    1  UNL1        0.0614
      6 C           0.5389    0.9063   21.9208 C.ar    1  UNL1        0.0922
      7 N           1.9640    0.5929   21.5729 N.ar    1  UNL1       -0.2624
      8 C           2.8539   -0.3899   20.8715 C.2     1  UNL1        0.3234
      9 O           2.4066   -1.6306   20.1569 O.2     1  UNL1       -0.2490
     10 C          -0.6931    2.8645   23.2596 C.1     1  UNL1       -0.0497
     11 C          -1.9102    3.5459   23.8113 C.1     1  UNL1       -0.0095
     12 C          -3.1273    4.2274   24.3630 C.1     1  UNL1       -0.0138
     13 C          -4.3444    4.9088   24.9148 C.1     1  UNL1       -0.0760
     14 C          -5.5614    5.5902   25.4665 C.3     1  UNL1        0.1001
     15 C          -6.7501    6.4840   25.2720 C.3     1  UNL1        0.0519
     16 C          -6.4807    5.8767   26.6167 C.3     1  UNL1        0.1726
     17 F          -5.8110    5.0729   27.6917 F       1  UNL1       -0.2364
     18 C          -7.6324    6.4423   27.3936 C.3     1  UNL1        0.1706
     19 O          -7.9898    5.8659   28.7315 O.3     1  UNL1       -0.3793
     20 H          -8.3025    4.9547   28.6180 H       1  UNL1        0.2106
     21 C           5.4868   -0.5955   20.4583 C.3     1  UNL1        0.0977
     22 C           5.9716   -0.2634   19.0782 C.3     1  UNL1        0.0524
     23 C           4.1225   -0.5392   16.7320 C.3     1  UNL1        0.0331
     24 C           5.0471   -0.4013   17.9051 C.3     1  UNL1        0.1820
     25 C           5.2943   -1.8806   17.8841 C.2     1  UNL1        0.2640
     26 O           6.6424   -2.4103   17.4941 O.2     1  UNL1       -0.2713
     27 N           4.1934   -2.8303   18.2532 N.am    1  UNL1       -0.1956
     28 O           4.4407   -4.3096   18.2322 O.3     1  UNL1       -0.2951
     29 H           3.3087   -2.4827   18.5092 H       1  UNL1        0.1823
     30 H           5.3560   -4.4807   17.9604 H       1  UNL1        0.2414
     31 S           4.7998    1.0780   17.9260 S.O2    1  UNL1       -0.0034
     32 C           4.5524    2.5573   17.9469 C.3     1  UNL1        0.1765
     33 O           3.3217    0.8319   17.8572 O.2     1  UNL1       -0.1726
     34 O           6.2778    1.3242   17.9948 O.2     1  UNL1       -0.1726
@<TRIPOS>BOND
     1    24    23    1
     2    24    22    1
     3    22    21    1
     4    21     1    1
     5     1     2    1
     6     2     3    1
     7     3     4   ar
     8     4     5   ar
     9     5    10    1
    10    10    11    3
    11    11    12    1
    12    12    13    3
    13    14    13    1
    14    14    15    1
    15    15    16    1
    16    16    17    1
    17    16    18    1
    18    18    19    1
    19     5     6   ar
    20     6     7   ar
    21     7     8   am
    22     8     9    2
    23    24    25    1
    24    25    26    2
    25    25    27   am
    26    27    28    1
    27    24    31    1
    28    31    32    1
    29    31    33    2
    30    31    34    2
    31     8     1   am
    32     7     3   ar
    33    16    14    1
    34    19    20    1
    35    27    29    1
    36    28    30    1
@<TRIPOS>MOLECULE
*****
 34 36 0 0 0
SMALL
GASTEIGER

@<TRIPOS>ATOM
      1 N           3.6264   -0.3570   29.5133 N.am    1  UNL1       -0.2560
      2 C           2.2089   -0.5867   29.9469 C.3     1  UNL1        0.1394
      3 C           1.3233    0.3047   29.1277 C.ar    1  UNL1        0.0662
      4 C          -0.1001    0.7136   28.8895 C.ar    1  UNL1        0.0247
      5 C          -0.1096    1.7470   27.8022 C.ar    1  UNL1        0.0614
      6 C           1.3078    1.9767   27.3686 C.ar    1  UNL1        0.0922
      7 N           2.1935    1.0853   28.1878 N.ar    1  UNL1       -0.2624
      8 C           3.6168    0.6764   28.4261 C.2     1  UNL1        0.3234
      9 O           4.8195    1.2076   27.7039 O.2     1  UNL1       -0.2490
     10 C          -1.3235    2.4306   27.2463 C.1     1  UNL1       -0.0497
     11 C          -2.5374    3.1142   26.6903 C.1     1  UNL1       -0.0095
     12 C          -3.7513    3.7978   26.1342 C.1     1  UNL1       -0.0138
     13 C          -4.9652    4.4815   25.5781 C.1     1  UNL1       -0.0760
     14 C          -6.1789    5.1651   25.0221 C.3     1  UNL1        0.1001
     15 C          -7.0079    5.5859   23.8449 C.3     1  UNL1        0.0519
     16 C          -7.4525    5.9283   25.2360 C.3     1  UNL1        0.1726
     17 F          -7.4550    6.0162   26.7334 F       1  UNL1       -0.2364
     18 C          -8.7251    6.6610   24.9300 C.3     1  UNL1        0.1706
     19 O          -9.8486    5.9536   24.2319 O.3     1  UNL1       -0.3793
     20 H          -9.5743    5.7215   23.3309 H       1  UNL1        0.2106
     21 C           4.8403   -1.0406   30.0693 C.3     1  UNL1        0.0977
     22 C           5.6158   -0.4029   31.1838 C.3     1  UNL1        0.0524
     23 C           5.1458   -1.2599   34.0201 C.3     1  UNL1        0.0331
     24 C           5.3808   -0.8313   32.6019 C.3     1  UNL1        0.1820
     25 C           6.2045   -2.0626   32.3664 C.2     1  UNL1        0.2640
     26 O           7.6131   -1.9383   31.8661 O.2     1  UNL1       -0.2713
     27 N           5.6196   -3.4183   32.6312 N.am    1  UNL1       -0.1956
     28 O           6.4434   -4.6495   32.3957 O.3     1  UNL1       -0.2951
     29 H           4.6951   -3.4999   32.9596 H       1  UNL1        0.1823
     30 H           7.3226   -4.3940   32.0756 H       1  UNL1        0.2414
     31 S           4.5571    0.3999   32.8374 S.O2    1  UNL1       -0.0034
     32 C           3.7332    1.6310   33.0731 C.3     1  UNL1        0.1765
     33 O           3.3824   -0.4568   33.2068 O.2     1  UNL1       -0.1726
     34 O           5.7316    1.2565   32.4681 O.2     1  UNL1       -0.1726
@<TRIPOS>BOND
     1    24    23    1
     2    24    22    1
     3    22    21    1
     4    21     1    1
     5     1     2    1
     6     2     3    1
     7     3     4   ar
     8     4     5   ar
     9     5    10    1
    10    10    11    3
    11    11    12    1
    12    12    13    3
    13    14    13    1
    14    14    15    1
    15    15    16    1
    16    16    17    1
    17    16    18    1
    18    18    19    1
    19     5     6   ar
    20     6     7   ar
    21     7     8   am
    22     8     9    2
    23    24    25    1
    24    25    26    2
    25    25    27   am
    26    27    28    1
    27    24    31    1
    28    31    32    1
    29    31    33    2
    30    31    34    2
    31     8     1   am
    32     7     3   ar
    33    16    14    1
    34    19    20    1
    35    27    29    1
    36    28    30    1
