@<TRIPOS>MOLECULE
*****
 30 33 0 0 0
SMALL
GASTEIGER

@<TRIPOS>ATOM
      1 N          -8.7443  -19.8516   21.0515 N.pl3   1  UNL1       -0.2927
      2 H          -9.1834  -20.5855   20.5638 H       1  UNL1        0.1541
      3 C          -4.8906  -19.3620   21.8635 C.ar    1  UNL1        0.1559
      4 C          -6.3574  -19.6142   22.0498 C.ar    1  UNL1        0.0530
      5 C          -7.2774  -19.5993   20.8651 C.ar    1  UNL1        0.0529
      6 C          -6.7306  -19.3321   19.4942 C.ar    1  UNL1        0.0163
      7 C          -5.2638  -19.0799   19.3079 C.ar    1  UNL1        0.0219
      8 C          -4.3438  -19.0948   20.4925 C.ar    1  UNL1        0.0995
      9 N          -2.8769  -18.8425   20.3062 N.ar    1  UNL1       -0.2839
     10 C          -1.8118  -19.8904   20.1743 C.ar    1  UNL1        0.1826
     11 N          -0.4942  -19.1936   20.0056 N.ar    1  UNL1       -0.2280
     12 C          -0.7450  -17.7149   20.0332 C.ar    1  UNL1        0.0786
     13 C           0.2942  -16.6417   19.8986 C.3     1  UNL1        0.0538
     14 C          -2.2176  -17.4980   20.2189 C.ar    1  UNL1        0.0963
     15 C          -3.5517  -18.0869   23.6887 C.3     1  UNL1        0.2525
     16 O          -3.9706  -19.3769   23.0481 O.3     1  UNL1       -0.4699
     17 C          -9.5421  -18.9857   21.9809 C.ar    1  UNL1        0.1629
     18 N         -11.0286  -19.0364   22.1752 N.ar    1  UNL1       -0.2287
     19 C         -11.3986  -17.9991   23.1935 C.ar    1  UNL1        0.0636
     20 C         -12.7834  -17.7052   23.6897 C.3     1  UNL1        0.0524
     21 C         -10.1408  -17.3073   23.6287 C.ar    1  UNL1        0.0278
     22 S          -8.9934  -17.9171   22.8792 S.2     1  UNL1       -0.0558
     23 C         -10.0469  -16.2002   24.6363 C.3     1  UNL1        0.0605
     24 C          -8.7223  -15.8546   25.2496 C.ar    1  UNL1       -0.0164
     25 C          -8.5821  -15.7840   26.7414 C.ar    1  UNL1       -0.0039
     26 C          -7.2575  -15.4384   27.3546 C.ar    1  UNL1        0.0006
     27 C          -6.0731  -15.1634   26.4762 C.ar    1  UNL1        0.0114
     28 C          -6.2135  -15.2340   24.9844 C.ar    1  UNL1        0.0574
     29 CL         -5.0291  -14.9589   24.1059 Cl      1  UNL1       -0.0823
     30 C          -7.5380  -15.5795   24.3712 C.ar    1  UNL1        0.0075
@<TRIPOS>BOND
     1    15    16    1
     2    16     3    1
     3     3     4   ar
     4     4     5   ar
     5     5     1    1
     6     1    17    1
     7    17    18   ar
     8    18    19   ar
     9    19    20    1
    10    19    21   ar
    11    21    23    1
    12    23    24    1
    13    24    25   ar
    14    25    26   ar
    15    26    27   ar
    16    27    28   ar
    17    28    29    1
    18    28    30   ar
    19    21    22   ar
    20     5     6   ar
    21     6     7   ar
    22     7     8   ar
    23     8     9    1
    24     9    10   ar
    25    10    11   ar
    26    11    12   ar
    27    12    13    1
    28    12    14   ar
    29     8     3   ar
    30    14     9   ar
    31    22    17   ar
    32    30    24   ar
    33     1     2    1
@<TRIPOS>MOLECULE
*****
 30 33 0 0 0
SMALL
GASTEIGER

@<TRIPOS>ATOM
      1 N           7.9940   -3.1045   21.6856 N.pl3   1  UNL1       -0.2927
      2 H           8.8635   -2.8073   21.3321 H       1  UNL1        0.1541
      3 C           7.7193   -5.5358   24.8102 C.ar    1  UNL1        0.1559
      4 C           7.8283   -5.0554   23.3935 C.ar    1  UNL1        0.0530
      5 C           7.8850   -3.5850   23.1024 C.ar    1  UNL1        0.0529
      6 C           7.8327   -2.5950   24.2281 C.ar    1  UNL1        0.0163
      7 C           7.7237   -3.0755   25.6449 C.ar    1  UNL1        0.0219
      8 C           7.6670   -4.5459   25.9359 C.ar    1  UNL1        0.0995
      9 N           7.5579   -5.0263   27.3528 N.ar    1  UNL1       -0.2839
     10 C           6.3094   -5.0449   28.1839 C.ar    1  UNL1        0.1826
     11 N           6.6582   -5.6026   29.5320 N.ar    1  UNL1       -0.2280
     12 C           8.1223   -5.9287   29.5340 C.ar    1  UNL1        0.0786
     13 C           8.8948   -6.5091   30.6814 C.3     1  UNL1        0.0538
     14 C           8.6784   -5.5726   28.1872 C.ar    1  UNL1        0.0963
     15 C           8.9243   -7.8172   25.1153 C.3     1  UNL1        0.2525
     16 O           7.6625   -7.0062   25.1013 O.3     1  UNL1       -0.4699
     17 C           6.7783   -3.0770   20.8074 C.ar    1  UNL1        0.1629
     18 N           5.8584   -4.2309   20.5386 N.ar    1  UNL1       -0.2287
     19 C           4.7806   -3.7577   19.6088 C.ar    1  UNL1        0.0636
     20 C           3.6479   -4.5856   19.0781 C.3     1  UNL1        0.0524
     21 C           5.0343   -2.3113   19.3031 C.ar    1  UNL1        0.0278
     22 S           6.2689   -1.8906   20.0438 S.2     1  UNL1       -0.0558
     23 C           4.1999   -1.4388   18.4128 C.3     1  UNL1        0.0605
     24 C           2.9753   -0.7649   18.9573 C.ar    1  UNL1       -0.0164
     25 C           2.3555   -1.2527   20.2332 C.ar    1  UNL1       -0.0039
     26 C           1.1309   -0.5788   20.7776 C.ar    1  UNL1        0.0006
     27 C           0.5262    0.5828   20.0462 C.ar    1  UNL1        0.0114
     28 C           1.1461    1.0705   18.7703 C.ar    1  UNL1        0.0574
     29 CL          0.5414    2.2322   18.0388 Cl      1  UNL1       -0.0823
     30 C           2.3706    0.3967   18.2259 C.ar    1  UNL1        0.0075
@<TRIPOS>BOND
     1    15    16    1
     2    16     3    1
     3     3     4   ar
     4     4     5   ar
     5     5     1    1
     6     1    17    1
     7    17    18   ar
     8    18    19   ar
     9    19    20    1
    10    19    21   ar
    11    21    23    1
    12    23    24    1
    13    24    25   ar
    14    25    26   ar
    15    26    27   ar
    16    27    28   ar
    17    28    29    1
    18    28    30   ar
    19    21    22   ar
    20     5     6   ar
    21     6     7   ar
    22     7     8   ar
    23     8     9    1
    24     9    10   ar
    25    10    11   ar
    26    11    12   ar
    27    12    13    1
    28    12    14   ar
    29     8     3   ar
    30    14     9   ar
    31    22    17   ar
    32    30    24   ar
    33     1     2    1
@<TRIPOS>MOLECULE
*****
 30 33 0 0 0
SMALL
GASTEIGER

@<TRIPOS>ATOM
      1 N           7.9392   -3.6328   21.5277 N.pl3   1  UNL1       -0.2927
      2 H           8.8235   -3.5072   21.1138 H       1  UNL1        0.1541
      3 C           7.4679   -3.3243   25.4562 C.ar    1  UNL1        0.1559
      4 C           7.5714   -2.9500   24.0074 C.ar    1  UNL1        0.0530
      5 C           7.8356   -4.0072   22.9766 C.ar    1  UNL1        0.0529
      6 C           7.9962   -5.4388   23.3947 C.ar    1  UNL1        0.0163
      7 C           7.8926   -5.8131   24.8435 C.ar    1  UNL1        0.0219
      8 C           7.6285   -4.7558   25.8742 C.ar    1  UNL1        0.0995
      9 N           7.5249   -5.1302   27.3231 N.ar    1  UNL1       -0.2839
     10 C           6.2640   -5.1749   28.1343 C.ar    1  UNL1        0.1826
     11 N           6.6239   -5.5979   29.5276 N.ar    1  UNL1       -0.2280
     12 C           8.1073   -5.8147   29.5777 C.ar    1  UNL1        0.0786
     13 C           8.8955   -6.2450   30.7792 C.3     1  UNL1        0.0538
     14 C           8.6642   -5.5256   28.2152 C.ar    1  UNL1        0.0963
     15 C           5.8211   -1.7093   26.6519 C.3     1  UNL1        0.2525
     16 O           7.2037   -2.2670   26.4869 O.3     1  UNL1       -0.4699
     17 C           6.6953   -3.4500   20.7096 C.ar    1  UNL1        0.1629
     18 N           5.6363   -4.4853   20.4717 N.ar    1  UNL1       -0.2287
     19 C           4.5785   -3.8749   19.6008 C.ar    1  UNL1        0.0636
     20 C           3.3340   -4.5573   19.1155 C.3     1  UNL1        0.0524
     21 C           4.9837   -2.4622   19.3004 C.ar    1  UNL1        0.0278
     22 S           6.2920   -2.1996   19.9857 S.2     1  UNL1       -0.0558
     23 C           4.2156   -1.4839   18.4620 C.3     1  UNL1        0.0605
     24 C           3.0204   -0.7815   19.0348 C.ar    1  UNL1       -0.0164
     25 C           2.4847   -1.1853   20.3764 C.ar    1  UNL1       -0.0039
     26 C           1.2895   -0.4829   20.9492 C.ar    1  UNL1        0.0006
     27 C           0.6299    0.6234   20.1803 C.ar    1  UNL1        0.0114
     28 C           1.1657    1.0272   18.8387 C.ar    1  UNL1        0.0574
     29 CL          0.5061    2.1335   18.0697 Cl      1  UNL1       -0.0823
     30 C           2.3608    0.3248   18.2660 C.ar    1  UNL1        0.0075
@<TRIPOS>BOND
     1    15    16    1
     2    16     3    1
     3     3     4   ar
     4     4     5   ar
     5     5     1    1
     6     1    17    1
     7    17    18   ar
     8    18    19   ar
     9    19    20    1
    10    19    21   ar
    11    21    23    1
    12    23    24    1
    13    24    25   ar
    14    25    26   ar
    15    26    27   ar
    16    27    28   ar
    17    28    29    1
    18    28    30   ar
    19    21    22   ar
    20     5     6   ar
    21     6     7   ar
    22     7     8   ar
    23     8     9    1
    24     9    10   ar
    25    10    11   ar
    26    11    12   ar
    27    12    13    1
    28    12    14   ar
    29     8     3   ar
    30    14     9   ar
    31    22    17   ar
    32    30    24   ar
    33     1     2    1
@<TRIPOS>MOLECULE
*****
 30 33 0 0 0
SMALL
GASTEIGER

@<TRIPOS>ATOM
      1 N           0.2185    4.0064   19.9667 N.pl3   1  UNL1       -0.2927
      2 H           0.6446    4.8649   20.1917 H       1  UNL1        0.1541
      3 C           3.2417    1.4353   19.9619 C.ar    1  UNL1        0.1559
      4 C           2.3954    2.6274   20.2976 C.ar    1  UNL1        0.0530
      5 C           1.0648    2.8142   19.6309 C.ar    1  UNL1        0.0529
      6 C           0.5804    1.8089   18.6285 C.ar    1  UNL1        0.0163
      7 C           1.4266    0.6169   18.2929 C.ar    1  UNL1        0.0219
      8 C           2.7573    0.4300   18.9596 C.ar    1  UNL1        0.0995
      9 N           3.6036   -0.7621   18.6238 N.ar    1  UNL1       -0.2839
     10 C           4.7199   -0.7971   17.6225 C.ar    1  UNL1        0.1826
     11 N           5.2883   -2.1852   17.6103 N.ar    1  UNL1       -0.2280
     12 C           4.5233   -3.0081   18.6041 C.ar    1  UNL1        0.0786
     13 C           4.7582   -4.4562   18.9167 C.3     1  UNL1        0.0538
     14 C           3.4821   -2.1286   19.2305 C.ar    1  UNL1        0.0963
     15 C           4.6679    0.4697   21.9070 C.3     1  UNL1        0.2525
     16 O           4.5723    1.2485   20.6286 O.3     1  UNL1       -0.4699
     17 C          -1.2770    3.8904   19.9595 C.ar    1  UNL1        0.1629
     18 N          -2.1988    4.4380   18.9104 N.ar    1  UNL1       -0.2287
     19 C          -3.6048    4.0926   19.3027 C.ar    1  UNL1        0.0636
     20 C          -4.8457    4.4462   18.5377 C.3     1  UNL1        0.0524
     21 C          -3.5520    3.3315   20.5941 C.ar    1  UNL1        0.0278
     22 S          -2.1134    3.2066   21.0001 S.2     1  UNL1       -0.0558
     23 C          -4.7308    2.7904   21.3475 C.3     1  UNL1        0.0605
     24 C          -5.2151    3.4877   22.5841 C.ar    1  UNL1       -0.0164
     25 C          -6.4340    4.3599   22.5246 C.ar    1  UNL1       -0.0039
     26 C          -6.9183    5.0573   23.7613 C.ar    1  UNL1        0.0006
     27 C          -6.1836    4.8825   25.0573 C.ar    1  UNL1        0.0114
     28 C          -4.9647    4.0103   25.1166 C.ar    1  UNL1        0.0574
     29 CL         -4.2300    3.8354   26.4127 Cl      1  UNL1       -0.0823
     30 C          -4.4805    3.3129   23.8801 C.ar    1  UNL1        0.0075
@<TRIPOS>BOND
     1    15    16    1
     2    16     3    1
     3     3     4   ar
     4     4     5   ar
     5     5     1    1
     6     1    17    1
     7    17    18   ar
     8    18    19   ar
     9    19    20    1
    10    19    21   ar
    11    21    23    1
    12    23    24    1
    13    24    25   ar
    14    25    26   ar
    15    26    27   ar
    16    27    28   ar
    17    28    29    1
    18    28    30   ar
    19    21    22   ar
    20     5     6   ar
    21     6     7   ar
    22     7     8   ar
    23     8     9    1
    24     9    10   ar
    25    10    11   ar
    26    11    12   ar
    27    12    13    1
    28    12    14   ar
    29     8     3   ar
    30    14     9   ar
    31    22    17   ar
    32    30    24   ar
    33     1     2    1
@<TRIPOS>MOLECULE
*****
 30 33 0 0 0
SMALL
GASTEIGER

@<TRIPOS>ATOM
      1 N          -6.0860  -20.3148   19.7459 N.pl3   1  UNL1       -0.2927
      2 H          -6.0409  -21.0359   19.0772 H       1  UNL1        0.1541
      3 C          -8.9018  -19.0279   22.2289 C.ar    1  UNL1        0.1559
      4 C          -7.5716  -19.4880   21.7105 C.ar    1  UNL1        0.0530
      5 C          -7.4163  -19.8547   20.2643 C.ar    1  UNL1        0.0529
      6 C          -8.5912  -19.7613   19.3365 C.ar    1  UNL1        0.0163
      7 C          -9.9214  -19.3012   19.8550 C.ar    1  UNL1        0.0219
      8 C         -10.0767  -18.9345   21.3011 C.ar    1  UNL1        0.0995
      9 N         -11.4070  -18.4744   21.8195 N.ar    1  UNL1       -0.2839
     10 C         -12.3975  -17.6272   21.0771 C.ar    1  UNL1        0.1826
     11 N         -13.5830  -17.4100   21.9701 N.ar    1  UNL1       -0.2280
     12 C         -13.3252  -18.1229   23.2645 C.ar    1  UNL1        0.0786
     13 C         -14.2498  -18.1698   24.4447 C.3     1  UNL1        0.0538
     14 C         -11.9804  -18.7808   23.1714 C.ar    1  UNL1        0.0963
     15 C          -8.9130  -17.2317   24.1060 C.3     1  UNL1        0.2525
     16 O          -9.0571  -18.6612   23.6751 O.3     1  UNL1       -0.4699
     17 C          -4.8244  -19.6761   20.2463 C.ar    1  UNL1        0.1629
     18 N          -3.5400  -19.5441   19.4828 N.ar    1  UNL1       -0.2287
     19 C          -2.5475  -18.8436   20.3627 C.ar    1  UNL1        0.0636
     20 C          -1.1325  -18.5038   19.9991 C.3     1  UNL1        0.0524
     21 C          -3.2185  -18.5427   21.6701 C.ar    1  UNL1        0.0278
     22 S          -4.6256  -19.0572   21.5981 S.2     1  UNL1       -0.0558
     23 C          -2.5922  -17.8491   22.8434 C.3     1  UNL1        0.0605
     24 C          -3.4574  -17.2932   23.9355 C.ar    1  UNL1       -0.0164
     25 C          -3.2487  -17.7323   25.3545 C.ar    1  UNL1       -0.0039
     26 C          -4.1138  -17.1764   26.4465 C.ar    1  UNL1        0.0006
     27 C          -5.1878  -16.1816   26.1196 C.ar    1  UNL1        0.0114
     28 C          -5.3965  -15.7426   24.7005 C.ar    1  UNL1        0.0574
     29 CL         -6.4705  -14.7477   24.3734 Cl      1  UNL1       -0.0823
     30 C          -4.5314  -16.2984   23.6085 C.ar    1  UNL1        0.0075
@<TRIPOS>BOND
     1    15    16    1
     2    16     3    1
     3     3     4   ar
     4     4     5   ar
     5     5     1    1
     6     1    17    1
     7    17    18   ar
     8    18    19   ar
     9    19    20    1
    10    19    21   ar
    11    21    23    1
    12    23    24    1
    13    24    25   ar
    14    25    26   ar
    15    26    27   ar
    16    27    28   ar
    17    28    29    1
    18    28    30   ar
    19    21    22   ar
    20     5     6   ar
    21     6     7   ar
    22     7     8   ar
    23     8     9    1
    24     9    10   ar
    25    10    11   ar
    26    11    12   ar
    27    12    13    1
    28    12    14   ar
    29     8     3   ar
    30    14     9   ar
    31    22    17   ar
    32    30    24   ar
    33     1     2    1
@<TRIPOS>MOLECULE
*****
 30 33 0 0 0
SMALL
GASTEIGER

@<TRIPOS>ATOM
      1 N           0.5481    1.7490   18.4759 N.pl3   1  UNL1       -0.2927
      2 H           0.1265    1.8160   17.5888 H       1  UNL1        0.1541
      3 C           3.6060   -0.7561   18.1235 C.ar    1  UNL1        0.1559
      4 C           2.6467    0.3594   17.8314 C.ar    1  UNL1        0.0530
      5 C           1.5075    0.6334   18.7680 C.ar    1  UNL1        0.0529
      6 C           1.3276   -0.2081   19.9966 C.ar    1  UNL1        0.0163
      7 C           2.2869   -1.3236   20.2886 C.ar    1  UNL1        0.0219
      8 C           3.4261   -1.5976   19.3521 C.ar    1  UNL1        0.0995
      9 N           4.3854   -2.7132   19.6442 N.ar    1  UNL1       -0.2839
     10 C           4.1585   -4.1684   19.3597 C.ar    1  UNL1        0.1826
     11 N           5.3729   -4.9239   19.8117 N.ar    1  UNL1       -0.2280
     12 C           6.3504   -3.9357   20.3756 C.ar    1  UNL1        0.0786
     13 C           7.7010   -4.2573   20.9433 C.3     1  UNL1        0.0538
     14 C           5.7401   -2.5694   20.2720 C.ar    1  UNL1        0.0963
     15 C           5.9627   -0.1544   17.2105 C.3     1  UNL1        0.2525
     16 O           4.7452   -1.0301   17.1869 O.3     1  UNL1       -0.4699
     17 C           0.2313    2.7624   19.5354 C.ar    1  UNL1        0.1629
     18 N           1.1909    3.3027   20.5538 N.ar    1  UNL1       -0.2287
     19 C           0.4519    4.2877   21.4104 C.ar    1  UNL1        0.0636
     20 C           1.0282    5.0673   22.5550 C.3     1  UNL1        0.0524
     21 C          -0.9645    4.3561   20.9214 C.ar    1  UNL1        0.0278
     22 S          -1.1008    3.4134   19.7626 S.2     1  UNL1       -0.0558
     23 C          -2.0534    5.2161   21.4912 C.3     1  UNL1        0.0605
     24 C          -3.0290    4.6384   22.4732 C.ar    1  UNL1       -0.0164
     25 C          -2.5365    4.0504   23.7622 C.ar    1  UNL1       -0.0039
     26 C          -3.5121    3.4727   24.7443 C.ar    1  UNL1        0.0006
     27 C          -4.9803    3.4830   24.4374 C.ar    1  UNL1        0.0114
     28 C          -5.4728    4.0711   23.1483 C.ar    1  UNL1        0.0574
     29 CL         -6.9411    4.0814   22.8413 Cl      1  UNL1       -0.0823
     30 C          -4.4972    4.6487   22.1663 C.ar    1  UNL1        0.0075
@<TRIPOS>BOND
     1    15    16    1
     2    16     3    1
     3     3     4   ar
     4     4     5   ar
     5     5     1    1
     6     1    17    1
     7    17    18   ar
     8    18    19   ar
     9    19    20    1
    10    19    21   ar
    11    21    23    1
    12    23    24    1
    13    24    25   ar
    14    25    26   ar
    15    26    27   ar
    16    27    28   ar
    17    28    29    1
    18    28    30   ar
    19    21    22   ar
    20     5     6   ar
    21     6     7   ar
    22     7     8   ar
    23     8     9    1
    24     9    10   ar
    25    10    11   ar
    26    11    12   ar
    27    12    13    1
    28    12    14   ar
    29     8     3   ar
    30    14     9   ar
    31    22    17   ar
    32    30    24   ar
    33     1     2    1
@<TRIPOS>MOLECULE
*****
 30 33 0 0 0
SMALL
GASTEIGER

@<TRIPOS>ATOM
      1 N           3.1238    1.4211   30.4280 N.pl3   1  UNL1       -0.2927
      2 H           3.9685    1.3868   29.9234 H       1  UNL1        0.1541
      3 C           4.3152    1.4423   34.2135 C.ar    1  UNL1        0.1559
      4 C           4.2959    1.1897   32.7351 C.ar    1  UNL1        0.0530
      5 C           3.1430    1.6737   31.9065 C.ar    1  UNL1        0.0529
      6 C           2.0095    2.4104   32.5563 C.ar    1  UNL1        0.0163
      7 C           2.0287    2.6630   34.0347 C.ar    1  UNL1        0.0219
      8 C           3.1816    2.1790   34.8633 C.ar    1  UNL1        0.0995
      9 N           3.2008    2.4316   36.3418 N.ar    1  UNL1       -0.2839
     10 C           2.7645    1.4693   37.4065 C.ar    1  UNL1        0.1826
     11 N           2.9538    2.1339   38.7378 N.ar    1  UNL1       -0.2280
     12 C           3.5071    3.5071   38.4960 C.ar    1  UNL1        0.0786
     13 C           3.8479    4.5185   39.5499 C.3     1  UNL1        0.0538
     14 C           3.6597    3.6910   37.0151 C.ar    1  UNL1        0.0963
     15 C           5.4277   -0.4093   35.6571 C.3     1  UNL1        0.2525
     16 O           5.4680    0.9582   35.0422 O.3     1  UNL1       -0.4699
     17 C           1.8176    1.2207   29.7183 C.ar    1  UNL1        0.1629
     18 N           0.9128    0.0322   29.8556 N.ar    1  UNL1       -0.2287
     19 C          -0.2772    0.2506   28.9689 C.ar    1  UNL1        0.0636
     20 C          -1.4334   -0.6895   28.7976 C.3     1  UNL1        0.0524
     21 C          -0.1079    1.5740   28.2836 C.ar    1  UNL1        0.0278
     22 S           1.1867    2.1736   28.7467 S.2     1  UNL1       -0.0558
     23 C          -1.0651    2.1899   27.3066 C.3     1  UNL1        0.0605
     24 C          -0.7203    2.2380   25.8475 C.ar    1  UNL1       -0.0164
     25 C           0.2555    1.2533   25.2746 C.ar    1  UNL1       -0.0039
     26 C           0.6002    1.3013   23.8155 C.ar    1  UNL1        0.0006
     27 C          -0.0308    2.3341   22.9294 C.ar    1  UNL1        0.0114
     28 C          -1.0066    3.3188   23.5024 C.ar    1  UNL1        0.0574
     29 CL         -1.6376    4.3516   22.6163 Cl      1  UNL1       -0.0823
     30 C          -1.3513    3.2707   24.9614 C.ar    1  UNL1        0.0075
@<TRIPOS>BOND
     1    15    16    1
     2    16     3    1
     3     3     4   ar
     4     4     5   ar
     5     5     1    1
     6     1    17    1
     7    17    18   ar
     8    18    19   ar
     9    19    20    1
    10    19    21   ar
    11    21    23    1
    12    23    24    1
    13    24    25   ar
    14    25    26   ar
    15    26    27   ar
    16    27    28   ar
    17    28    29    1
    18    28    30   ar
    19    21    22   ar
    20     5     6   ar
    21     6     7   ar
    22     7     8   ar
    23     8     9    1
    24     9    10   ar
    25    10    11   ar
    26    11    12   ar
    27    12    13    1
    28    12    14   ar
    29     8     3   ar
    30    14     9   ar
    31    22    17   ar
    32    30    24   ar
    33     1     2    1
@<TRIPOS>MOLECULE
*****
 30 33 0 0 0
SMALL
GASTEIGER

@<TRIPOS>ATOM
      1 N           0.6134    3.7546   18.8010 N.pl3   1  UNL1       -0.2927
      2 H           1.1342    4.5872   18.8701 H       1  UNL1        0.1541
      3 C           3.3528    0.8840   18.8740 C.ar    1  UNL1        0.1559
      4 C           2.6913    2.2058   18.6184 C.ar    1  UNL1        0.0530
      5 C           1.2749    2.4328   19.0566 C.ar    1  UNL1        0.0529
      6 C           0.5199    1.3380   19.7505 C.ar    1  UNL1        0.0163
      7 C           1.1814    0.0163   20.0061 C.ar    1  UNL1        0.0219
      8 C           2.5978   -0.2107   19.5678 C.ar    1  UNL1        0.0995
      9 N           3.2593   -1.5326   19.8234 N.ar    1  UNL1       -0.2839
     10 C           3.7889   -2.0131   21.1420 C.ar    1  UNL1        0.1826
     11 N           4.3642   -3.3834   20.9388 N.ar    1  UNL1       -0.2280
     12 C           4.1902   -3.7498   19.4946 C.ar    1  UNL1        0.0786
     13 C           4.6231   -5.0344   18.8525 C.3     1  UNL1        0.0538
     14 C           3.5074   -2.6059   18.8053 C.ar    1  UNL1        0.0963
     15 C           5.9043    1.0452   19.3362 C.3     1  UNL1        0.2525
     16 O           4.7693    0.6570   18.4357 O.3     1  UNL1       -0.4699
     17 C          -0.8416    3.8078   18.4402 C.ar    1  UNL1        0.1629
     18 N          -1.4111    3.7070   17.0562 N.ar    1  UNL1       -0.2287
     19 C          -2.9040    3.8080   17.1607 C.ar    1  UNL1        0.0636
     20 C          -3.8734    3.7551   16.0173 C.3     1  UNL1        0.0524
     21 C          -3.2573    3.9713   18.6093 C.ar    1  UNL1        0.0278
     22 S          -1.9826    3.9711   19.4001 S.2     1  UNL1       -0.0558
     23 C          -4.6420    4.1103   19.1689 C.3     1  UNL1        0.0605
     24 C          -4.8448    4.2153   20.6514 C.ar    1  UNL1       -0.0164
     25 C          -4.8046    2.9813   21.5032 C.ar    1  UNL1       -0.0039
     26 C          -5.0074    3.0863   22.9857 C.ar    1  UNL1        0.0006
     27 C          -5.2504    4.4253   23.6165 C.ar    1  UNL1        0.0114
     28 C          -5.2905    5.6594   22.7647 C.ar    1  UNL1        0.0574
     29 CL         -5.5335    6.9985   23.3954 Cl      1  UNL1       -0.0823
     30 C          -5.0878    5.5544   21.2822 C.ar    1  UNL1        0.0075
@<TRIPOS>BOND
     1    15    16    1
     2    16     3    1
     3     3     4   ar
     4     4     5   ar
     5     5     1    1
     6     1    17    1
     7    17    18   ar
     8    18    19   ar
     9    19    20    1
    10    19    21   ar
    11    21    23    1
    12    23    24    1
    13    24    25   ar
    14    25    26   ar
    15    26    27   ar
    16    27    28   ar
    17    28    29    1
    18    28    30   ar
    19    21    22   ar
    20     5     6   ar
    21     6     7   ar
    22     7     8   ar
    23     8     9    1
    24     9    10   ar
    25    10    11   ar
    26    11    12   ar
    27    12    13    1
    28    12    14   ar
    29     8     3   ar
    30    14     9   ar
    31    22    17   ar
    32    30    24   ar
    33     1     2    1
@<TRIPOS>MOLECULE
*****
 30 33 0 0 0
SMALL
GASTEIGER

@<TRIPOS>ATOM
      1 N           5.7556   -0.5372   23.0708 N.pl3   1  UNL1       -0.2927
      2 H           6.2729    0.2857   22.9144 H       1  UNL1        0.1541
      3 C           7.3261   -2.8425   25.8938 C.ar    1  UNL1        0.1559
      4 C           7.1640   -2.0879   24.6077 C.ar    1  UNL1        0.0530
      5 C           5.9176   -1.2919   24.3571 C.ar    1  UNL1        0.0529
      6 C           4.8332   -1.2506   25.3926 C.ar    1  UNL1        0.0163
      7 C           4.9952   -2.0052   26.6787 C.ar    1  UNL1        0.0219
      8 C           6.2417   -2.8012   26.9294 C.ar    1  UNL1        0.0995
      9 N           6.4037   -3.5558   28.2156 N.ar    1  UNL1       -0.2839
     10 C           6.4101   -5.0481   28.3675 C.ar    1  UNL1        0.1826
     11 N           6.5981   -5.3652   29.8215 N.ar    1  UNL1       -0.2280
     12 C           6.7078   -4.0689   30.5682 C.ar    1  UNL1        0.0786
     13 C           6.9034   -3.9175   32.0477 C.3     1  UNL1        0.0538
     14 C           6.5877   -2.9507   29.5757 C.ar    1  UNL1        0.0963
     15 C           8.7558   -4.9728   25.4842 C.3     1  UNL1        0.2525
     16 O           8.5725   -3.6385   26.1445 O.3     1  UNL1       -0.4699
     17 C           4.8054   -1.0364   22.0230 C.ar    1  UNL1        0.1629
     18 N           5.0676   -2.1509   21.0540 N.ar    1  UNL1       -0.2287
     19 C           3.8504   -2.3120   20.1923 C.ar    1  UNL1        0.0636
     20 C           3.6780   -3.3125   19.0881 C.3     1  UNL1        0.0524
     21 C           2.8359   -1.2969   20.6288 C.ar    1  UNL1        0.0278
     22 S           3.4261   -0.5086   21.7602 S.2     1  UNL1       -0.0558
     23 C           1.4709   -1.1041   20.0376 C.3     1  UNL1        0.0605
     24 C           0.9370    0.2805   19.8189 C.ar    1  UNL1       -0.0164
     25 C           1.1730    0.9777   18.5120 C.ar    1  UNL1       -0.0039
     26 C           0.6392    2.3623   18.2933 C.ar    1  UNL1        0.0006
     27 C          -0.1308    3.0498   19.3817 C.ar    1  UNL1        0.0114
     28 C          -0.3668    2.3526   20.6887 C.ar    1  UNL1        0.0574
     29 CL         -1.1368    3.0401   21.7771 Cl      1  UNL1       -0.0823
     30 C           0.1670    0.9680   20.9073 C.ar    1  UNL1        0.0075
@<TRIPOS>BOND
     1    15    16    1
     2    16     3    1
     3     3     4   ar
     4     4     5   ar
     5     5     1    1
     6     1    17    1
     7    17    18   ar
     8    18    19   ar
     9    19    20    1
    10    19    21   ar
    11    21    23    1
    12    23    24    1
    13    24    25   ar
    14    25    26   ar
    15    26    27   ar
    16    27    28   ar
    17    28    29    1
    18    28    30   ar
    19    21    22   ar
    20     5     6   ar
    21     6     7   ar
    22     7     8   ar
    23     8     9    1
    24     9    10   ar
    25    10    11   ar
    26    11    12   ar
    27    12    13    1
    28    12    14   ar
    29     8     3   ar
    30    14     9   ar
    31    22    17   ar
    32    30    24   ar
    33     1     2    1
