@<TRIPOS>MOLECULE
*****
 29 33 0 0 0
SMALL
GASTEIGER

@<TRIPOS>ATOM
      1 C         -13.0677   -6.5196   18.9412 C.3     1  UNL1        0.0872
      2 C         -14.4632   -7.0661   19.0018 C.3     1  UNL1        0.0358
      3 C         -14.2275   -5.5926   19.1541 C.3     1  UNL1        0.0358
      4 O         -10.6265   -5.6657   19.1892 O.2     1  UNL1       -0.2730
      5 C         -11.5923   -6.7393   18.7833 C.2     1  UNL1        0.2445
      6 N         -11.0827   -8.0325   18.2194 N.am    1  UNL1       -0.1970
      7 O          -9.6073   -8.2521   18.0615 O.3     1  UNL1       -0.2952
      8 H         -11.7166   -8.7371   17.9530 H       1  UNL1        0.1822
      9 H          -9.1287   -7.4664   18.3688 H       1  UNL1        0.2414
     10 C         -15.4050   -8.2325   18.9489 C.ar    1  UNL1       -0.0217
     11 C         -15.0610   -9.4375   18.1246 C.ar    1  UNL1       -0.0043
     12 C         -16.0029  -10.6037   18.0717 C.ar    1  UNL1       -0.0003
     13 C         -17.2887  -10.5650   18.8433 C.ar    1  UNL1       -0.0000
     14 C         -17.6327   -9.3600   19.6676 C.ar    1  UNL1       -0.0003
     15 C         -16.6908   -8.1937   19.7204 C.ar    1  UNL1       -0.0043
     16 C         -14.7611   -4.2067   19.3648 C.ar    1  UNL1       -0.0217
     17 C         -16.2352   -3.9886   19.5363 C.ar    1  UNL1       -0.0042
     18 C         -16.7688   -2.6026   19.7471 C.ar    1  UNL1        0.0028
     19 C         -15.8283   -1.4348   19.7864 C.ar    1  UNL1        0.0362
     20 C         -14.3542   -1.6529   19.6150 C.ar    1  UNL1        0.0028
     21 C         -13.8206   -3.0388   19.4042 C.ar    1  UNL1       -0.0042
     22 C         -16.3619   -0.0489   19.9972 C.ar    1  UNL1        0.1659
     23 C         -16.3882    1.0504   18.9770 C.ar    1  UNL1        0.1391
     24 N         -17.0054    2.2598   19.6145 N.ar    1  UNL1       -0.2104
     25 C         -17.3606    1.9080   21.0288 C.ar    1  UNL1        0.2052
     26 O         -16.9629    0.4811   21.2653 O.2     1  UNL1       -0.4384
     27 C         -18.0010    2.8224   22.0305 C.3     1  UNL1        0.0766
     28 C         -18.3750    3.1379   23.4485 C.3     1  UNL1        0.0097
     29 C         -18.7363    4.0908   22.3478 C.3     1  UNL1        0.0097
@<TRIPOS>BOND
     1     4     5    2
     2     5     6   am
     3     6     7    1
     4     1     5    1
     5     1     2    1
     6     2    10    1
     7    10    11   ar
     8    11    12   ar
     9    12    13   ar
    10    13    14   ar
    11    14    15   ar
    12     2     3    1
    13     3    16    1
    14    16    17   ar
    15    17    18   ar
    16    18    19   ar
    17    19    22    1
    18    22    23   ar
    19    23    24   ar
    20    24    25   ar
    21    25    27    1
    22    27    28    1
    23    28    29    1
    24    25    26   ar
    25    19    20   ar
    26    20    21   ar
    27     3     1    1
    28    21    16   ar
    29    15    10   ar
    30    26    22   ar
    31    29    27    1
    32     6     8    1
    33     7     9    1
@<TRIPOS>MOLECULE
*****
 29 33 0 0 0
SMALL
GASTEIGER

@<TRIPOS>ATOM
      1 C         -13.3045   -5.4490   19.2203 C.3     1  UNL1        0.0872
      2 C         -14.5535   -6.2763   19.1469 C.3     1  UNL1        0.0358
      3 C         -14.6460   -4.7976   19.3813 C.3     1  UNL1        0.0358
      4 O         -10.9791   -6.5828   18.9807 O.2     1  UNL1       -0.2730
      5 C         -11.8088   -5.3474   19.1697 C.2     1  UNL1        0.2445
      6 N         -11.1427   -4.0106   19.3082 N.am    1  UNL1       -0.1970
      7 O          -9.6470   -3.9090   19.2577 O.3     1  UNL1       -0.2952
      8 H         -11.6872   -3.1998   19.4323 H       1  UNL1        0.1822
      9 H          -9.2670   -4.7925   19.1315 H       1  UNL1        0.2414
     10 C         -15.2212   -7.6077   18.9691 C.ar    1  UNL1       -0.0217
     11 C         -16.5037   -7.9054   19.6878 C.ar    1  UNL1       -0.0043
     12 C         -17.1714   -9.2368   19.5101 C.ar    1  UNL1       -0.0003
     13 C         -16.5566  -10.2704   18.6137 C.ar    1  UNL1       -0.0000
     14 C         -15.2741   -9.9727   17.8950 C.ar    1  UNL1       -0.0003
     15 C         -14.6064   -8.6414   18.0727 C.ar    1  UNL1       -0.0043
     16 C         -15.4739   -3.5679   19.6095 C.ar    1  UNL1       -0.0217
     17 C         -16.9700   -3.6682   19.6525 C.ar    1  UNL1       -0.0042
     18 C         -17.7979   -2.4384   19.8808 C.ar    1  UNL1        0.0028
     19 C         -17.1299   -1.1083   20.0661 C.ar    1  UNL1        0.0362
     20 C         -15.6338   -1.0079   20.0231 C.ar    1  UNL1        0.0028
     21 C         -14.8059   -2.2376   19.7948 C.ar    1  UNL1       -0.0042
     22 C         -17.9578    0.1215   20.2943 C.ar    1  UNL1        0.1659
     23 C         -18.9795    0.6841   19.3511 C.ar    1  UNL1        0.1391
     24 N         -19.5626    1.9149   19.9797 N.ar    1  UNL1       -0.2104
     25 C         -18.9013    2.1130   21.3115 C.ar    1  UNL1        0.2052
     26 O         -17.9095    1.0046   21.5059 O.2     1  UNL1       -0.4384
     27 C         -19.1824    3.2243   22.2789 C.3     1  UNL1        0.0766
     28 C         -19.8230    4.5444   22.5903 C.3     1  UNL1        0.0097
     29 C         -19.0290    3.8291   23.6429 C.3     1  UNL1        0.0097
@<TRIPOS>BOND
     1     4     5    2
     2     5     6   am
     3     6     7    1
     4     1     5    1
     5     1     2    1
     6     2    10    1
     7    10    11   ar
     8    11    12   ar
     9    12    13   ar
    10    13    14   ar
    11    14    15   ar
    12     2     3    1
    13     3    16    1
    14    16    17   ar
    15    17    18   ar
    16    18    19   ar
    17    19    22    1
    18    22    23   ar
    19    23    24   ar
    20    24    25   ar
    21    25    27    1
    22    27    28    1
    23    28    29    1
    24    25    26   ar
    25    19    20   ar
    26    20    21   ar
    27     3     1    1
    28    21    16   ar
    29    15    10   ar
    30    26    22   ar
    31    29    27    1
    32     6     8    1
    33     7     9    1
@<TRIPOS>MOLECULE
*****
 29 33 0 0 0
SMALL
GASTEIGER

@<TRIPOS>ATOM
      1 C           6.0129   -2.6086   32.1064 C.3     1  UNL1        0.0872
      2 C           5.6891   -1.4586   33.0133 C.3     1  UNL1        0.0358
      3 C           5.1129   -1.5076   31.6293 C.3     1  UNL1        0.0358
      4 O           7.8933   -3.9576   30.9255 O.2     1  UNL1       -0.2730
      5 C           6.7195   -3.9083   31.8582 C.2     1  UNL1        0.2445
      6 N           6.2523   -5.1586   32.5426 N.am    1  UNL1       -0.1970
      7 O           6.9589   -6.4582   32.2944 O.3     1  UNL1       -0.2952
      8 H           5.4820   -5.1262   33.1548 H       1  UNL1        0.1822
      9 H           7.6888   -6.3156   31.6717 H       1  UNL1        0.2414
     10 C           5.8349   -0.7664   34.3361 C.ar    1  UNL1       -0.0217
     11 C           7.1493   -0.1552   34.7219 C.ar    1  UNL1       -0.0043
     12 C           7.2950    0.5370   36.0446 C.ar    1  UNL1       -0.0003
     13 C           6.1263    0.6180   36.9815 C.ar    1  UNL1       -0.0000
     14 C           4.8120    0.0069   36.5957 C.ar    1  UNL1       -0.0003
     15 C           4.6663   -0.6853   35.2730 C.ar    1  UNL1       -0.0043
     16 C           4.2606   -0.9001   30.5548 C.ar    1  UNL1       -0.0217
     17 C           4.8340   -0.6573   29.1902 C.ar    1  UNL1       -0.0042
     18 C           3.9816   -0.0498   28.1157 C.ar    1  UNL1        0.0028
     19 C           2.5559    0.3148   28.4058 C.ar    1  UNL1        0.0362
     20 C           1.9824    0.0719   29.7705 C.ar    1  UNL1        0.0028
     21 C           2.8347   -0.5355   30.8449 C.ar    1  UNL1       -0.0042
     22 C           1.7035    0.9222   27.3314 C.ar    1  UNL1        0.1659
     23 C           2.0114    0.9346   25.8634 C.ar    1  UNL1        0.1391
     24 N           0.8919    1.6439   25.1609 N.ar    1  UNL1       -0.2104
     25 C          -0.1080    2.0699   26.1948 C.ar    1  UNL1        0.2052
     26 O           0.3937    1.6239   27.5362 O.2     1  UNL1       -0.4384
     27 C          -1.3852    2.8118   25.9332 C.3     1  UNL1        0.0766
     28 C          -2.4323    3.2978   24.9754 C.3     1  UNL1        0.0097
     29 C          -2.5503    3.6105   26.4377 C.3     1  UNL1        0.0097
@<TRIPOS>BOND
     1     4     5    2
     2     5     6   am
     3     6     7    1
     4     1     5    1
     5     1     2    1
     6     2    10    1
     7    10    11   ar
     8    11    12   ar
     9    12    13   ar
    10    13    14   ar
    11    14    15   ar
    12     2     3    1
    13     3    16    1
    14    16    17   ar
    15    17    18   ar
    16    18    19   ar
    17    19    22    1
    18    22    23   ar
    19    23    24   ar
    20    24    25   ar
    21    25    27    1
    22    27    28    1
    23    28    29    1
    24    25    26   ar
    25    19    20   ar
    26    20    21   ar
    27     3     1    1
    28    21    16   ar
    29    15    10   ar
    30    26    22   ar
    31    29    27    1
    32     6     8    1
    33     7     9    1
@<TRIPOS>MOLECULE
*****
 29 33 0 0 0
SMALL
GASTEIGER

@<TRIPOS>ATOM
      1 C           5.2925   -2.2572   19.7875 C.3     1  UNL1        0.0872
      2 C           5.9094   -2.9134   20.9870 C.3     1  UNL1        0.0358
      3 C           4.8017   -1.9174   21.1636 C.3     1  UNL1        0.0358
      4 O           6.4426   -2.2872   17.4580 O.2     1  UNL1       -0.2730
      5 C           5.2198   -2.0746   18.3004 C.2     1  UNL1        0.2445
      6 N           3.9243   -1.6793   17.6559 N.am    1  UNL1       -0.1970
      7 O           3.8516   -1.4966   16.1688 O.3     1  UNL1       -0.2952
      8 H           3.1218   -1.5397   18.2088 H       1  UNL1        0.1822
      9 H           4.7223   -1.6712   15.7786 H       1  UNL1        0.2414
     10 C           6.9051   -3.8673   21.5777 C.ar    1  UNL1       -0.0217
     11 C           8.0166   -4.4113   20.7300 C.ar    1  UNL1       -0.0043
     12 C           9.0122   -5.3651   21.3207 C.ar    1  UNL1       -0.0003
     13 C           8.8963   -5.7750   22.7590 C.ar    1  UNL1       -0.0000
     14 C           7.7847   -5.2310   23.6066 C.ar    1  UNL1       -0.0003
     15 C           6.7891   -4.2771   23.0159 C.ar    1  UNL1       -0.0043
     16 C           3.8789   -1.1462   22.0600 C.ar    1  UNL1       -0.0217
     17 C           2.8497   -0.2301   21.4672 C.ar    1  UNL1       -0.0042
     18 C           1.9268    0.5411   22.3637 C.ar    1  UNL1        0.0028
     19 C           2.0332    0.3962   23.8529 C.ar    1  UNL1        0.0362
     20 C           3.0624   -0.5200   24.4456 C.ar    1  UNL1        0.0028
     21 C           3.9853   -1.2912   23.5492 C.ar    1  UNL1       -0.0042
     22 C           1.1104    1.1673   24.7493 C.ar    1  UNL1        0.1659
     23 C           1.3338    1.4591   26.2036 C.ar    1  UNL1        0.1391
     24 N           0.1636    2.2542   26.7019 N.ar    1  UNL1       -0.2104
     25 C          -0.7831    2.4540   25.5556 C.ar    1  UNL1        0.2052
     26 O          -0.1979    1.7822   24.3488 O.2     1  UNL1       -0.4384
     27 C          -2.0861    3.1952   25.6071 C.3     1  UNL1        0.0766
     28 C          -3.2251    3.7668   26.3983 C.3     1  UNL1        0.0097
     29 C          -3.2041    3.9076   24.9051 C.3     1  UNL1        0.0097
@<TRIPOS>BOND
     1     4     5    2
     2     5     6   am
     3     6     7    1
     4     1     5    1
     5     1     2    1
     6     2    10    1
     7    10    11   ar
     8    11    12   ar
     9    12    13   ar
    10    13    14   ar
    11    14    15   ar
    12     2     3    1
    13     3    16    1
    14    16    17   ar
    15    17    18   ar
    16    18    19   ar
    17    19    22    1
    18    22    23   ar
    19    23    24   ar
    20    24    25   ar
    21    25    27    1
    22    27    28    1
    23    28    29    1
    24    25    26   ar
    25    19    20   ar
    26    20    21   ar
    27     3     1    1
    28    21    16   ar
    29    15    10   ar
    30    26    22   ar
    31    29    27    1
    32     6     8    1
    33     7     9    1
@<TRIPOS>MOLECULE
*****
 29 33 0 0 0
SMALL
GASTEIGER

@<TRIPOS>ATOM
      1 C           3.3995   -0.9343   20.0703 C.3     1  UNL1        0.0872
      2 C           4.0666   -1.5718   21.2529 C.3     1  UNL1        0.0358
      3 C           2.9669   -0.5730   21.4604 C.3     1  UNL1        0.0358
      4 O           2.4318    0.3396   18.0232 O.2     1  UNL1       -0.2730
      5 C           3.2641   -0.7747   18.5850 C.2     1  UNL1        0.2445
      6 N           3.9610   -1.7295   17.6615 N.am    1  UNL1       -0.1970
      7 O           3.8256   -1.5699   16.1762 O.3     1  UNL1       -0.2952
      8 H           4.5073   -2.4608   18.0303 H       1  UNL1        0.1822
      9 H           3.2582   -0.8072   15.9833 H       1  UNL1        0.2414
     10 C           5.0867   -2.5166   21.8158 C.ar    1  UNL1       -0.0217
     11 C           6.1369   -3.1062   20.9217 C.ar    1  UNL1       -0.0043
     12 C           7.1569   -4.0510   21.4847 C.ar    1  UNL1       -0.0003
     13 C           7.1268   -4.4061   22.9418 C.ar    1  UNL1       -0.0000
     14 C           6.0766   -3.8165   23.8358 C.ar    1  UNL1       -0.0003
     15 C           5.0566   -2.8717   23.2729 C.ar    1  UNL1       -0.0043
     16 C           2.0823    0.2122   22.3828 C.ar    1  UNL1       -0.0217
     17 C           2.3251    0.1801   23.8626 C.ar    1  UNL1       -0.0042
     18 C           1.4404    0.9654   24.7850 C.ar    1  UNL1        0.0028
     19 C           0.3129    1.7826   24.2275 C.ar    1  UNL1        0.0362
     20 C           0.0701    1.8147   22.7477 C.ar    1  UNL1        0.0028
     21 C           0.9547    1.0295   21.8253 C.ar    1  UNL1       -0.0042
     22 C          -0.5717    2.5678   25.1499 C.ar    1  UNL1        0.1659
     23 C          -0.1692    3.1542   26.4705 C.ar    1  UNL1        0.1391
     24 N          -1.3629    3.8533   27.0505 N.ar    1  UNL1       -0.2104
     25 C          -2.5033    3.6989   26.0882 C.ar    1  UNL1        0.2052
     26 O          -2.0143    2.9044   24.9137 O.2     1  UNL1       -0.4384
     27 C          -3.8892    4.2434   26.2689 C.3     1  UNL1        0.0766
     28 C          -5.2753    4.4687   25.7417 C.3     1  UNL1        0.0097
     29 C          -4.9037    4.9611   27.1090 C.3     1  UNL1        0.0097
@<TRIPOS>BOND
     1     4     5    2
     2     5     6   am
     3     6     7    1
     4     1     5    1
     5     1     2    1
     6     2    10    1
     7    10    11   ar
     8    11    12   ar
     9    12    13   ar
    10    13    14   ar
    11    14    15   ar
    12     2     3    1
    13     3    16    1
    14    16    17   ar
    15    17    18   ar
    16    18    19   ar
    17    19    22    1
    18    22    23   ar
    19    23    24   ar
    20    24    25   ar
    21    25    27    1
    22    27    28    1
    23    28    29    1
    24    25    26   ar
    25    19    20   ar
    26    20    21   ar
    27     3     1    1
    28    21    16   ar
    29    15    10   ar
    30    26    22   ar
    31    29    27    1
    32     6     8    1
    33     7     9    1
@<TRIPOS>MOLECULE
*****
 29 33 0 0 0
SMALL
GASTEIGER

@<TRIPOS>ATOM
      1 C           4.1607   -2.5911   21.6291 C.3     1  UNL1        0.0872
      2 C           4.1439   -2.0303   23.0202 C.3     1  UNL1        0.0358
      3 C           3.2458   -1.4517   21.9673 C.3     1  UNL1        0.0358
      4 O           5.9623   -4.3257   20.9251 O.2     1  UNL1       -0.2730
      5 C           4.6987   -3.5729   20.6307 C.2     1  UNL1        0.2445
      6 N           3.9731   -3.8017   19.3380 N.am    1  UNL1       -0.1970
      7 O           4.5111   -4.7834   18.3396 O.3     1  UNL1       -0.2952
      8 H           3.1438   -3.3076   19.1448 H       1  UNL1        0.1822
      9 H           5.3272   -5.1795   18.6831 H       1  UNL1        0.2414
     10 C           4.6527   -2.0405   24.4313 C.ar    1  UNL1       -0.0217
     11 C           5.9104   -2.7846   24.7696 C.ar    1  UNL1       -0.0043
     12 C           6.4192   -2.7948   26.1806 C.ar    1  UNL1       -0.0003
     13 C           5.6703   -2.0610   27.2533 C.ar    1  UNL1       -0.0000
     14 C           4.4127   -1.3169   26.9149 C.ar    1  UNL1       -0.0003
     15 C           3.9039   -1.3067   25.5039 C.ar    1  UNL1       -0.0043
     16 C           2.1990   -0.4597   21.5547 C.ar    1  UNL1       -0.0217
     17 C           1.5928   -0.5351   20.1847 C.ar    1  UNL1       -0.0042
     18 C           0.5460    0.4569   19.7722 C.ar    1  UNL1        0.0028
     19 C           0.1054    1.5243   20.7295 C.ar    1  UNL1        0.0362
     20 C           0.7116    1.5997   22.0995 C.ar    1  UNL1        0.0028
     21 C           1.7584    0.6077   22.5121 C.ar    1  UNL1       -0.0042
     22 C          -0.9413    2.5162   20.3169 C.ar    1  UNL1        0.1659
     23 C          -0.7450    3.6625   19.3696 C.ar    1  UNL1        0.1391
     24 N          -2.0506    4.3908   19.2464 N.ar    1  UNL1       -0.2104
     25 C          -3.0538    3.6946   20.1176 C.ar    1  UNL1        0.2052
     26 O          -2.3682    2.5360   20.7792 O.2     1  UNL1       -0.4384
     27 C          -4.4903    4.0879   20.2959 C.3     1  UNL1        0.0766
     28 C          -5.6626    4.3534   21.1931 C.3     1  UNL1        0.0097
     29 C          -5.8059    4.5036   19.7075 C.3     1  UNL1        0.0097
@<TRIPOS>BOND
     1     4     5    2
     2     5     6   am
     3     6     7    1
     4     1     5    1
     5     1     2    1
     6     2    10    1
     7    10    11   ar
     8    11    12   ar
     9    12    13   ar
    10    13    14   ar
    11    14    15   ar
    12     2     3    1
    13     3    16    1
    14    16    17   ar
    15    17    18   ar
    16    18    19   ar
    17    19    22    1
    18    22    23   ar
    19    23    24   ar
    20    24    25   ar
    21    25    27    1
    22    27    28    1
    23    28    29    1
    24    25    26   ar
    25    19    20   ar
    26    20    21   ar
    27     3     1    1
    28    21    16   ar
    29    15    10   ar
    30    26    22   ar
    31    29    27    1
    32     6     8    1
    33     7     9    1
@<TRIPOS>MOLECULE
*****
 29 33 0 0 0
SMALL
GASTEIGER

@<TRIPOS>ATOM
      1 C          -0.4914    1.3344   27.4235 C.3     1  UNL1        0.0872
      2 C          -1.1265    2.5212   26.7616 C.3     1  UNL1        0.0358
      3 C          -0.2124    1.6258   25.9788 C.3     1  UNL1        0.0358
      4 O          -1.4615    0.0738   29.4778 O.2     1  UNL1       -0.2730
      5 C          -0.2858    0.4809   28.6397 C.2     1  UNL1        0.2445
      6 N           1.0953    0.0344   29.0179 N.am    1  UNL1       -0.1970
      7 O           1.3009   -0.8191   30.2342 O.3     1  UNL1       -0.2952
      8 H           1.8669    0.3015   28.4679 H       1  UNL1        0.1822
      9 H           0.4452   -0.9892   30.6582 H       1  UNL1        0.2414
     10 C          -2.0209    3.7234   26.8315 C.ar    1  UNL1       -0.0217
     11 C          -1.4506    5.0625   27.1941 C.ar    1  UNL1       -0.0043
     12 C          -2.3450    6.2646   27.2639 C.ar    1  UNL1       -0.0003
     13 C          -3.8097    6.1276   26.9712 C.ar    1  UNL1       -0.0000
     14 C          -4.3801    4.7885   26.6086 C.ar    1  UNL1       -0.0003
     15 C          -3.4857    3.5864   26.5388 C.ar    1  UNL1       -0.0043
     16 C           0.4764    1.2772   24.6928 C.ar    1  UNL1       -0.0217
     17 C          -0.1149    1.7102   23.3840 C.ar    1  UNL1       -0.0042
     18 C           0.5740    1.3615   22.0979 C.ar    1  UNL1        0.0028
     19 C           1.8540    0.5799   22.1206 C.ar    1  UNL1        0.0362
     20 C           2.4453    0.1470   23.4294 C.ar    1  UNL1        0.0028
     21 C           1.7565    0.4956   24.7155 C.ar    1  UNL1       -0.0042
     22 C           2.5428    0.2313   20.8346 C.ar    1  UNL1        0.1659
     23 C           2.3156    0.8897   19.5061 C.ar    1  UNL1        0.1391
     24 N           3.2121    0.2284   18.5016 N.ar    1  UNL1       -0.2104
     25 C           3.9935   -0.8387   19.2093 C.ar    1  UNL1        0.2052
     26 O           3.5798   -0.8369   20.6512 O.2     1  UNL1       -0.4384
     27 C           5.0099   -1.7480   18.5849 C.3     1  UNL1        0.0766
     28 C           5.4733   -3.1302   18.2313 C.3     1  UNL1        0.0097
     29 C           6.3072   -1.9409   17.8568 C.3     1  UNL1        0.0097
@<TRIPOS>BOND
     1     4     5    2
     2     5     6   am
     3     6     7    1
     4     1     5    1
     5     1     2    1
     6     2    10    1
     7    10    11   ar
     8    11    12   ar
     9    12    13   ar
    10    13    14   ar
    11    14    15   ar
    12     2     3    1
    13     3    16    1
    14    16    17   ar
    15    17    18   ar
    16    18    19   ar
    17    19    22    1
    18    22    23   ar
    19    23    24   ar
    20    24    25   ar
    21    25    27    1
    22    27    28    1
    23    28    29    1
    24    25    26   ar
    25    19    20   ar
    26    20    21   ar
    27     3     1    1
    28    21    16   ar
    29    15    10   ar
    30    26    22   ar
    31    29    27    1
    32     6     8    1
    33     7     9    1
@<TRIPOS>MOLECULE
*****
 29 33 0 0 0
SMALL
GASTEIGER

@<TRIPOS>ATOM
      1 C           0.6701    1.2137   21.5267 C.3     1  UNL1        0.0872
      2 C           1.6984    0.1442   21.7471 C.3     1  UNL1        0.0358
      3 C           1.1218    0.8829   22.9183 C.3     1  UNL1        0.0358
      4 O           0.3013    2.3330   19.2113 O.2     1  UNL1       -0.2730
      5 C          -0.1844    2.0222   20.5961 C.2     1  UNL1        0.2445
      6 N          -1.5246    2.5199   21.0501 N.am    1  UNL1       -0.1970
      7 O          -2.3791    3.3284   20.1195 O.3     1  UNL1       -0.2952
      8 H          -1.8434    2.3159   21.9590 H       1  UNL1        0.1822
      9 H          -1.9206    3.4369   19.2716 H       1  UNL1        0.2414
     10 C           2.6251   -0.8999   21.1980 C.ar    1  UNL1       -0.0217
     11 C           3.5446   -1.6457   22.1190 C.ar    1  UNL1       -0.0043
     12 C           4.4712   -2.6896   21.5700 C.ar    1  UNL1       -0.0003
     13 C           4.4783   -2.9878   20.0999 C.ar    1  UNL1       -0.0000
     14 C           3.5588   -2.2420   19.1789 C.ar    1  UNL1       -0.0003
     15 C           2.6322   -1.1980   19.7280 C.ar    1  UNL1       -0.0043
     16 C           1.0497    1.1183   24.3979 C.ar    1  UNL1       -0.0217
     17 C          -0.1956    1.6921   25.0062 C.ar    1  UNL1       -0.0042
     18 C          -0.2677    1.9275   26.4859 C.ar    1  UNL1        0.0028
     19 C           0.9055    1.5893   27.3572 C.ar    1  UNL1        0.0362
     20 C           2.1507    1.0155   26.7489 C.ar    1  UNL1        0.0028
     21 C           2.2229    0.7801   25.2693 C.ar    1  UNL1       -0.0042
     22 C           0.8333    1.8247   28.8368 C.ar    1  UNL1        0.1659
     23 C           1.0312    0.7903   29.9049 C.ar    1  UNL1        0.1391
     24 N           0.8709    1.4622   31.2364 N.ar    1  UNL1       -0.2104
     25 C           0.5739    2.9120   30.9912 C.ar    1  UNL1        0.2052
     26 O           0.5507    3.1360   29.5082 O.2     1  UNL1       -0.4384
     27 C           0.3409    3.9546   32.0442 C.3     1  UNL1        0.0766
     28 C           0.8748    4.8745   33.1018 C.3     1  UNL1        0.0097
     29 C          -0.5962    4.8404   32.8103 C.3     1  UNL1        0.0097
@<TRIPOS>BOND
     1     4     5    2
     2     5     6   am
     3     6     7    1
     4     1     5    1
     5     1     2    1
     6     2    10    1
     7    10    11   ar
     8    11    12   ar
     9    12    13   ar
    10    13    14   ar
    11    14    15   ar
    12     2     3    1
    13     3    16    1
    14    16    17   ar
    15    17    18   ar
    16    18    19   ar
    17    19    22    1
    18    22    23   ar
    19    23    24   ar
    20    24    25   ar
    21    25    27    1
    22    27    28    1
    23    28    29    1
    24    25    26   ar
    25    19    20   ar
    26    20    21   ar
    27     3     1    1
    28    21    16   ar
    29    15    10   ar
    30    26    22   ar
    31    29    27    1
    32     6     8    1
    33     7     9    1
@<TRIPOS>MOLECULE
*****
 29 33 0 0 0
SMALL
GASTEIGER

@<TRIPOS>ATOM
      1 C          -0.3829    1.7512   26.6337 C.3     1  UNL1        0.0872
      2 C          -1.3555    2.4773   25.7523 C.3     1  UNL1        0.0358
      3 C          -0.1619    1.7964   25.1508 C.3     1  UNL1        0.0358
      4 O           0.2742    2.3189   29.0824 O.2     1  UNL1       -0.2730
      5 C           0.0511    1.3059   27.9988 C.2     1  UNL1        0.2445
      6 N           0.2620   -0.1522   28.2802 N.am    1  UNL1       -0.1970
      7 O           0.6959   -0.5975   29.6453 O.3     1  UNL1       -0.2952
      8 H           0.1155   -0.8170   27.5690 H       1  UNL1        0.1822
      9 H           0.7938    0.1763   30.2219 H       1  UNL1        0.2414
     10 C          -2.6061    3.2896   25.5908 C.ar    1  UNL1       -0.0217
     11 C          -3.3687    3.7412   26.8010 C.ar    1  UNL1       -0.0043
     12 C          -4.6193    4.5535   26.6394 C.ar    1  UNL1       -0.0003
     13 C          -5.1073    4.9141   25.2676 C.ar    1  UNL1       -0.0000
     14 C          -4.3448    4.4625   24.0575 C.ar    1  UNL1       -0.0003
     15 C          -3.0942    3.6503   24.2191 C.ar    1  UNL1       -0.0043
     16 C           0.6547    1.4294   23.9473 C.ar    1  UNL1       -0.0217
     17 C           1.8526    0.5391   24.0968 C.ar    1  UNL1       -0.0042
     18 C           2.6692    0.1721   22.8933 C.ar    1  UNL1        0.0028
     19 C           2.2880    0.6955   21.5403 C.ar    1  UNL1        0.0362
     20 C           1.0901    1.5858   21.3907 C.ar    1  UNL1        0.0028
     21 C           0.2734    1.9528   22.5942 C.ar    1  UNL1       -0.0042
     22 C           3.1046    0.3285   20.3368 C.ar    1  UNL1        0.1659
     23 C           3.0755   -0.9888   19.6199 C.ar    1  UNL1        0.1391
     24 N           4.0466   -0.9171   18.4789 N.ar    1  UNL1       -0.2104
     25 C           4.6759    0.4445   18.4906 C.ar    1  UNL1        0.2052
     26 O           4.0936    1.2143   19.6389 O.2     1  UNL1       -0.4384
     27 C           5.7064    0.9479   17.5239 C.3     1  UNL1        0.0766
     28 C           6.8794    0.6910   16.6250 C.3     1  UNL1        0.0097
     29 C           6.3183    2.0767   16.7483 C.3     1  UNL1        0.0097
@<TRIPOS>BOND
     1     4     5    2
     2     5     6   am
     3     6     7    1
     4     1     5    1
     5     1     2    1
     6     2    10    1
     7    10    11   ar
     8    11    12   ar
     9    12    13   ar
    10    13    14   ar
    11    14    15   ar
    12     2     3    1
    13     3    16    1
    14    16    17   ar
    15    17    18   ar
    16    18    19   ar
    17    19    22    1
    18    22    23   ar
    19    23    24   ar
    20    24    25   ar
    21    25    27    1
    22    27    28    1
    23    28    29    1
    24    25    26   ar
    25    19    20   ar
    26    20    21   ar
    27     3     1    1
    28    21    16   ar
    29    15    10   ar
    30    26    22   ar
    31    29    27    1
    32     6     8    1
    33     7     9    1
