@<TRIPOS>MOLECULE
*****
 31 32 0 0 0
SMALL
GASTEIGER

@<TRIPOS>ATOM
      1 N          -3.3797  -18.9016   21.3212 N.3     1  UNL1       -0.2712
      2 C          -4.2833  -19.6065   22.2889 C.3     1  UNL1        0.0722
      3 C          -5.6129  -20.1277   21.8302 C.3     1  UNL1        0.0191
      4 C          -6.0390  -19.9439   20.4038 C.3     1  UNL1        0.0224
      5 C          -5.1354  -19.2390   19.4361 C.3     1  UNL1        0.0191
      6 C          -3.8057  -18.7179   19.8948 C.3     1  UNL1        0.0722
      7 C          -2.0500  -18.3805   21.7798 C.3     1  UNL1        0.0937
      8 C          -1.9471  -17.0070   22.3739 C.3     1  UNL1        0.1082
      9 N          -5.3919  -15.4015   23.5165 N.am    1  UNL1       -0.2921
     10 C          -4.1876  -16.2949   23.4799 C.2     1  UNL1        0.3007
     11 O          -4.0194  -17.3696   24.5127 O.2     1  UNL1       -0.2528
     12 N          -3.1515  -16.1136   22.4105 N.am    1  UNL1       -0.2875
     13 H          -5.5023  -14.6961   22.8387 H       1  UNL1        0.1508
     14 H          -3.2619  -15.4082   21.7327 H       1  UNL1        0.1510
     15 C          -7.3385  -16.2412   23.5921 C.3     1  UNL1        0.0197
     16 C          -6.4281  -15.5828   24.5859 C.3     1  UNL1        0.0583
     17 C          -5.5176  -14.9243   25.5796 C.3     1  UNL1        0.0197
     18 C          -7.4642  -15.7640   25.6553 C.3     1  UNL1        0.0197
     19 C          -7.3687  -20.4650   19.9452 C.3     1  UNL1        0.0897
     20 N          -8.5804  -19.5829   20.0030 N.am    1  UNL1       -0.3009
     21 C          -9.2814  -19.3561   21.3096 C.2     1  UNL1        0.2459
     22 O          -8.7706  -20.0115   22.5584 O.2     1  UNL1       -0.2701
     23 H          -8.9157  -19.1527   19.1834 H       1  UNL1        0.1497
     24 C         -10.4932  -18.4739   21.3674 C.ar    1  UNL1        0.0550
     25 C         -10.7393  -17.4657   20.2844 C.ar    1  UNL1        0.0160
     26 C         -11.9511  -16.5835   20.3422 C.ar    1  UNL1        0.0587
     27 CL        -12.1972  -15.5753   19.2592 Cl      1  UNL1       -0.0822
     28 C         -12.9168  -16.7096   21.4830 C.ar    1  UNL1        0.0228
     29 C         -12.6707  -17.7178   22.5661 C.ar    1  UNL1        0.0587
     30 CL        -13.6364  -17.8439   23.7069 Cl      1  UNL1       -0.0822
     31 C         -11.4589  -18.6000   22.5082 C.ar    1  UNL1        0.0160
@<TRIPOS>BOND
     1    15    16    1
     2    16    17    1
     3    16    18    1
     4    16     9    1
     5     9    10   am
     6    10    11    2
     7    10    12   am
     8    12     8    1
     9     8     7    1
    10     7     1    1
    11     1     2    1
    12     2     3    1
    13     3     4    1
    14     4    19    1
    15    19    20    1
    16    20    21   am
    17    21    22    2
    18    21    24    1
    19    24    25   ar
    20    25    26   ar
    21    26    27    1
    22    26    28   ar
    23    28    29   ar
    24    29    30    1
    25    29    31   ar
    26     4     5    1
    27     5     6    1
    28     6     1    1
    29    31    24   ar
    30     9    13    1
    31    12    14    1
    32    20    23    1
@<TRIPOS>MOLECULE
*****
 31 32 0 0 0
SMALL
GASTEIGER

@<TRIPOS>ATOM
      1 N         -11.8532  -18.4101   21.4213 N.3     1  UNL1       -0.2712
      2 C         -11.0878  -19.6015   21.9160 C.3     1  UNL1        0.0722
      3 C          -9.9087  -20.1102   21.1407 C.3     1  UNL1        0.0191
      4 C          -9.4952  -19.4275   19.8707 C.3     1  UNL1        0.0224
      5 C         -10.2606  -18.2362   19.3760 C.3     1  UNL1        0.0191
      6 C         -11.4396  -17.7275   20.1514 C.3     1  UNL1        0.0722
      7 C         -13.0322  -17.9014   22.1966 C.3     1  UNL1        0.0937
      8 C         -12.8696  -16.7419   23.1343 C.3     1  UNL1        0.1082
      9 N          -9.1376  -15.4543   23.5395 N.am    1  UNL1       -0.2921
     10 C         -10.3532  -16.3282   23.6312 C.2     1  UNL1        0.3007
     11 O         -10.2683  -17.6623   24.3117 O.2     1  UNL1       -0.2528
     12 N         -11.6539  -15.8680   23.0425 N.am    1  UNL1       -0.2875
     13 H          -9.1934  -14.5787   23.0929 H       1  UNL1        0.1508
     14 H         -11.7097  -14.9924   22.5959 H       1  UNL1        0.1510
     15 C          -8.1855  -15.2427   25.4233 C.3     1  UNL1        0.0197
     16 C          -7.8369  -15.9144   24.1282 C.3     1  UNL1        0.0583
     17 C          -7.4884  -16.5861   22.8331 C.3     1  UNL1        0.0197
     18 C          -6.5362  -16.3746   24.7169 C.3     1  UNL1        0.0197
     19 C          -8.3161  -19.9362   19.0954 C.3     1  UNL1        0.0897
     20 N          -6.9701  -19.2985   19.2728 N.am    1  UNL1       -0.3009
     21 C          -6.0817  -19.7244   20.4039 C.2     1  UNL1        0.2459
     22 O          -6.5392  -20.7879   21.3575 O.2     1  UNL1       -0.2701
     23 H          -6.6698  -18.6005   18.6469 H       1  UNL1        0.1497
     24 C          -4.7356  -19.0866   20.5813 C.ar    1  UNL1        0.0550
     25 C          -3.8879  -18.7784   19.3828 C.ar    1  UNL1        0.0160
     26 C          -2.5418  -18.1406   19.5602 C.ar    1  UNL1        0.0587
     27 CL         -1.6941  -17.8324   18.3618 Cl      1  UNL1       -0.0822
     28 C          -2.0435  -17.8111   20.9361 C.ar    1  UNL1        0.0228
     29 C          -2.8913  -18.1193   22.1346 C.ar    1  UNL1        0.0587
     30 CL         -2.3930  -17.7898   23.5105 Cl      1  UNL1       -0.0822
     31 C          -4.2373  -18.7571   21.9572 C.ar    1  UNL1        0.0160
@<TRIPOS>BOND
     1    15    16    1
     2    16    17    1
     3    16    18    1
     4    16     9    1
     5     9    10   am
     6    10    11    2
     7    10    12   am
     8    12     8    1
     9     8     7    1
    10     7     1    1
    11     1     2    1
    12     2     3    1
    13     3     4    1
    14     4    19    1
    15    19    20    1
    16    20    21   am
    17    21    22    2
    18    21    24    1
    19    24    25   ar
    20    25    26   ar
    21    26    27    1
    22    26    28   ar
    23    28    29   ar
    24    29    30    1
    25    29    31   ar
    26     4     5    1
    27     5     6    1
    28     6     1    1
    29    31    24   ar
    30     9    13    1
    31    12    14    1
    32    20    23    1
@<TRIPOS>MOLECULE
*****
 31 32 0 0 0
SMALL
GASTEIGER

@<TRIPOS>ATOM
      1 N           8.5891   -7.6954   26.7911 N.3     1  UNL1       -0.2712
      2 C           8.3464   -7.5110   25.3224 C.3     1  UNL1        0.0722
      3 C           7.6901   -6.2585   24.8220 C.3     1  UNL1        0.0191
      4 C           7.2764   -5.1903   25.7903 C.3     1  UNL1        0.0224
      5 C           7.5191   -5.3746   27.2590 C.3     1  UNL1        0.0191
      6 C           8.1754   -6.6271   27.7594 C.3     1  UNL1        0.0722
      7 C           9.2454   -8.9479   27.2914 C.3     1  UNL1        0.0937
      8 C           8.4177  -10.0270   27.9242 C.3     1  UNL1        0.1082
      9 N           4.7387  -11.4803   27.6037 N.am    1  UNL1       -0.2921
     10 C           6.2069  -11.3914   27.8978 C.2     1  UNL1        0.3007
     11 O           6.9324  -12.5779   28.4596 O.2     1  UNL1       -0.2528
     12 N           6.9495  -10.1159   27.6301 N.am    1  UNL1       -0.2875
     13 H           4.2625  -10.7015   27.2350 H       1  UNL1        0.1508
     14 H           6.4733   -9.3371   27.2613 H       1  UNL1        0.1510
     15 C           4.2773  -13.2134   26.4709 C.3     1  UNL1        0.0197
     16 C           3.9960  -12.7557   27.8714 C.3     1  UNL1        0.0583
     17 C           3.7148  -12.2980   29.2719 C.3     1  UNL1        0.0197
     18 C           3.2533  -14.0312   28.1392 C.3     1  UNL1        0.0197
     19 C           6.6201   -3.9377   25.2900 C.3     1  UNL1        0.0897
     20 N           6.0609   -3.8882   23.8990 N.am    1  UNL1       -0.3009
     21 C           4.9844   -2.9008   23.5582 C.2     1  UNL1        0.2459
     22 O           4.4672   -1.9628   24.6082 O.2     1  UNL1       -0.2701
     23 H           6.4003   -4.5039   23.2098 H       1  UNL1        0.1497
     24 C           4.4252   -2.8513   22.1671 C.ar    1  UNL1        0.0550
     25 C           3.5385   -1.7138   21.7553 C.ar    1  UNL1        0.0160
     26 C           2.9793   -1.6643   20.3642 C.ar    1  UNL1        0.0587
     27 CL          2.0926   -0.5268   19.9524 Cl      1  UNL1       -0.0822
     28 C           3.3068   -2.7525   19.3851 C.ar    1  UNL1        0.0228
     29 C           4.1935   -3.8901   19.7970 C.ar    1  UNL1        0.0587
     30 CL          4.5211   -4.9782   18.8179 Cl      1  UNL1       -0.0822
     31 C           4.7527   -3.9395   21.1880 C.ar    1  UNL1        0.0160
@<TRIPOS>BOND
     1    15    16    1
     2    16    17    1
     3    16    18    1
     4    16     9    1
     5     9    10   am
     6    10    11    2
     7    10    12   am
     8    12     8    1
     9     8     7    1
    10     7     1    1
    11     1     2    1
    12     2     3    1
    13     3     4    1
    14     4    19    1
    15    19    20    1
    16    20    21   am
    17    21    22    2
    18    21    24    1
    19    24    25   ar
    20    25    26   ar
    21    26    27    1
    22    26    28   ar
    23    28    29   ar
    24    29    30    1
    25    29    31   ar
    26     4     5    1
    27     5     6    1
    28     6     1    1
    29    31    24   ar
    30     9    13    1
    31    12    14    1
    32    20    23    1
@<TRIPOS>MOLECULE
*****
 31 32 0 0 0
SMALL
GASTEIGER

@<TRIPOS>ATOM
      1 N           8.5475   -7.6886   27.0494 N.3     1  UNL1       -0.2712
      2 C           8.0518   -6.6655   28.0279 C.3     1  UNL1        0.0722
      3 C           7.3743   -5.4217   27.5339 C.3     1  UNL1        0.0191
      4 C           7.1926   -5.2010   26.0614 C.3     1  UNL1        0.0224
      5 C           7.6884   -6.2241   25.0829 C.3     1  UNL1        0.0191
      6 C           8.3658   -7.4679   25.5769 C.3     1  UNL1        0.0722
      7 C           9.2249   -8.9324   27.5434 C.3     1  UNL1        0.0937
      8 C           8.4053  -10.1144   27.9687 C.3     1  UNL1        0.1082
      9 N           4.6991  -11.4817   27.5878 N.am    1  UNL1       -0.2921
     10 C           6.1569  -11.4159   27.9350 C.2     1  UNL1        0.3007
     11 O           6.8240  -12.5856   28.5957 O.2     1  UNL1       -0.2528
     12 N           6.9475  -10.1802   27.6215 N.am    1  UNL1       -0.2875
     13 H           4.2612  -10.7139   27.1541 H       1  UNL1        0.1508
     14 H           6.5096   -9.4125   27.1878 H       1  UNL1        0.1510
     15 C           3.6139  -12.1812   29.2709 C.3     1  UNL1        0.0197
     16 C           3.9085  -12.7172   27.9013 C.3     1  UNL1        0.0583
     17 C           4.2030  -13.2532   26.5316 C.3     1  UNL1        0.0197
     18 C           3.1178  -13.9528   28.2147 C.3     1  UNL1        0.0197
     19 C           6.5152   -3.9572   25.5674 C.3     1  UNL1        0.0897
     20 N           5.9706   -3.9040   24.1708 N.am    1  UNL1       -0.3009
     21 C           4.9658   -2.8548   23.7971 C.2     1  UNL1        0.2459
     22 O           4.5057   -1.8589   24.8199 O.2     1  UNL1       -0.2701
     23 H           6.2726   -4.5577   23.4995 H       1  UNL1        0.1497
     24 C           4.4212   -2.8017   22.4004 C.ar    1  UNL1        0.0550
     25 C           4.7615   -3.8856   21.4210 C.ar    1  UNL1        0.0160
     26 C           4.2169   -3.8324   20.0243 C.ar    1  UNL1        0.0587
     27 CL          4.5571   -4.9164   19.0448 Cl      1  UNL1       -0.0822
     28 C           3.3320   -2.6953   19.6071 C.ar    1  UNL1        0.0228
     29 C           2.9918   -1.6114   20.5866 C.ar    1  UNL1        0.0587
     30 CL          2.1070   -0.4743   20.1694 Cl      1  UNL1       -0.0822
     31 C           3.5364   -1.6646   21.9832 C.ar    1  UNL1        0.0160
@<TRIPOS>BOND
     1    15    16    1
     2    16    17    1
     3    16    18    1
     4    16     9    1
     5     9    10   am
     6    10    11    2
     7    10    12   am
     8    12     8    1
     9     8     7    1
    10     7     1    1
    11     1     2    1
    12     2     3    1
    13     3     4    1
    14     4    19    1
    15    19    20    1
    16    20    21   am
    17    21    22    2
    18    21    24    1
    19    24    25   ar
    20    25    26   ar
    21    26    27    1
    22    26    28   ar
    23    28    29   ar
    24    29    30    1
    25    29    31   ar
    26     4     5    1
    27     5     6    1
    28     6     1    1
    29    31    24   ar
    30     9    13    1
    31    12    14    1
    32    20    23    1
@<TRIPOS>MOLECULE
*****
 31 32 0 0 0
SMALL
GASTEIGER

@<TRIPOS>ATOM
      1 N         -10.1853  -18.7502   22.1369 N.3     1  UNL1       -0.2712
      2 C          -9.7594  -19.7809   23.1399 C.3     1  UNL1        0.0722
      3 C          -8.4079  -20.4220   23.0289 C.3     1  UNL1        0.0191
      4 C          -7.4822  -20.0324   21.9147 C.3     1  UNL1        0.0224
      5 C          -7.9081  -19.0017   20.9117 C.3     1  UNL1        0.0191
      6 C          -9.2596  -18.3606   21.0227 C.3     1  UNL1        0.0722
      7 C         -11.5368  -18.1090   22.2479 C.3     1  UNL1        0.0937
      8 C         -11.7411  -16.9450   23.1716 C.3     1  UNL1        0.1082
      9 N          -8.4542  -15.1321   24.4601 N.am    1  UNL1       -0.2921
     10 C          -9.5353  -16.1591   24.2973 C.2     1  UNL1        0.3007
     11 O          -9.4918  -17.4272   25.0972 O.2     1  UNL1       -0.2528
     12 N         -10.6600  -15.9180   23.3344 N.am    1  UNL1       -0.2875
     13 H          -8.4828  -14.2998   23.9350 H       1  UNL1        0.1508
     14 H         -10.6886  -15.0857   22.8093 H       1  UNL1        0.1510
     15 C          -6.3838  -15.5542   24.2728 C.3     1  UNL1        0.0197
     16 C          -7.3296  -15.3732   25.4229 C.3     1  UNL1        0.0583
     17 C          -8.2754  -15.1922   26.5729 C.3     1  UNL1        0.0197
     18 C          -6.2049  -15.6143   26.3857 C.3     1  UNL1        0.0197
     19 C          -6.1307  -20.6735   21.8037 C.3     1  UNL1        0.0897
     20 N          -5.0819  -20.0644   20.9211 N.am    1  UNL1       -0.3009
     21 C          -3.9559  -19.2796   21.5262 C.2     1  UNL1        0.2459
     22 O          -3.8787  -19.1038   23.0139 O.2     1  UNL1       -0.2701
     23 H          -5.1325  -20.1798   19.9447 H       1  UNL1        0.1497
     24 C          -2.9070  -18.6705   20.6436 C.ar    1  UNL1        0.0550
     25 C          -3.2822  -18.1320   19.2948 C.ar    1  UNL1        0.0160
     26 C          -2.2333  -17.5229   18.4121 C.ar    1  UNL1        0.0587
     27 CL         -2.6084  -16.9845   17.0633 Cl      1  UNL1       -0.0822
     28 C          -0.8094  -17.4523   18.8784 C.ar    1  UNL1        0.0228
     29 C          -0.4343  -17.9908   20.2273 C.ar    1  UNL1        0.0587
     30 CL          0.9897  -17.9201   20.6935 Cl      1  UNL1       -0.0822
     31 C          -1.4831  -18.5998   21.1098 C.ar    1  UNL1        0.0160
@<TRIPOS>BOND
     1    15    16    1
     2    16    17    1
     3    16    18    1
     4    16     9    1
     5     9    10   am
     6    10    11    2
     7    10    12   am
     8    12     8    1
     9     8     7    1
    10     7     1    1
    11     1     2    1
    12     2     3    1
    13     3     4    1
    14     4    19    1
    15    19    20    1
    16    20    21   am
    17    21    22    2
    18    21    24    1
    19    24    25   ar
    20    25    26   ar
    21    26    27    1
    22    26    28   ar
    23    28    29   ar
    24    29    30    1
    25    29    31   ar
    26     4     5    1
    27     5     6    1
    28     6     1    1
    29    31    24   ar
    30     9    13    1
    31    12    14    1
    32    20    23    1
@<TRIPOS>MOLECULE
*****
 31 32 0 0 0
SMALL
GASTEIGER

@<TRIPOS>ATOM
      1 N          -2.6681  -17.4272   22.3401 N.3     1  UNL1       -0.2712
      2 C          -3.5374  -18.1893   23.2957 C.3     1  UNL1        0.0722
      3 C          -4.6853  -17.5036   23.9755 C.3     1  UNL1        0.0191
      4 C          -4.9639  -16.0557   23.6996 C.3     1  UNL1        0.0224
      5 C          -4.0945  -15.2937   22.7439 C.3     1  UNL1        0.0191
      6 C          -2.9466  -15.9794   22.0641 C.3     1  UNL1        0.0722
      7 C          -1.5202  -18.1130   21.6603 C.3     1  UNL1        0.0937
      8 C          -1.7661  -19.3278   20.8156 C.3     1  UNL1        0.1082
      9 N          -5.5344  -20.5689   20.7184 N.am    1  UNL1       -0.2921
     10 C          -4.3119  -19.7307   20.4888 C.2     1  UNL1        0.3007
     11 O          -4.4125  -18.4571   19.7028 O.2     1  UNL1       -0.2528
     12 N          -2.9886  -20.1661   21.0452 N.am    1  UNL1       -0.2875
     13 H          -5.4683  -21.4048   21.2343 H       1  UNL1        0.1508
     14 H          -2.9226  -21.0020   21.5611 H       1  UNL1        0.1510
     15 C          -6.7909  -21.2326   19.1435 C.3     1  UNL1        0.0197
     16 C          -6.8576  -20.1336   20.1621 C.3     1  UNL1        0.0583
     17 C          -6.9243  -19.0345   21.1807 C.3     1  UNL1        0.0197
     18 C          -8.1809  -19.6982   19.6057 C.3     1  UNL1        0.0197
     19 C          -6.1118  -15.3700   24.3793 C.3     1  UNL1        0.0897
     20 N          -7.5001  -15.9224   24.2472 N.am    1  UNL1       -0.3009
     21 C          -8.2240  -15.8260   22.9370 C.2     1  UNL1        0.2459
     22 O          -7.5597  -15.1772   21.7590 O.2     1  UNL1       -0.2701
     23 H          -7.9361  -16.3482   25.0203 H       1  UNL1        0.1497
     24 C          -9.6124  -16.3784   22.8048 C.ar    1  UNL1        0.0550
     25 C         -10.4651  -15.9915   21.6330 C.ar    1  UNL1        0.0160
     26 C         -11.8535  -16.5439   21.5009 C.ar    1  UNL1        0.0587
     27 CL        -12.7062  -16.1571   20.3291 Cl      1  UNL1       -0.0822
     28 C         -12.3890  -17.4831   22.5406 C.ar    1  UNL1        0.0228
     29 C         -11.5362  -17.8700   23.7125 C.ar    1  UNL1        0.0587
     30 CL        -12.0718  -18.8092   24.7522 Cl      1  UNL1       -0.0822
     31 C         -10.1480  -17.3176   23.8446 C.ar    1  UNL1        0.0160
@<TRIPOS>BOND
     1    15    16    1
     2    16    17    1
     3    16    18    1
     4    16     9    1
     5     9    10   am
     6    10    11    2
     7    10    12   am
     8    12     8    1
     9     8     7    1
    10     7     1    1
    11     1     2    1
    12     2     3    1
    13     3     4    1
    14     4    19    1
    15    19    20    1
    16    20    21   am
    17    21    22    2
    18    21    24    1
    19    24    25   ar
    20    25    26   ar
    21    26    27    1
    22    26    28   ar
    23    28    29   ar
    24    29    30    1
    25    29    31   ar
    26     4     5    1
    27     5     6    1
    28     6     1    1
    29    31    24   ar
    30     9    13    1
    31    12    14    1
    32    20    23    1
@<TRIPOS>MOLECULE
*****
 31 32 0 0 0
SMALL
GASTEIGER

@<TRIPOS>ATOM
      1 N           8.6865   -7.8711   27.2263 N.3     1  UNL1       -0.2712
      2 C           8.5070   -6.6023   28.0060 C.3     1  UNL1        0.0722
      3 C           7.9537   -5.3809   27.3338 C.3     1  UNL1        0.0191
      4 C           7.5800   -5.4281   25.8819 C.3     1  UNL1        0.0224
      5 C           7.7595   -6.6969   25.1022 C.3     1  UNL1        0.0191
      6 C           8.3128   -7.9184   25.7744 C.3     1  UNL1        0.0722
      7 C           9.2398   -9.0926   27.8985 C.3     1  UNL1        0.0937
      8 C           8.4405  -10.3616   27.9240 C.3     1  UNL1        0.1082
      9 N           4.6508  -11.5131   27.6749 N.am    1  UNL1       -0.2921
     10 C           6.1332  -11.5558   27.8995 C.2     1  UNL1        0.3007
     11 O           6.7909  -12.8352   28.3243 O.2     1  UNL1       -0.2528
     12 N           6.9580  -10.3189   27.6993 N.am    1  UNL1       -0.2875
     13 H           4.2191  -10.6733   27.3961 H       1  UNL1        0.1508
     14 H           6.5264   -9.4792   27.4206 H       1  UNL1        0.1510
     15 C           4.0514  -13.1321   26.4422 C.3     1  UNL1        0.0197
     16 C           3.8260  -12.7499   27.8751 C.3     1  UNL1        0.0583
     17 C           3.6005  -12.3676   29.3079 C.3     1  UNL1        0.0197
     18 C           3.0011  -13.9867   28.0753 C.3     1  UNL1        0.0197
     19 C           7.0267   -4.2066   25.2097 C.3     1  UNL1        0.0897
     20 N           6.8565   -4.1828   23.7196 N.am    1  UNL1       -0.3009
     21 C           5.7150   -3.4265   23.1071 C.2     1  UNL1        0.2459
     22 O           4.7438   -2.6942   23.9848 O.2     1  UNL1       -0.2701
     23 H           7.4940   -4.6634   23.1436 H       1  UNL1        0.1497
     24 C           5.5448   -3.4027   21.6170 C.ar    1  UNL1        0.0550
     25 C           4.3229   -4.0076   20.9919 C.ar    1  UNL1        0.0160
     26 C           4.1527   -3.9838   19.5017 C.ar    1  UNL1        0.0587
     27 CL          2.9307   -4.5888   18.8766 Cl      1  UNL1       -0.0822
     28 C           5.2045   -3.3549   18.6367 C.ar    1  UNL1        0.0228
     29 C           6.4265   -2.7499   19.2619 C.ar    1  UNL1        0.0587
     30 CL          7.4783   -2.1211   18.3969 Cl      1  UNL1       -0.0822
     31 C           6.5966   -2.7738   20.7520 C.ar    1  UNL1        0.0160
@<TRIPOS>BOND
     1    15    16    1
     2    16    17    1
     3    16    18    1
     4    16     9    1
     5     9    10   am
     6    10    11    2
     7    10    12   am
     8    12     8    1
     9     8     7    1
    10     7     1    1
    11     1     2    1
    12     2     3    1
    13     3     4    1
    14     4    19    1
    15    19    20    1
    16    20    21   am
    17    21    22    2
    18    21    24    1
    19    24    25   ar
    20    25    26   ar
    21    26    27    1
    22    26    28   ar
    23    28    29   ar
    24    29    30    1
    25    29    31   ar
    26     4     5    1
    27     5     6    1
    28     6     1    1
    29    31    24   ar
    30     9    13    1
    31    12    14    1
    32    20    23    1
@<TRIPOS>MOLECULE
*****
 31 32 0 0 0
SMALL
GASTEIGER

@<TRIPOS>ATOM
      1 N           7.9206   -5.5359   29.3898 N.3     1  UNL1       -0.2712
      2 C           6.4972   -5.5004   28.9179 C.3     1  UNL1        0.0722
      3 C           6.1935   -5.2682   27.4675 C.3     1  UNL1        0.0191
      4 C           7.3131   -5.0716   26.4889 C.3     1  UNL1        0.0224
      5 C           8.7365   -5.1071   26.9607 C.3     1  UNL1        0.0191
      6 C           9.0402   -5.3393   28.4112 C.3     1  UNL1        0.0722
      7 C           8.2243   -5.7681   30.8403 C.3     1  UNL1        0.0937
      8 C           7.9427   -4.6924   31.8470 C.3     1  UNL1        0.1082
      9 N           4.6409   -2.7408   32.8665 N.am    1  UNL1       -0.2921
     10 C           6.0509   -3.0103   32.4314 C.2     1  UNL1        0.3007
     11 O           6.9790   -1.8671   32.1456 O.2     1  UNL1       -0.2528
     12 N           6.5327   -4.4230   32.2821 N.am    1  UNL1       -0.2875
     13 H           4.0317   -3.4911   33.0541 H       1  UNL1        0.1508
     14 H           5.9235   -5.1733   32.4697 H       1  UNL1        0.1510
     15 C           3.7484   -1.3158   31.5732 C.3     1  UNL1        0.0197
     16 C           4.1590   -1.3282   33.0158 C.3     1  UNL1        0.0583
     17 C           4.5696   -1.3406   34.4584 C.3     1  UNL1        0.0197
     18 C           3.6771    0.0845   33.1651 C.3     1  UNL1        0.0197
     19 C           7.0094   -4.8395   25.0384 C.3     1  UNL1        0.0897
     20 N           5.9905   -3.8131   24.6404 N.am    1  UNL1       -0.3009
     21 C           5.6465   -3.6196   23.1933 C.2     1  UNL1        0.2459
     22 O           6.3214   -4.4525   22.1441 O.2     1  UNL1       -0.2701
     23 H           5.5475   -3.2665   25.3290 H       1  UNL1        0.1497
     24 C           4.6276   -2.5932   22.7953 C.ar    1  UNL1        0.0550
     25 C           4.0325   -1.6862   23.8312 C.ar    1  UNL1        0.0160
     26 C           3.0136   -0.6598   23.4333 C.ar    1  UNL1        0.0587
     27 CL          2.4185    0.2472   24.4692 Cl      1  UNL1       -0.0822
     28 C           2.5897   -0.5404   21.9994 C.ar    1  UNL1        0.0228
     29 C           3.1848   -1.4475   20.9634 C.ar    1  UNL1        0.0587
     30 CL          2.7610   -1.3282   19.5295 Cl      1  UNL1       -0.0822
     31 C           4.2037   -2.4739   21.3614 C.ar    1  UNL1        0.0160
@<TRIPOS>BOND
     1    15    16    1
     2    16    17    1
     3    16    18    1
     4    16     9    1
     5     9    10   am
     6    10    11    2
     7    10    12   am
     8    12     8    1
     9     8     7    1
    10     7     1    1
    11     1     2    1
    12     2     3    1
    13     3     4    1
    14     4    19    1
    15    19    20    1
    16    20    21   am
    17    21    22    2
    18    21    24    1
    19    24    25   ar
    20    25    26   ar
    21    26    27    1
    22    26    28   ar
    23    28    29   ar
    24    29    30    1
    25    29    31   ar
    26     4     5    1
    27     5     6    1
    28     6     1    1
    29    31    24   ar
    30     9    13    1
    31    12    14    1
    32    20    23    1
@<TRIPOS>MOLECULE
*****
 31 32 0 0 0
SMALL
GASTEIGER

@<TRIPOS>ATOM
      1 N           8.5134   -7.1526   26.7464 N.3     1  UNL1       -0.2712
      2 C           7.8102   -6.4784   27.8870 C.3     1  UNL1        0.0722
      3 C           7.1273   -5.1601   27.6731 C.3     1  UNL1        0.0191
      4 C           7.1477   -4.5159   26.3187 C.3     1  UNL1        0.0224
      5 C           7.8509   -5.1901   25.1781 C.3     1  UNL1        0.0191
      6 C           8.5337   -6.5084   25.3920 C.3     1  UNL1        0.0722
      7 C           9.1962   -8.4709   26.9603 C.3     1  UNL1        0.0937
      8 C           8.4865   -9.5737   27.6883 C.3     1  UNL1        0.1082
      9 N           4.9256  -11.3237   27.6013 N.am    1  UNL1       -0.2921
     10 C           6.3955  -11.1108   27.8113 C.2     1  UNL1        0.3007
     11 O           7.2442  -12.2219   28.3545 O.2     1  UNL1       -0.2528
     12 N           7.0167   -9.7866   27.4782 N.am    1  UNL1       -0.2875
     13 H           4.3686  -10.5944   27.2448 H       1  UNL1        0.1508
     14 H           6.4596   -9.0573   27.1217 H       1  UNL1        0.1510
     15 C           4.0074  -12.1595   29.3212 C.3     1  UNL1        0.0197
     16 C           4.3044  -12.6477   27.9344 C.3     1  UNL1        0.0583
     17 C           4.6014  -13.1359   26.5475 C.3     1  UNL1        0.0197
     18 C           3.6832  -13.9718   28.2674 C.3     1  UNL1        0.0197
     19 C           6.4648   -3.1976   26.1048 C.3     1  UNL1        0.0897
     20 N           5.3581   -2.7687   27.0220 N.am    1  UNL1       -0.3009
     21 C           5.4557   -1.4646   27.7566 C.2     1  UNL1        0.2459
     22 O           6.6601   -0.5893   27.5741 O.2     1  UNL1       -0.2701
     23 H           4.5676   -3.3432   27.1418 H       1  UNL1        0.1497
     24 C           4.3489   -1.0357   28.6738 C.ar    1  UNL1        0.0550
     25 C           2.9798   -0.7675   28.1228 C.ar    1  UNL1        0.0160
     26 C           1.8730   -0.3386   29.0400 C.ar    1  UNL1        0.0587
     27 CL          0.5039   -0.0704   28.4890 Cl      1  UNL1       -0.0822
     28 C           2.1354   -0.1780   30.5081 C.ar    1  UNL1        0.0228
     29 C           3.5046   -0.4462   31.0590 C.ar    1  UNL1        0.0587
     30 CL          3.7670   -0.2856   32.5271 Cl      1  UNL1       -0.0822
     31 C           4.6113   -0.8751   30.1419 C.ar    1  UNL1        0.0160
@<TRIPOS>BOND
     1    15    16    1
     2    16    17    1
     3    16    18    1
     4    16     9    1
     5     9    10   am
     6    10    11    2
     7    10    12   am
     8    12     8    1
     9     8     7    1
    10     7     1    1
    11     1     2    1
    12     2     3    1
    13     3     4    1
    14     4    19    1
    15    19    20    1
    16    20    21   am
    17    21    22    2
    18    21    24    1
    19    24    25   ar
    20    25    26   ar
    21    26    27    1
    22    26    28   ar
    23    28    29   ar
    24    29    30    1
    25    29    31   ar
    26     4     5    1
    27     5     6    1
    28     6     1    1
    29    31    24   ar
    30     9    13    1
    31    12    14    1
    32    20    23    1
