@<TRIPOS>MOLECULE
*****
 31 34 0 0 0
SMALL
GASTEIGER

@<TRIPOS>ATOM
      1 C          -4.9812  -20.2731   20.3479 C.3     1  UNL1        0.0050
      2 C          -5.0757  -20.3012   21.8446 C.3     1  UNL1        0.0050
      3 C          -6.3753  -19.9776   22.5202 C.3     1  UNL1        0.0260
      4 C          -7.5803  -19.6259   21.6990 C.ar    1  UNL1       -0.0264
      5 C          -8.8799  -19.3023   22.3746 C.ar    1  UNL1       -0.0089
      6 C         -10.0849  -18.9507   21.5535 C.ar    1  UNL1       -0.0228
      7 C          -9.9903  -18.9226   20.0567 C.ar    1  UNL1       -0.0046
      8 C          -8.6907  -19.2462   19.3811 C.ar    1  UNL1       -0.0049
      9 C          -7.4857  -19.5979   20.2023 C.ar    1  UNL1       -0.0262
     10 C          -6.1862  -19.9214   19.5267 C.3     1  UNL1        0.0260
     11 C         -11.3844  -18.6271   22.2290 C.3     1  UNL1        0.0237
     12 C         -12.5832  -18.0006   21.5806 C.3     1  UNL1        0.0058
     13 C         -13.6530  -17.8595   22.6224 C.3     1  UNL1        0.0170
     14 C         -13.1154  -18.3988   23.9148 C.3     1  UNL1        0.0666
     15 N         -12.8598  -18.8590   25.3194 N.3     1  UNL1       -0.3212
     16 C         -11.7134  -18.8732   23.6717 C.3     1  UNL1        0.0210
     17 H         -13.6885  -18.6885   25.8892 H       1  UNL1        0.1188
     18 H         -12.0689  -18.3447   25.7071 H       1  UNL1        0.1188
     19 C         -14.4641  -18.0206   24.4517 C.3     1  UNL1        0.1511
     20 O         -14.9212  -18.5560   25.7762 O.3     1  UNL1       -0.3806
     21 H         -15.0348  -19.5174   25.7145 H       1  UNL1        0.2105
     22 C          -3.6816  -20.5967   19.6722 C.3     1  UNL1        0.0051
     23 C          -2.3840  -20.2091   20.3172 C.3     1  UNL1        0.0294
     24 C          -1.5318  -17.7729   20.0189 C.ar    1  UNL1        0.1347
     25 C          -1.3478  -16.3857   20.5591 C.ar    1  UNL1        0.0366
     26 C          -1.8319  -16.0475   21.9380 C.ar    1  UNL1        0.0031
     27 C          -2.5000  -17.0965   22.7766 C.ar    1  UNL1       -0.0001
     28 C          -2.6841  -18.4836   22.2364 C.ar    1  UNL1       -0.0013
     29 C          -2.2000  -18.8218   20.8575 C.ar    1  UNL1        0.0118
     30 C          -1.8050  -17.6264   17.4394 C.3     1  UNL1        0.2525
     31 O          -1.0477  -18.1112   18.6400 O.3     1  UNL1       -0.4717
@<TRIPOS>BOND
     1    30    31    1
     2    31    24    1
     3    24    25   ar
     4    25    26   ar
     5    26    27   ar
     6    27    28   ar
     7    28    29   ar
     8    29    23    1
     9    23    22    1
    10     1    22    1
    11     1     2    1
    12     2     3    1
    13     3     4    1
    14     4     5   ar
    15     5     6   ar
    16    11     6    1
    17    11    12    1
    18    12    13    1
    19    13    14    1
    20    14    15    1
    21    14    19    1
    22    19    20    1
    23    14    16    1
    24     6     7   ar
    25     7     8   ar
    26     8     9   ar
    27     9    10    1
    28    29    24   ar
    29    10     1    1
    30     9     4   ar
    31    16    11    1
    32    15    17    1
    33    15    18    1
    34    20    21    1
@<TRIPOS>MOLECULE
*****
 31 34 0 0 0
SMALL
GASTEIGER

@<TRIPOS>ATOM
      1 C           6.4499   -2.6826   21.3146 C.3     1  UNL1        0.0050
      2 C           5.8989   -1.6181   22.2163 C.3     1  UNL1        0.0050
      3 C           5.9019   -1.8189   23.7028 C.3     1  UNL1        0.0260
      4 C           6.4558   -3.0843   24.2875 C.ar    1  UNL1       -0.0264
      5 C           6.4588   -3.2852   25.7740 C.ar    1  UNL1       -0.0089
      6 C           7.0127   -4.5506   26.3588 C.ar    1  UNL1       -0.0228
      7 C           7.5636   -5.6152   25.4570 C.ar    1  UNL1       -0.0046
      8 C           7.5607   -5.4143   23.9705 C.ar    1  UNL1       -0.0049
      9 C           7.0068   -4.1489   23.3858 C.ar    1  UNL1       -0.0262
     10 C           7.0038   -3.9480   21.8993 C.3     1  UNL1        0.0260
     11 C           7.0156   -4.7515   27.8452 C.3     1  UNL1        0.0237
     12 C           7.3822   -6.0164   28.5633 C.3     1  UNL1        0.0058
     13 C           7.2457   -5.7694   30.0365 C.3     1  UNL1        0.0170
     14 C           6.7947   -4.3517   30.2289 C.3     1  UNL1        0.0666
     15 N           6.3542   -3.0069   30.7262 N.3     1  UNL1       -0.3212
     16 C           6.6525   -3.7227   28.8746 C.3     1  UNL1        0.0210
     17 H           6.3163   -3.0170   31.7455 H       1  UNL1        0.1188
     18 H           5.4291   -2.7929   30.3537 H       1  UNL1        0.1188
     19 C           6.8448   -4.6997   31.6872 C.3     1  UNL1        0.1511
     20 O           6.5678   -6.1049   32.1330 O.3     1  UNL1       -0.3806
     21 H           5.6426   -6.3274   31.9447 H       1  UNL1        0.2105
     22 C           6.4470   -2.4818   19.8281 C.3     1  UNL1        0.0051
     23 C           5.2127   -2.7873   19.0324 C.3     1  UNL1        0.0294
     24 C           3.9836   -0.7785   17.9352 C.ar    1  UNL1        0.1347
     25 C           2.8418    0.1941   17.9189 C.ar    1  UNL1        0.0366
     26 C           1.7873    0.1305   18.9838 C.ar    1  UNL1        0.0031
     27 C           1.8745   -0.9057   20.0648 C.ar    1  UNL1       -0.0001
     28 C           3.0163   -1.8783   20.0810 C.ar    1  UNL1       -0.0013
     29 C           4.0708   -1.8147   19.0162 C.ar    1  UNL1        0.0118
     30 C           6.1848    0.2425   17.0065 C.3     1  UNL1        0.2525
     31 O           5.0382   -0.7149   16.8703 O.3     1  UNL1       -0.4717
@<TRIPOS>BOND
     1    30    31    1
     2    31    24    1
     3    24    25   ar
     4    25    26   ar
     5    26    27   ar
     6    27    28   ar
     7    28    29   ar
     8    29    23    1
     9    23    22    1
    10     1    22    1
    11     1     2    1
    12     2     3    1
    13     3     4    1
    14     4     5   ar
    15     5     6   ar
    16    11     6    1
    17    11    12    1
    18    12    13    1
    19    13    14    1
    20    14    15    1
    21    14    19    1
    22    19    20    1
    23    14    16    1
    24     6     7   ar
    25     7     8   ar
    26     8     9   ar
    27     9    10    1
    28    29    24   ar
    29    10     1    1
    30     9     4   ar
    31    16    11    1
    32    15    17    1
    33    15    18    1
    34    20    21    1
@<TRIPOS>MOLECULE
*****
 31 34 0 0 0
SMALL
GASTEIGER

@<TRIPOS>ATOM
      1 C          -1.4810    3.2497   25.2759 C.3     1  UNL1        0.0050
      2 C          -0.6102    2.1197   25.7392 C.3     1  UNL1        0.0050
      3 C           0.2367    1.3723   24.7523 C.3     1  UNL1        0.0260
      4 C           0.2128    1.7548   23.3021 C.ar    1  UNL1       -0.0264
      5 C           1.0598    1.0073   22.3151 C.ar    1  UNL1       -0.0089
      6 C           1.0358    1.3899   20.8649 C.ar    1  UNL1       -0.0228
      7 C           0.1649    2.5200   20.4017 C.ar    1  UNL1       -0.0046
      8 C          -0.6820    3.2674   21.3886 C.ar    1  UNL1       -0.0049
      9 C          -0.6580    2.8849   22.8388 C.ar    1  UNL1       -0.0262
     10 C          -1.5049    3.6323   23.8257 C.3     1  UNL1        0.0260
     11 C           1.8827    0.6425   19.8780 C.3     1  UNL1        0.0237
     12 C           2.1959    1.0776   18.4771 C.3     1  UNL1        0.0058
     13 C           3.0719    0.0328   17.8520 C.3     1  UNL1        0.0170
     14 C           3.3001   -1.0482   18.8666 C.3     1  UNL1        0.0666
     15 N           3.6995   -2.2610   19.6538 N.3     1  UNL1       -0.3212
     16 C           2.5652   -0.6714   20.1188 C.3     1  UNL1        0.0210
     17 H           4.2907   -2.8605   19.0781 H       1  UNL1        0.1188
     18 H           2.8641   -2.7750   19.9336 H       1  UNL1        0.1188
     19 C           4.1186   -1.6787   17.7790 C.3     1  UNL1        0.1511
     20 O           3.8901   -1.2912   16.3481 O.3     1  UNL1       -0.3806
     21 H           3.0055   -1.5784   16.0726 H       1  UNL1        0.2105
     22 C          -2.3280    3.9972   26.2628 C.3     1  UNL1        0.0051
     23 C          -3.7499    3.5813   26.4975 C.3     1  UNL1        0.0294
     24 C          -5.8105    5.0918   26.0258 C.ar    1  UNL1        0.1347
     25 C          -6.8920    5.5613   25.0985 C.ar    1  UNL1        0.0366
     26 C          -6.9945    4.9897   23.7155 C.ar    1  UNL1        0.0031
     27 C          -6.0154    3.9487   23.2598 C.ar    1  UNL1       -0.0001
     28 C          -4.9339    3.4792   24.1871 C.ar    1  UNL1       -0.0013
     29 C          -4.8315    4.0508   25.5701 C.ar    1  UNL1        0.0118
     30 C          -6.9220    6.2428   28.0728 C.3     1  UNL1        0.2525
     31 O          -5.7081    5.6634   27.4089 O.3     1  UNL1       -0.4717
@<TRIPOS>BOND
     1    30    31    1
     2    31    24    1
     3    24    25   ar
     4    25    26   ar
     5    26    27   ar
     6    27    28   ar
     7    28    29   ar
     8    29    23    1
     9    23    22    1
    10     1    22    1
    11     1     2    1
    12     2     3    1
    13     3     4    1
    14     4     5   ar
    15     5     6   ar
    16    11     6    1
    17    11    12    1
    18    12    13    1
    19    13    14    1
    20    14    15    1
    21    14    19    1
    22    19    20    1
    23    14    16    1
    24     6     7   ar
    25     7     8   ar
    26     8     9   ar
    27     9    10    1
    28    29    24   ar
    29    10     1    1
    30     9     4   ar
    31    16    11    1
    32    15    17    1
    33    15    18    1
    34    20    21    1
@<TRIPOS>MOLECULE
*****
 31 34 0 0 0
SMALL
GASTEIGER

@<TRIPOS>ATOM
      1 C           5.1226   -2.4777   19.2912 C.3     1  UNL1        0.0050
      2 C           4.0641   -2.3441   20.3455 C.3     1  UNL1        0.0050
      3 C           4.3352   -2.8136   21.7441 C.3     1  UNL1        0.0260
      4 C           5.6648   -3.4166   22.0883 C.ar    1  UNL1       -0.0264
      5 C           5.9359   -3.8861   23.4870 C.ar    1  UNL1       -0.0089
      6 C           7.2655   -4.4891   23.8312 C.ar    1  UNL1       -0.0228
      7 C           8.3240   -4.6226   22.7768 C.ar    1  UNL1       -0.0046
      8 C           8.0529   -4.1532   21.3782 C.ar    1  UNL1       -0.0049
      9 C           6.7233   -3.5502   21.0340 C.ar    1  UNL1       -0.0262
     10 C           6.4522   -3.0807   19.6354 C.3     1  UNL1        0.0260
     11 C           7.5366   -4.9586   25.2298 C.3     1  UNL1        0.0237
     12 C           8.8875   -5.2324   25.8216 C.3     1  UNL1        0.0058
     13 C           8.6902   -5.6797   27.2397 C.3     1  UNL1        0.0170
     14 C           7.2174   -5.6823   27.5243 C.3     1  UNL1        0.0666
     15 N           5.8332   -5.7825   28.0935 N.3     1  UNL1       -0.3212
     16 C           6.5045   -5.2366   26.2821 C.3     1  UNL1        0.0210
     17 H           5.8858   -6.0992   29.0616 H       1  UNL1        0.1188
     18 H           5.2882   -6.4491   27.5467 H       1  UNL1        0.1188
     19 C           7.6410   -6.1489   28.8856 C.3     1  UNL1        0.1511
     20 O           6.6781   -6.0841   30.0339 O.3     1  UNL1       -0.3806
     21 H           6.4772   -5.1568   30.2354 H       1  UNL1        0.2105
     22 C           4.8515   -2.0082   17.8925 C.3     1  UNL1        0.0051
     23 C           3.6807   -1.1124   17.6157 C.3     1  UNL1        0.0294
     24 C           2.5824    1.1265   18.3444 C.ar    1  UNL1        0.1347
     25 C           2.6866    2.5997   18.6067 C.ar    1  UNL1        0.0366
     26 C           3.9934    3.3072   18.4025 C.ar    1  UNL1        0.0031
     27 C           5.1959    2.5415   17.9360 C.ar    1  UNL1       -0.0001
     28 C           5.0917    1.0683   17.6738 C.ar    1  UNL1       -0.0013
     29 C           3.7849    0.3608   17.8780 C.ar    1  UNL1        0.0118
     30 C           0.8934   -0.0712   19.9138 C.3     1  UNL1        0.2525
     31 O           1.2755    0.4190   18.5486 O.3     1  UNL1       -0.4717
@<TRIPOS>BOND
     1    30    31    1
     2    31    24    1
     3    24    25   ar
     4    25    26   ar
     5    26    27   ar
     6    27    28   ar
     7    28    29   ar
     8    29    23    1
     9    23    22    1
    10     1    22    1
    11     1     2    1
    12     2     3    1
    13     3     4    1
    14     4     5   ar
    15     5     6   ar
    16    11     6    1
    17    11    12    1
    18    12    13    1
    19    13    14    1
    20    14    15    1
    21    14    19    1
    22    19    20    1
    23    14    16    1
    24     6     7   ar
    25     7     8   ar
    26     8     9   ar
    27     9    10    1
    28    29    24   ar
    29    10     1    1
    30     9     4   ar
    31    16    11    1
    32    15    17    1
    33    15    18    1
    34    20    21    1
@<TRIPOS>MOLECULE
*****
 31 34 0 0 0
SMALL
GASTEIGER

@<TRIPOS>ATOM
      1 C           2.0239    1.5871   18.9943 C.3     1  UNL1        0.0050
      2 C           1.6364    1.0692   20.3476 C.3     1  UNL1        0.0050
      3 C           0.3245    1.4681   20.9557 C.3     1  UNL1        0.0260
      4 C          -0.5998    2.3847   20.2105 C.ar    1  UNL1       -0.0264
      5 C          -1.9118    2.7836   20.8186 C.ar    1  UNL1       -0.0089
      6 C          -2.8361    3.7002   20.0734 C.ar    1  UNL1       -0.0228
      7 C          -2.4485    4.2180   18.7199 C.ar    1  UNL1       -0.0046
      8 C          -1.1366    3.8192   18.1118 C.ar    1  UNL1       -0.0049
      9 C          -0.2123    2.9025   18.8571 C.ar    1  UNL1       -0.0262
     10 C           1.0996    2.5037   18.2490 C.3     1  UNL1        0.0260
     11 C          -4.1480    4.0990   20.6815 C.3     1  UNL1        0.0237
     12 C          -5.1348    5.0643   20.0944 C.3     1  UNL1        0.0058
     13 C          -6.3001    5.1645   21.0335 C.3     1  UNL1        0.0170
     14 C          -6.0335    4.2611   22.2010 C.3     1  UNL1        0.0666
     15 N          -6.0456    3.4604   23.4693 N.3     1  UNL1       -0.3212
     16 C          -4.7035    3.6027   21.9834 C.3     1  UNL1        0.0210
     17 H          -6.9066    3.6495   23.9826 H       1  UNL1        0.1188
     18 H          -5.2435    3.7206   24.0433 H       1  UNL1        0.1188
     19 C          -7.3662    4.7522   22.6838 C.3     1  UNL1        0.1511
     20 O          -8.3356    3.7951   23.3116 O.3     1  UNL1       -0.3806
     21 H          -8.6304    3.1517   22.6482 H       1  UNL1        0.2105
     22 C           3.3359    1.1882   18.3861 C.3     1  UNL1        0.0051
     23 C           3.4649   -0.1274   17.6773 C.3     1  UNL1        0.0294
     24 C           5.5540   -1.6273   18.0461 C.ar    1  UNL1        0.1347
     25 C           6.2169   -2.7860   18.7302 C.ar    1  UNL1        0.0366
     26 C           5.4536   -3.6034   19.7297 C.ar    1  UNL1        0.0031
     27 C           4.0274   -3.2622   20.0451 C.ar    1  UNL1       -0.0001
     28 C           3.3645   -2.1036   19.3610 C.ar    1  UNL1       -0.0013
     29 C           4.1278   -1.2861   18.3615 C.ar    1  UNL1        0.0118
     30 C           7.1621    0.3409   17.5073 C.3     1  UNL1        0.2525
     31 O           6.3174   -0.8098   17.0465 O.3     1  UNL1       -0.4717
@<TRIPOS>BOND
     1    30    31    1
     2    31    24    1
     3    24    25   ar
     4    25    26   ar
     5    26    27   ar
     6    27    28   ar
     7    28    29   ar
     8    29    23    1
     9    23    22    1
    10     1    22    1
    11     1     2    1
    12     2     3    1
    13     3     4    1
    14     4     5   ar
    15     5     6   ar
    16    11     6    1
    17    11    12    1
    18    12    13    1
    19    13    14    1
    20    14    15    1
    21    14    19    1
    22    19    20    1
    23    14    16    1
    24     6     7   ar
    25     7     8   ar
    26     8     9   ar
    27     9    10    1
    28    29    24   ar
    29    10     1    1
    30     9     4   ar
    31    16    11    1
    32    15    17    1
    33    15    18    1
    34    20    21    1
@<TRIPOS>MOLECULE
*****
 31 34 0 0 0
SMALL
GASTEIGER

@<TRIPOS>ATOM
      1 C          -1.1545    3.2599   23.9216 C.3     1  UNL1        0.0050
      2 C          -0.2786    2.4400   24.8218 C.3     1  UNL1        0.0050
      3 C           0.7169    1.4850   24.2329 C.3     1  UNL1        0.0260
      4 C           0.8366    1.3499   22.7438 C.ar    1  UNL1       -0.0264
      5 C           1.8322    0.3949   22.1550 C.ar    1  UNL1       -0.0089
      6 C           1.9519    0.2599   20.6659 C.ar    1  UNL1       -0.0228
      7 C           1.0760    1.0799   19.7656 C.ar    1  UNL1       -0.0046
      8 C           0.0805    2.0349   20.3545 C.ar    1  UNL1       -0.0049
      9 C          -0.0392    2.1699   21.8436 C.ar    1  UNL1       -0.0262
     10 C          -1.0348    3.1249   22.4325 C.3     1  UNL1        0.0260
     11 C           2.9474   -0.6952   20.0770 C.3     1  UNL1        0.0237
     12 C           3.7611   -1.7004   20.8369 C.3     1  UNL1        0.0058
     13 C           4.6206   -2.4392   19.8544 C.3     1  UNL1        0.0170
     14 C           4.3383   -1.8904   18.4872 C.3     1  UNL1        0.0666
     15 N           4.2691   -1.5522   17.0274 N.3     1  UNL1       -0.3212
     16 C           3.3042   -0.8126   18.6248 C.3     1  UNL1        0.0210
     17 H           4.9153   -2.1476   16.5095 H       1  UNL1        0.1188
     18 H           4.5253   -0.5742   16.8925 H       1  UNL1        0.1188
     19 C           5.3579   -2.8976   18.0443 C.3     1  UNL1        0.1511
     20 O           6.6582   -2.4387   17.4540 O.3     1  UNL1       -0.3806
     21 H           6.4905   -1.9948   16.6080 H       1  UNL1        0.2105
     22 C          -2.1501    4.2150   24.5104 C.3     1  UNL1        0.0051
     23 C          -3.4229    3.6960   25.1108 C.3     1  UNL1        0.0294
     24 C          -5.8344    4.6622   25.1442 C.ar    1  UNL1        0.1347
     25 C          -7.1440    4.9104   24.4563 C.ar    1  UNL1        0.0366
     26 C          -7.3517    4.4408   23.0469 C.ar    1  UNL1        0.0031
     27 C          -6.2498    3.7229   22.3255 C.ar    1  UNL1       -0.0001
     28 C          -4.9402    3.4747   23.0134 C.ar    1  UNL1       -0.0013
     29 C          -4.7325    3.9443   24.4228 C.ar    1  UNL1        0.0118
     30 C          -5.0603    6.4961   26.8137 C.3     1  UNL1        0.2525
     31 O          -5.6267    5.1318   26.5536 O.3     1  UNL1       -0.4717
@<TRIPOS>BOND
     1    30    31    1
     2    31    24    1
     3    24    25   ar
     4    25    26   ar
     5    26    27   ar
     6    27    28   ar
     7    28    29   ar
     8    29    23    1
     9    23    22    1
    10     1    22    1
    11     1     2    1
    12     2     3    1
    13     3     4    1
    14     4     5   ar
    15     5     6   ar
    16    11     6    1
    17    11    12    1
    18    12    13    1
    19    13    14    1
    20    14    15    1
    21    14    19    1
    22    19    20    1
    23    14    16    1
    24     6     7   ar
    25     7     8   ar
    26     8     9   ar
    27     9    10    1
    28    29    24   ar
    29    10     1    1
    30     9     4   ar
    31    16    11    1
    32    15    17    1
    33    15    18    1
    34    20    21    1
@<TRIPOS>MOLECULE
*****
 31 34 0 0 0
SMALL
GASTEIGER

@<TRIPOS>ATOM
      1 C           2.7397    0.3586   18.9253 C.3     1  UNL1        0.0050
      2 C           1.2523    0.2133   19.0538 C.3     1  UNL1        0.0050
      3 C           0.5973    0.3623   20.3949 C.3     1  UNL1        0.0260
      4 C           1.4297    0.6566   21.6076 C.ar    1  UNL1       -0.0264
      5 C           0.7746    0.8056   22.9488 C.ar    1  UNL1       -0.0089
      6 C           1.6070    1.0999   24.1614 C.ar    1  UNL1       -0.0228
      7 C           3.0944    1.2453   24.0329 C.ar    1  UNL1       -0.0046
      8 C           3.7494    1.0963   22.6918 C.ar    1  UNL1       -0.0049
      9 C           2.9171    0.8019   21.4791 C.ar    1  UNL1       -0.0262
     10 C           3.5721    0.6530   20.1380 C.3     1  UNL1        0.0260
     11 C           0.9520    1.2489   25.5026 C.3     1  UNL1        0.0237
     12 C          -0.4529    1.7122   25.7511 C.3     1  UNL1        0.0058
     13 C          -0.6863    1.7104   27.2328 C.3     1  UNL1        0.0170
     14 C           0.5743    1.2460   27.9001 C.3     1  UNL1        0.0666
     15 N           1.6712    0.8227   28.8316 N.3     1  UNL1       -0.3212
     16 C           1.5868    0.9608   26.8307 C.3     1  UNL1        0.0210
     17 H           1.3410    0.8821   29.7948 H       1  UNL1        0.1188
     18 H           2.4766    1.4367   28.7097 H       1  UNL1        0.1188
     19 C          -0.2089    1.4427   29.1642 C.3     1  UNL1        0.1511
     20 O           0.3821    1.0405   30.4829 O.3     1  UNL1       -0.3806
     21 H           0.4913    0.0770   30.5079 H       1  UNL1        0.2105
     22 C           3.3948    0.2096   17.5841 C.3     1  UNL1        0.0051
     23 C           3.9118   -1.1287   17.1465 C.3     1  UNL1        0.0294
     24 C           6.0227   -2.0919   18.3155 C.ar    1  UNL1        0.1347
     25 C           6.6434   -3.0202   19.3170 C.ar    1  UNL1        0.0366
     26 C           5.7738   -3.9136   20.1510 C.ar    1  UNL1        0.0031
     27 C           4.2836   -3.8787   19.9836 C.ar    1  UNL1       -0.0001
     28 C           3.6629   -2.9504   18.9821 C.ar    1  UNL1       -0.0013
     29 C           4.5325   -2.0570   18.1481 C.ar    1  UNL1        0.0118
     30 C           7.2970    0.1500   17.9990 C.3     1  UNL1        0.2525
     31 O           6.8923   -1.1984   17.4814 O.3     1  UNL1       -0.4717
@<TRIPOS>BOND
     1    30    31    1
     2    31    24    1
     3    24    25   ar
     4    25    26   ar
     5    26    27   ar
     6    27    28   ar
     7    28    29   ar
     8    29    23    1
     9    23    22    1
    10     1    22    1
    11     1     2    1
    12     2     3    1
    13     3     4    1
    14     4     5   ar
    15     5     6   ar
    16    11     6    1
    17    11    12    1
    18    12    13    1
    19    13    14    1
    20    14    15    1
    21    14    19    1
    22    19    20    1
    23    14    16    1
    24     6     7   ar
    25     7     8   ar
    26     8     9   ar
    27     9    10    1
    28    29    24   ar
    29    10     1    1
    30     9     4   ar
    31    16    11    1
    32    15    17    1
    33    15    18    1
    34    20    21    1
@<TRIPOS>MOLECULE
*****
 31 34 0 0 0
SMALL
GASTEIGER

@<TRIPOS>ATOM
      1 C           1.7658    0.0809   21.4189 C.3     1  UNL1        0.0050
      2 C           0.8143    1.0789   22.0091 C.3     1  UNL1        0.0050
      3 C           0.8475    1.3674   23.4807 C.3     1  UNL1        0.0260
      4 C           1.8323    0.6578   24.3621 C.ar    1  UNL1       -0.0264
      5 C           1.8655    0.9463   25.8337 C.ar    1  UNL1       -0.0089
      6 C           2.8502    0.2368   26.7151 C.ar    1  UNL1       -0.0228
      7 C           3.8018   -0.7613   26.1247 C.ar    1  UNL1       -0.0046
      8 C           3.7686   -1.0497   24.6531 C.ar    1  UNL1       -0.0049
      9 C           2.7838   -0.3402   23.7718 C.ar    1  UNL1       -0.0262
     10 C           2.7506   -0.6287   22.3002 C.3     1  UNL1        0.0260
     11 C           2.8835    0.5252   28.1867 C.3     1  UNL1        0.0237
     12 C           3.1928    1.8500   28.8187 C.3     1  UNL1        0.0058
     13 C           3.1137    1.6831   30.3073 C.3     1  UNL1        0.0170
     14 C           2.7555    0.2552   30.5952 C.3     1  UNL1        0.0666
     15 N           2.4120   -1.0815   31.1829 N.3     1  UNL1       -0.3212
     16 C           2.6132   -0.4604   29.2846 C.3     1  UNL1        0.0210
     17 H           2.4028   -1.0132   32.2006 H       1  UNL1        0.1188
     18 H           3.1084   -1.7687   30.8945 H       1  UNL1        0.1188
     19 C           2.8260    0.6913   32.0288 C.3     1  UNL1        0.1511
     20 O           1.6450    1.3591   32.6685 O.3     1  UNL1       -0.3806
     21 H           1.4905    2.2180   32.2450 H       1  UNL1        0.2105
     22 C           1.7326   -0.2076   19.9472 C.3     1  UNL1        0.0051
     23 C           3.0111   -0.2625   19.1647 C.3     1  UNL1        0.0294
     24 C           5.1499   -1.5834   18.5085 C.ar    1  UNL1        0.1347
     25 C           5.8698   -2.8883   18.3382 C.ar    1  UNL1        0.0366
     26 C           5.1706   -4.1773   18.6540 C.ar    1  UNL1        0.0031
     27 C           3.7516   -4.1613   19.1400 C.ar    1  UNL1       -0.0001
     28 C           3.0318   -2.8564   19.3102 C.ar    1  UNL1       -0.0013
     29 C           3.7309   -1.5675   18.9945 C.ar    1  UNL1        0.0118
     30 C           5.8164    0.2542   16.7970 C.3     1  UNL1        0.2525
     31 O           5.8491   -0.2944   18.1927 O.3     1  UNL1       -0.4717
@<TRIPOS>BOND
     1    30    31    1
     2    31    24    1
     3    24    25   ar
     4    25    26   ar
     5    26    27   ar
     6    27    28   ar
     7    28    29   ar
     8    29    23    1
     9    23    22    1
    10     1    22    1
    11     1     2    1
    12     2     3    1
    13     3     4    1
    14     4     5   ar
    15     5     6   ar
    16    11     6    1
    17    11    12    1
    18    12    13    1
    19    13    14    1
    20    14    15    1
    21    14    19    1
    22    19    20    1
    23    14    16    1
    24     6     7   ar
    25     7     8   ar
    26     8     9   ar
    27     9    10    1
    28    29    24   ar
    29    10     1    1
    30     9     4   ar
    31    16    11    1
    32    15    17    1
    33    15    18    1
    34    20    21    1
@<TRIPOS>MOLECULE
*****
 31 34 0 0 0
SMALL
GASTEIGER

@<TRIPOS>ATOM
      1 C           2.0480   -0.2042   21.3997 C.3     1  UNL1        0.0050
      2 C           1.0302    0.8252   21.7925 C.3     1  UNL1        0.0050
      3 C           0.9032    1.2450   23.2269 C.3     1  UNL1        0.0260
      4 C           1.7939    0.6353   24.2685 C.ar    1  UNL1       -0.0264
      5 C           1.6667    1.0551   25.7030 C.ar    1  UNL1       -0.0089
      6 C           2.5575    0.4454   26.7446 C.ar    1  UNL1       -0.0228
      7 C           3.5753   -0.5840   26.3517 C.ar    1  UNL1       -0.0046
      8 C           3.7024   -1.0038   24.9173 C.ar    1  UNL1       -0.0049
      9 C           2.8117   -0.3941   23.8757 C.ar    1  UNL1       -0.0262
     10 C           2.9387   -0.8139   22.4413 C.3     1  UNL1        0.0260
     11 C           2.4304    0.8652   28.1790 C.3     1  UNL1        0.0237
     12 C           2.2156    2.2654   28.6722 C.3     1  UNL1        0.0058
     13 C           2.1482    2.2240   30.1702 C.3     1  UNL1        0.0170
     14 C           2.3214    0.7982   30.6027 C.3     1  UNL1        0.0666
     15 N           2.4644   -0.5092   31.3240 N.3     1  UNL1       -0.3212
     16 C           2.4958   -0.0416   29.3721 C.3     1  UNL1        0.0210
     17 H           2.3940   -0.3522   32.3294 H       1  UNL1        0.1188
     18 H           3.3725   -0.9198   31.1067 H       1  UNL1        0.1188
     19 C           2.1769    1.3647   31.9841 C.3     1  UNL1        0.1511
     20 O           0.8154    1.6916   32.5221 O.3     1  UNL1       -0.3806
     21 H           0.4304    2.4182   32.0076 H       1  UNL1        0.2105
     22 C           2.1751   -0.6240   19.9652 C.3     1  UNL1        0.0051
     23 C           2.8004   -1.9437   19.6225 C.3     1  UNL1        0.0294
     24 C           5.1571   -2.9948   19.9246 C.ar    1  UNL1        0.1347
     25 C           6.6074   -3.0623   19.5478 C.ar    1  UNL1        0.0366
     26 C           7.1513   -2.1462   18.4919 C.ar    1  UNL1        0.0031
     27 C           6.2450   -1.1626   17.8130 C.ar    1  UNL1       -0.0001
     28 C           4.7947   -1.0951   18.1898 C.ar    1  UNL1       -0.0013
     29 C           4.2507   -2.0112   19.2456 C.ar    1  UNL1        0.0118
     30 C           4.9980   -3.7123   22.4166 C.3     1  UNL1        0.2525
     31 O           4.6130   -3.9109   20.9805 O.3     1  UNL1       -0.4717
@<TRIPOS>BOND
     1    30    31    1
     2    31    24    1
     3    24    25   ar
     4    25    26   ar
     5    26    27   ar
     6    27    28   ar
     7    28    29   ar
     8    29    23    1
     9    23    22    1
    10     1    22    1
    11     1     2    1
    12     2     3    1
    13     3     4    1
    14     4     5   ar
    15     5     6   ar
    16    11     6    1
    17    11    12    1
    18    12    13    1
    19    13    14    1
    20    14    15    1
    21    14    19    1
    22    19    20    1
    23    14    16    1
    24     6     7   ar
    25     7     8   ar
    26     8     9   ar
    27     9    10    1
    28    29    24   ar
    29    10     1    1
    30     9     4   ar
    31    16    11    1
    32    15    17    1
    33    15    18    1
    34    20    21    1
