@<TRIPOS>MOLECULE
*****
 35 39 0 0 0
SMALL
GASTEIGER

@<TRIPOS>ATOM
      1 O          -8.8744  -20.7482   18.1780 O.2     1  UNL1       -0.2662
      2 C          -8.3646  -20.0031   19.3759 C.2     1  UNL1        0.2878
      3 N          -9.2938  -19.1329   20.1693 N.am    1  UNL1       -0.2468
      4 C          -8.7839  -18.3879   21.3672 C.ar    1  UNL1        0.0547
      5 C          -8.6843  -19.0798   22.6943 C.ar    1  UNL1        0.0162
      6 C          -8.1745  -18.3349   23.8922 C.ar    1  UNL1        0.0158
      7 C          -7.7642  -16.8979   23.7630 C.ar    1  UNL1        0.0480
      8 C          -7.8638  -16.2059   22.4359 C.ar    1  UNL1        0.0158
      9 C          -8.3737  -16.9510   21.2380 C.ar    1  UNL1        0.0162
     10 N          -7.2543  -16.1528   24.9609 N.pl3   1  UNL1       -0.3047
     11 C          -5.8498  -15.6261   24.9746 C.3     1  UNL1        0.1079
     12 C          -5.3400  -14.8810   26.1725 C.3     1  UNL1        0.0903
     13 N          -6.2345  -14.6626   27.3565 N.3     1  UNL1       -0.2946
     14 C          -7.6389  -15.1893   27.3429 C.3     1  UNL1        0.0903
     15 C          -8.1489  -15.9344   26.1450 C.3     1  UNL1        0.1079
     16 H          -6.2995  -13.6541   27.4944 H       1  UNL1        0.1233
     17 C          -6.9257  -20.1283   19.7804 C.ar    1  UNL1        0.1989
     18 C          -6.2995  -21.3120   20.4564 C.ar    1  UNL1        0.0454
     19 C          -4.8470  -21.0069   20.6737 C.ar    1  UNL1        0.0408
     20 C          -4.5754  -19.6348   20.1321 C.ar    1  UNL1        0.1455
     21 O          -5.8601  -19.0918   19.5800 O.2     1  UNL1       -0.4489
     22 C          -3.2516  -18.9295   20.1409 C.ar    1  UNL1        0.0346
     23 C          -2.5620  -18.6125   18.8471 C.ar    1  UNL1        0.0039
     24 C          -1.2382  -17.9072   18.8561 C.ar    1  UNL1        0.0115
     25 C          -0.6041  -17.5189   20.1588 C.ar    1  UNL1        0.0577
     26 CL          0.7198  -16.8135   20.1676 Cl      1  UNL1       -0.0822
     27 C          -1.2937  -17.8358   21.4525 C.ar    1  UNL1        0.0115
     28 C          -2.6174  -18.5411   21.4436 C.ar    1  UNL1        0.0039
     29 C         -10.7328  -19.0078   19.7648 C.3     1  UNL1        0.1442
     30 C         -11.6542  -18.1120   20.5385 C.ar    1  UNL1        0.0794
     31 C         -12.2209  -18.5714   21.8492 C.ar    1  UNL1        0.0165
     32 C         -13.1423  -17.6756   22.6229 C.ar    1  UNL1        0.0029
     33 C         -13.4970  -16.3206   22.0859 C.ar    1  UNL1        0.0207
     34 C         -12.9302  -15.8613   20.7753 C.ar    1  UNL1        0.0985
     35 N         -12.0088  -16.7571   20.0016 N.ar    1  UNL1       -0.2464
@<TRIPOS>BOND
     1     1     2    2
     2     2    17    1
     3    17    18   ar
     4    18    19   ar
     5    19    20   ar
     6    20    22    1
     7    22    23   ar
     8    23    24   ar
     9    24    25   ar
    10    25    26    1
    11    25    27   ar
    12    27    28   ar
    13    20    21   ar
    14     2     3   am
    15     3    29    1
    16    29    30    1
    17    30    31   ar
    18    31    32   ar
    19    32    33   ar
    20    33    34   ar
    21    34    35   ar
    22     3     4    1
    23     4     5   ar
    24     5     6   ar
    25     6     7   ar
    26     7    10    1
    27    10    11    1
    28    11    12    1
    29    12    13    1
    30    13    14    1
    31    14    15    1
    32     7     8   ar
    33     8     9   ar
    34    21    17   ar
    35    35    30   ar
    36     9     4   ar
    37    28    22   ar
    38    15    10    1
    39    13    16    1
@<TRIPOS>MOLECULE
*****
 35 39 0 0 0
SMALL
GASTEIGER

@<TRIPOS>ATOM
      1 O           6.9265   -1.9943   17.1985 O.2     1  UNL1       -0.2662
      2 C           6.4881   -1.8268   18.6232 C.2     1  UNL1        0.2878
      3 N           5.2237   -1.0830   18.9363 N.am    1  UNL1       -0.2468
      4 C           4.7853   -0.9155   20.3611 C.ar    1  UNL1        0.0547
      5 C           5.2945    0.2393   21.1717 C.ar    1  UNL1        0.0162
      6 C           4.8562    0.4067   22.5964 C.ar    1  UNL1        0.0158
      7 C           3.9085   -0.5806   23.2104 C.ar    1  UNL1        0.0480
      8 C           3.3993   -1.7354   22.3998 C.ar    1  UNL1        0.0158
      9 C           3.8377   -1.9028   20.9751 C.ar    1  UNL1        0.0162
     10 N           3.4701   -0.4132   24.6351 N.pl3   1  UNL1       -0.3047
     11 C           3.9683   -1.3573   25.6890 C.3     1  UNL1        0.1079
     12 C           3.5299   -1.1899   27.1137 C.3     1  UNL1        0.0903
     13 N           2.5933   -0.0785   27.4845 N.3     1  UNL1       -0.2946
     14 C           2.0951    0.8656   26.4308 C.3     1  UNL1        0.0903
     15 C           2.5335    0.6982   25.0060 C.3     1  UNL1        0.1079
     16 H           3.0715    0.4880   28.1851 H       1  UNL1        0.1233
     17 C           7.3140   -2.4032   19.7347 C.ar    1  UNL1        0.1989
     18 C           8.6683   -1.9242   20.1667 C.ar    1  UNL1        0.0454
     19 C           9.1220   -2.7847   21.3084 C.ar    1  UNL1        0.0408
     20 C           8.0482   -3.7957   21.5821 C.ar    1  UNL1        0.1455
     21 O           6.9308   -3.5599   20.6095 O.2     1  UNL1       -0.4489
     22 C           8.0852   -4.8563   22.6423 C.ar    1  UNL1        0.0346
     23 C           8.8324   -6.1339   22.3992 C.ar    1  UNL1        0.0039
     24 C           8.8694   -7.1944   23.4593 C.ar    1  UNL1        0.0115
     25 C           8.1591   -6.9772   24.7626 C.ar    1  UNL1        0.0577
     26 CL          8.1961   -8.0378   25.8227 Cl      1  UNL1       -0.0822
     27 C           7.4119   -5.6996   25.0056 C.ar    1  UNL1        0.0115
     28 C           7.3749   -4.6391   23.9455 C.ar    1  UNL1        0.0039
     29 C           4.3978   -0.5066   17.8248 C.3     1  UNL1        0.1442
     30 C           3.4029    0.5781   18.1143 C.ar    1  UNL1        0.0794
     31 C           1.9573    0.2345   18.3198 C.ar    1  UNL1        0.0165
     32 C           0.9625    1.3192   18.6094 C.ar    1  UNL1        0.0029
     33 C           1.4134    2.7474   18.6934 C.ar    1  UNL1        0.0207
     34 C           2.8589    3.0910   18.4880 C.ar    1  UNL1        0.0985
     35 N           3.8537    2.0063   18.1984 N.ar    1  UNL1       -0.2464
@<TRIPOS>BOND
     1     1     2    2
     2     2    17    1
     3    17    18   ar
     4    18    19   ar
     5    19    20   ar
     6    20    22    1
     7    22    23   ar
     8    23    24   ar
     9    24    25   ar
    10    25    26    1
    11    25    27   ar
    12    27    28   ar
    13    20    21   ar
    14     2     3   am
    15     3    29    1
    16    29    30    1
    17    30    31   ar
    18    31    32   ar
    19    32    33   ar
    20    33    34   ar
    21    34    35   ar
    22     3     4    1
    23     4     5   ar
    24     5     6   ar
    25     6     7   ar
    26     7    10    1
    27    10    11    1
    28    11    12    1
    29    12    13    1
    30    13    14    1
    31    14    15    1
    32     7     8   ar
    33     8     9   ar
    34    21    17   ar
    35    35    30   ar
    36     9     4   ar
    37    28    22   ar
    38    15    10    1
    39    13    16    1
@<TRIPOS>MOLECULE
*****
 35 39 0 0 0
SMALL
GASTEIGER

@<TRIPOS>ATOM
      1 O           5.7764   -3.1180   17.8902 O.2     1  UNL1       -0.2662
      2 C           5.7247   -2.6912   19.3273 C.2     1  UNL1        0.2878
      3 N           4.6535   -1.7496   19.7920 N.am    1  UNL1       -0.2468
      4 C           4.6018   -1.3229   21.2292 C.ar    1  UNL1        0.0547
      5 C           5.2390   -0.0324   21.6518 C.ar    1  UNL1        0.0162
      6 C           5.1874    0.3943   23.0888 C.ar    1  UNL1        0.0158
      7 C           4.4984   -0.4695   24.1033 C.ar    1  UNL1        0.0480
      8 C           3.8612   -1.7600   23.6807 C.ar    1  UNL1        0.0158
      9 C           3.9129   -2.1866   22.2436 C.ar    1  UNL1        0.0162
     10 N           4.4467   -0.0429   25.5404 N.pl3   1  UNL1       -0.3047
     11 C           3.5608   -0.7709   26.5076 C.3     1  UNL1        0.1079
     12 C           3.5091   -0.3443   27.9447 C.3     1  UNL1        0.0903
     13 N           4.3432    0.8103   28.4147 N.3     1  UNL1       -0.2946
     14 C           5.2291    1.5384   27.4477 C.3     1  UNL1        0.0903
     15 C           5.2808    1.1118   26.0105 C.3     1  UNL1        0.1079
     16 H           4.9464    0.4551   29.1565 H       1  UNL1        0.1233
     17 C           6.7441   -3.2062   20.2997 C.ar    1  UNL1        0.1989
     18 C           8.1606   -2.7293   20.4273 C.ar    1  UNL1        0.0454
     19 C           8.8180   -3.5168   21.5217 C.ar    1  UNL1        0.0408
     20 C           7.8079   -4.4803   22.0705 C.ar    1  UNL1        0.1455
     21 O           6.5261   -4.2883   21.3153 O.2     1  UNL1       -0.4489
     22 C           8.0388   -5.4632   23.1799 C.ar    1  UNL1        0.0346
     23 C           7.4282   -5.2280   24.5296 C.ar    1  UNL1        0.0039
     24 C           7.6592   -6.2109   25.6388 C.ar    1  UNL1        0.0115
     25 C           8.5008   -7.4291   25.3983 C.ar    1  UNL1        0.0577
     26 CL          8.7318   -8.4120   26.5077 Cl      1  UNL1       -0.0822
     27 C           9.1115   -7.6643   24.0486 C.ar    1  UNL1        0.0115
     28 C           8.8805   -6.6814   22.9394 C.ar    1  UNL1        0.0039
     29 C           3.6340   -1.2347   18.8196 C.3     1  UNL1        0.1442
     30 C           2.5771   -0.2746   19.2792 C.ar    1  UNL1        0.0794
     31 C           1.3758   -0.7806   20.0214 C.ar    1  UNL1        0.0165
     32 C           0.3189    0.1795   20.4809 C.ar    1  UNL1        0.0029
     33 C           0.4634    1.6456   20.1982 C.ar    1  UNL1        0.0207
     34 C           1.6646    2.1515   19.4560 C.ar    1  UNL1        0.0985
     35 N           2.7215    1.1914   18.9964 N.ar    1  UNL1       -0.2464
@<TRIPOS>BOND
     1     1     2    2
     2     2    17    1
     3    17    18   ar
     4    18    19   ar
     5    19    20   ar
     6    20    22    1
     7    22    23   ar
     8    23    24   ar
     9    24    25   ar
    10    25    26    1
    11    25    27   ar
    12    27    28   ar
    13    20    21   ar
    14     2     3   am
    15     3    29    1
    16    29    30    1
    17    30    31   ar
    18    31    32   ar
    19    32    33   ar
    20    33    34   ar
    21    34    35   ar
    22     3     4    1
    23     4     5   ar
    24     5     6   ar
    25     6     7   ar
    26     7    10    1
    27    10    11    1
    28    11    12    1
    29    12    13    1
    30    13    14    1
    31    14    15    1
    32     7     8   ar
    33     8     9   ar
    34    21    17   ar
    35    35    30   ar
    36     9     4   ar
    37    28    22   ar
    38    15    10    1
    39    13    16    1
@<TRIPOS>MOLECULE
*****
 35 39 0 0 0
SMALL
GASTEIGER

@<TRIPOS>ATOM
      1 O           3.9255   -0.9610   16.2924 O.2     1  UNL1       -0.2662
      2 C           3.7784   -0.5413   17.7250 C.2     1  UNL1        0.2878
      3 N           4.3664   -1.3842   18.8176 N.am    1  UNL1       -0.2468
      4 C           4.2192   -0.9644   20.2502 C.ar    1  UNL1        0.0547
      5 C           2.9905   -1.3461   21.0212 C.ar    1  UNL1        0.0162
      6 C           2.8433   -0.9264   22.4537 C.ar    1  UNL1        0.0158
      7 C           3.9250   -0.1249   23.1153 C.ar    1  UNL1        0.0480
      8 C           5.1538    0.2568   22.3443 C.ar    1  UNL1        0.0158
      9 C           5.3008   -0.1630   20.9118 C.ar    1  UNL1        0.0162
     10 N           3.7779    0.2949   24.5478 N.pl3   1  UNL1       -0.3047
     11 C           3.6697    1.7500   24.8956 C.3     1  UNL1        0.1079
     12 C           3.5226    2.1698   26.3281 C.3     1  UNL1        0.0903
     13 N           3.4838    1.1345   27.4128 N.3     1  UNL1       -0.2946
     14 C           3.5920   -0.3206   27.0651 C.3     1  UNL1        0.0903
     15 C           3.7391   -0.7405   25.6325 C.3     1  UNL1        0.1079
     16 H           2.5975    1.2549   27.9032 H       1  UNL1        0.1233
     17 C           3.0433    0.7212   18.0649 C.ar    1  UNL1        0.1989
     18 C           3.6640    2.0656   18.3049 C.ar    1  UNL1        0.0454
     19 C           2.5628    3.0363   18.6128 C.ar    1  UNL1        0.0408
     20 C           1.2614    2.2921   18.5631 C.ar    1  UNL1        0.1455
     21 O           1.5584    0.8613   18.2244 O.2     1  UNL1       -0.4489
     22 C          -0.0983    2.8760   18.8088 C.ar    1  UNL1        0.0346
     23 C          -0.7632    2.6938   20.1409 C.ar    1  UNL1        0.0039
     24 C          -2.1228    3.2777   20.3866 C.ar    1  UNL1        0.0115
     25 C          -2.8175    4.0439   19.3002 C.ar    1  UNL1        0.0577
     26 CL         -4.1772    4.6279   19.5460 Cl      1  UNL1       -0.0822
     27 C          -2.1526    4.2261   17.9681 C.ar    1  UNL1        0.0115
     28 C          -0.7930    3.6422   17.7224 C.ar    1  UNL1        0.0039
     29 C           5.1014   -2.6467   18.4778 C.3     1  UNL1        0.1442
     30 C           6.4246   -2.9405   19.1205 C.ar    1  UNL1        0.0794
     31 C           7.6700   -2.2792   18.6090 C.ar    1  UNL1        0.0165
     32 C           8.9931   -2.5729   19.2518 C.ar    1  UNL1        0.0029
     33 C           9.0707   -3.5279   20.4060 C.ar    1  UNL1        0.0207
     34 C           7.8253   -4.1892   20.9174 C.ar    1  UNL1        0.0985
     35 N           6.5022   -3.8954   20.2746 N.ar    1  UNL1       -0.2464
@<TRIPOS>BOND
     1     1     2    2
     2     2    17    1
     3    17    18   ar
     4    18    19   ar
     5    19    20   ar
     6    20    22    1
     7    22    23   ar
     8    23    24   ar
     9    24    25   ar
    10    25    26    1
    11    25    27   ar
    12    27    28   ar
    13    20    21   ar
    14     2     3   am
    15     3    29    1
    16    29    30    1
    17    30    31   ar
    18    31    32   ar
    19    32    33   ar
    20    33    34   ar
    21    34    35   ar
    22     3     4    1
    23     4     5   ar
    24     5     6   ar
    25     6     7   ar
    26     7    10    1
    27    10    11    1
    28    11    12    1
    29    12    13    1
    30    13    14    1
    31    14    15    1
    32     7     8   ar
    33     8     9   ar
    34    21    17   ar
    35    35    30   ar
    36     9     4   ar
    37    28    22   ar
    38    15    10    1
    39    13    16    1
@<TRIPOS>MOLECULE
*****
 35 39 0 0 0
SMALL
GASTEIGER

@<TRIPOS>ATOM
      1 O           7.4506   -5.0716   20.8199 O.2     1  UNL1       -0.2662
      2 C           6.5727   -3.9902   21.3764 C.2     1  UNL1        0.2878
      3 N           6.8683   -3.4039   22.7251 N.am    1  UNL1       -0.2468
      4 C           5.9903   -2.3225   23.2816 C.ar    1  UNL1        0.0547
      5 C           6.4416   -0.8927   23.2368 C.ar    1  UNL1        0.0162
      6 C           5.5636    0.1887   23.7933 C.ar    1  UNL1        0.0158
      7 C           4.2343   -0.1597   24.3947 C.ar    1  UNL1        0.0480
      8 C           3.7831   -1.5895   24.4395 C.ar    1  UNL1        0.0158
      9 C           4.6611   -2.6709   23.8829 C.ar    1  UNL1        0.0162
     10 N           3.3563    0.9216   24.9512 N.pl3   1  UNL1       -0.3047
     11 C           2.9822    2.0974   24.0980 C.3     1  UNL1        0.1079
     12 C           2.1042    3.1787   24.6546 C.3     1  UNL1        0.0903
     13 N           1.6002    3.0844   26.0641 N.3     1  UNL1       -0.2946
     14 C           1.9742    1.9087   26.9173 C.3     1  UNL1        0.0903
     15 C           2.8523    0.8273   26.3608 C.3     1  UNL1        0.1079
     16 H           0.5816    3.0998   26.0143 H       1  UNL1        0.1233
     17 C           5.3990   -3.4951   20.5843 C.ar    1  UNL1        0.1989
     18 C           4.6010   -4.2946   19.5974 C.ar    1  UNL1        0.0454
     19 C           3.5261   -3.4072   19.0432 C.ar    1  UNL1        0.0408
     20 C           3.6598   -2.0593   19.6876 C.ar    1  UNL1        0.1455
     21 O           4.8173   -2.1137   20.6401 O.2     1  UNL1       -0.4489
     22 C           2.7888   -0.8665   19.4256 C.ar    1  UNL1        0.0346
     23 C           3.2552    0.2126   18.4939 C.ar    1  UNL1        0.0039
     24 C           2.3843    1.4054   18.2319 C.ar    1  UNL1        0.0115
     25 C           1.0469    1.5191   18.9016 C.ar    1  UNL1        0.0577
     26 CL          0.1760    2.7120   18.6396 Cl      1  UNL1       -0.0822
     27 C           0.5805    0.4401   19.8333 C.ar    1  UNL1        0.0115
     28 C           1.4514   -0.7527   20.0953 C.ar    1  UNL1        0.0039
     29 C           8.0420   -3.8990   23.5172 C.3     1  UNL1        0.1442
     30 C           7.9151   -5.1405   24.3495 C.ar    1  UNL1        0.0794
     31 C           8.5400   -6.4223   23.8842 C.ar    1  UNL1        0.0165
     32 C           8.4132   -7.6638   24.7165 C.ar    1  UNL1        0.0029
     33 C           7.6614   -7.6233   26.0140 C.ar    1  UNL1        0.0207
     34 C           7.0366   -6.3415   26.4792 C.ar    1  UNL1        0.0985
     35 N           7.1634   -5.1001   25.6469 N.ar    1  UNL1       -0.2464
@<TRIPOS>BOND
     1     1     2    2
     2     2    17    1
     3    17    18   ar
     4    18    19   ar
     5    19    20   ar
     6    20    22    1
     7    22    23   ar
     8    23    24   ar
     9    24    25   ar
    10    25    26    1
    11    25    27   ar
    12    27    28   ar
    13    20    21   ar
    14     2     3   am
    15     3    29    1
    16    29    30    1
    17    30    31   ar
    18    31    32   ar
    19    32    33   ar
    20    33    34   ar
    21    34    35   ar
    22     3     4    1
    23     4     5   ar
    24     5     6   ar
    25     6     7   ar
    26     7    10    1
    27    10    11    1
    28    11    12    1
    29    12    13    1
    30    13    14    1
    31    14    15    1
    32     7     8   ar
    33     8     9   ar
    34    21    17   ar
    35    35    30   ar
    36     9     4   ar
    37    28    22   ar
    38    15    10    1
    39    13    16    1
@<TRIPOS>MOLECULE
*****
 35 39 0 0 0
SMALL
GASTEIGER

@<TRIPOS>ATOM
      1 O           0.1853    4.5351   17.2234 O.2     1  UNL1       -0.2662
      2 C           0.6234    3.8511   18.4844 C.2     1  UNL1        0.2878
      3 N          -0.1244    4.0854   19.7635 N.am    1  UNL1       -0.2468
      4 C           0.3138    3.4014   21.0245 C.ar    1  UNL1        0.0547
      5 C           1.2123    4.1143   21.9911 C.ar    1  UNL1        0.0162
      6 C           1.6505    3.4303   23.2521 C.ar    1  UNL1        0.0158
      7 C           1.1902    2.0334   23.5465 C.ar    1  UNL1        0.0480
      8 C           0.2917    1.3205   22.5798 C.ar    1  UNL1        0.0158
      9 C          -0.1465    2.0045   21.3189 C.ar    1  UNL1        0.0162
     10 N           1.6283    1.3494   24.8075 N.pl3   1  UNL1       -0.3047
     11 C           2.8012    0.4144   24.7850 C.3     1  UNL1        0.1079
     12 C           3.2394   -0.2696   26.0459 C.3     1  UNL1        0.0903
     13 N           2.5048   -0.0188   27.3294 N.3     1  UNL1       -0.2946
     14 C           1.3319    0.9161   27.3520 C.3     1  UNL1        0.0903
     15 C           0.8937    1.6002   26.0910 C.3     1  UNL1        0.1079
     16 H           3.1873    0.3490   27.9922 H       1  UNL1        0.1233
     17 C           1.8094    2.9329   18.4664 C.ar    1  UNL1        0.1989
     18 C           3.2418    3.3459   18.3002 C.ar    1  UNL1        0.0454
     19 C           4.0889    2.1087   18.3425 C.ar    1  UNL1        0.0408
     20 C           3.1800    0.9311   18.5348 C.ar    1  UNL1        0.1455
     21 O           1.7712    1.4404   18.6114 O.2     1  UNL1       -0.4489
     22 C           3.6052   -0.5041   18.6333 C.ar    1  UNL1        0.0346
     23 C           4.7515   -1.0051   17.8058 C.ar    1  UNL1        0.0039
     24 C           5.1767   -2.4402   17.9043 C.ar    1  UNL1        0.0115
     25 C           4.4556   -3.3742   18.8304 C.ar    1  UNL1        0.0577
     26 CL          4.8808   -4.8094   18.9289 Cl      1  UNL1       -0.0822
     27 C           3.3093   -2.8732   19.6579 C.ar    1  UNL1        0.0115
     28 C           2.8841   -1.4381   19.5594 C.ar    1  UNL1        0.0039
     29 C          -1.3104    5.0036   19.7815 C.3     1  UNL1        0.1442
     30 C          -2.6898    4.4512   19.5763 C.ar    1  UNL1        0.0794
     31 C          -3.4582    3.9012   20.7412 C.ar    1  UNL1        0.0165
     32 C          -4.8377    3.3487   20.5361 C.ar    1  UNL1        0.0029
     33 C          -5.4485    3.3464   19.1660 C.ar    1  UNL1        0.0207
     34 C          -4.6801    3.8964   18.0012 C.ar    1  UNL1        0.0985
     35 N          -3.3007    4.4488   18.2064 N.ar    1  UNL1       -0.2464
@<TRIPOS>BOND
     1     1     2    2
     2     2    17    1
     3    17    18   ar
     4    18    19   ar
     5    19    20   ar
     6    20    22    1
     7    22    23   ar
     8    23    24   ar
     9    24    25   ar
    10    25    26    1
    11    25    27   ar
    12    27    28   ar
    13    20    21   ar
    14     2     3   am
    15     3    29    1
    16    29    30    1
    17    30    31   ar
    18    31    32   ar
    19    32    33   ar
    20    33    34   ar
    21    34    35   ar
    22     3     4    1
    23     4     5   ar
    24     5     6   ar
    25     6     7   ar
    26     7    10    1
    27    10    11    1
    28    11    12    1
    29    12    13    1
    30    13    14    1
    31    14    15    1
    32     7     8   ar
    33     8     9   ar
    34    21    17   ar
    35    35    30   ar
    36     9     4   ar
    37    28    22   ar
    38    15    10    1
    39    13    16    1
@<TRIPOS>MOLECULE
*****
 35 39 0 0 0
SMALL
GASTEIGER

@<TRIPOS>ATOM
      1 O           1.3217    3.7218   34.5946 O.2     1  UNL1       -0.2662
      2 C           2.2346    2.6559   34.0652 C.2     1  UNL1        0.2878
      3 N           3.3394    2.1190   34.9261 N.am    1  UNL1       -0.2468
      4 C           4.2524    1.0530   34.3966 C.ar    1  UNL1        0.0547
      5 C           3.8791   -0.3928   34.5390 C.ar    1  UNL1        0.0162
      6 C           4.7920   -1.4587   34.0096 C.ar    1  UNL1        0.0158
      7 C           6.0782   -1.0788   33.3377 C.ar    1  UNL1        0.0480
      8 C           6.4515    0.3670   33.1954 C.ar    1  UNL1        0.0158
      9 C           5.5385    1.4329   33.7249 C.ar    1  UNL1        0.0162
     10 N           6.9912   -2.1447   32.8083 N.pl3   1  UNL1       -0.3047
     11 C           8.4784   -1.9764   32.9090 C.3     1  UNL1        0.1079
     12 C           9.3913   -3.0423   32.3795 C.3     1  UNL1        0.0903
     13 N           8.8172   -4.2764   31.7493 N.3     1  UNL1       -0.2946
     14 C           7.3301   -4.4448   31.6486 C.3     1  UNL1        0.0903
     15 C           6.4170   -3.3789   32.1780 C.3     1  UNL1        0.1079
     16 H           9.1678   -5.0708   32.2846 H       1  UNL1        0.1233
     17 C           2.0428    2.1267   32.6748 C.ar    1  UNL1        0.1989
     18 C           0.7896    2.2308   31.8569 C.ar    1  UNL1        0.0454
     19 C           1.0427    1.5690   30.5348 C.ar    1  UNL1        0.0408
     20 C           2.4522    1.0559   30.5355 C.ar    1  UNL1        0.1455
     21 O           3.0703    1.4006   31.8581 O.2     1  UNL1       -0.4489
     22 C           3.1255    0.3262   29.4111 C.ar    1  UNL1        0.0346
     23 C           4.3148   -0.5448   29.6880 C.ar    1  UNL1        0.0039
     24 C           4.9881   -1.2745   28.5636 C.ar    1  UNL1        0.0115
     25 C           4.4720   -1.1330   27.1623 C.ar    1  UNL1        0.0577
     26 CL          5.1453   -1.8627   26.0378 Cl      1  UNL1       -0.0822
     27 C           3.2827   -0.2620   26.8854 C.ar    1  UNL1        0.0115
     28 C           2.6094    0.4677   28.0098 C.ar    1  UNL1        0.0039
     29 C           3.5313    2.6482   36.3165 C.3     1  UNL1        0.1442
     30 C           2.6134    2.2100   37.4190 C.ar    1  UNL1        0.0794
     31 C           2.8424    0.8976   38.1084 C.ar    1  UNL1        0.0165
     32 C           1.9245    0.4595   39.2109 C.ar    1  UNL1        0.0029
     33 C           0.7777    1.3338   39.6241 C.ar    1  UNL1        0.0207
     34 C           0.5488    2.6462   38.9347 C.ar    1  UNL1        0.0985
     35 N           1.4667    3.0843   37.8322 N.ar    1  UNL1       -0.2464
@<TRIPOS>BOND
     1     1     2    2
     2     2    17    1
     3    17    18   ar
     4    18    19   ar
     5    19    20   ar
     6    20    22    1
     7    22    23   ar
     8    23    24   ar
     9    24    25   ar
    10    25    26    1
    11    25    27   ar
    12    27    28   ar
    13    20    21   ar
    14     2     3   am
    15     3    29    1
    16    29    30    1
    17    30    31   ar
    18    31    32   ar
    19    32    33   ar
    20    33    34   ar
    21    34    35   ar
    22     3     4    1
    23     4     5   ar
    24     5     6   ar
    25     6     7   ar
    26     7    10    1
    27    10    11    1
    28    11    12    1
    29    12    13    1
    30    13    14    1
    31    14    15    1
    32     7     8   ar
    33     8     9   ar
    34    21    17   ar
    35    35    30   ar
    36     9     4   ar
    37    28    22   ar
    38    15    10    1
    39    13    16    1
@<TRIPOS>MOLECULE
*****
 35 39 0 0 0
SMALL
GASTEIGER

@<TRIPOS>ATOM
      1 O           4.8003   -2.9855   23.6779 O.2     1  UNL1       -0.2662
      2 C           4.1671   -1.8369   22.9500 C.2     1  UNL1        0.2878
      3 N           4.0849   -1.8520   21.4523 N.am    1  UNL1       -0.2468
      4 C           3.4517   -0.7033   20.7243 C.ar    1  UNL1        0.0547
      5 C           2.0019   -0.7640   20.3441 C.ar    1  UNL1        0.0162
      6 C           1.3687    0.3845   19.6163 C.ar    1  UNL1        0.0158
      7 C           2.1853    1.5938   19.2686 C.ar    1  UNL1        0.0480
      8 C           3.6350    1.6545   19.6488 C.ar    1  UNL1        0.0158
      9 C           4.2682    0.5059   20.3767 C.ar    1  UNL1        0.0162
     10 N           1.5521    2.7424   18.5407 N.pl3   1  UNL1       -0.3047
     11 C           0.1029    2.6808   18.1585 C.3     1  UNL1        0.1079
     12 C          -0.5303    3.8294   17.4306 C.3     1  UNL1        0.0903
     13 N           0.2857    5.0395   17.0849 N.3     1  UNL1       -0.2946
     14 C           1.7349    5.1012   17.4670 C.3     1  UNL1        0.0903
     15 C           2.3682    3.9526   18.1949 C.3     1  UNL1        0.1079
     16 H          -0.1697    5.8378   17.5272 H       1  UNL1        0.1233
     17 C           3.6162   -0.6734   23.7197 C.ar    1  UNL1        0.1989
     18 C           4.4210    0.3786   24.4238 C.ar    1  UNL1        0.0454
     19 C           3.4659    1.3446   25.0598 C.ar    1  UNL1        0.0408
     20 C           2.0708    0.8898   24.7487 C.ar    1  UNL1        0.1455
     21 O           2.1637   -0.3574   23.9205 O.2     1  UNL1       -0.4489
     22 C           0.8049    1.5638   25.1887 C.ar    1  UNL1        0.0346
     23 C           0.3267    1.4122   26.6022 C.ar    1  UNL1        0.0039
     24 C          -0.9391    2.0862   27.0421 C.ar    1  UNL1        0.0115
     25 C          -1.7266    2.9118   26.0684 C.ar    1  UNL1        0.0577
     26 CL         -2.9924    3.5858   26.5083 Cl      1  UNL1       -0.0822
     27 C          -1.2484    3.0634   24.6548 C.ar    1  UNL1        0.0115
     28 C           0.0174    2.3894   24.2149 C.ar    1  UNL1        0.0039
     29 C           4.6359   -3.0155   20.6825 C.3     1  UNL1        0.1442
     30 C           6.0955   -3.0649   20.3404 C.ar    1  UNL1        0.0794
     31 C           6.6296   -2.2344   19.2112 C.ar    1  UNL1        0.0165
     32 C           8.0892   -2.2838   18.8691 C.ar    1  UNL1        0.0029
     33 C           9.0147   -3.1636   19.6562 C.ar    1  UNL1        0.0207
     34 C           8.4806   -3.9941   20.7853 C.ar    1  UNL1        0.0985
     35 N           7.0210   -3.9447   21.1274 N.ar    1  UNL1       -0.2464
@<TRIPOS>BOND
     1     1     2    2
     2     2    17    1
     3    17    18   ar
     4    18    19   ar
     5    19    20   ar
     6    20    22    1
     7    22    23   ar
     8    23    24   ar
     9    24    25   ar
    10    25    26    1
    11    25    27   ar
    12    27    28   ar
    13    20    21   ar
    14     2     3   am
    15     3    29    1
    16    29    30    1
    17    30    31   ar
    18    31    32   ar
    19    32    33   ar
    20    33    34   ar
    21    34    35   ar
    22     3     4    1
    23     4     5   ar
    24     5     6   ar
    25     6     7   ar
    26     7    10    1
    27    10    11    1
    28    11    12    1
    29    12    13    1
    30    13    14    1
    31    14    15    1
    32     7     8   ar
    33     8     9   ar
    34    21    17   ar
    35    35    30   ar
    36     9     4   ar
    37    28    22   ar
    38    15    10    1
    39    13    16    1
@<TRIPOS>MOLECULE
*****
 35 39 0 0 0
SMALL
GASTEIGER

@<TRIPOS>ATOM
      1 O           5.9581   -0.6390   22.5055 O.2     1  UNL1       -0.2662
      2 C           4.6618    0.0869   22.2994 C.2     1  UNL1        0.2878
      3 N           4.0486    0.1533   20.9320 N.am    1  UNL1       -0.2468
      4 C           2.7521    0.8792   20.7259 C.ar    1  UNL1        0.0547
      5 C           2.7504    2.3624   20.5021 C.ar    1  UNL1        0.0162
      6 C           1.4541    3.0883   20.2960 C.ar    1  UNL1        0.0158
      7 C           0.1594    2.3310   20.3137 C.ar    1  UNL1        0.0480
      8 C           0.1612    0.8478   20.5375 C.ar    1  UNL1        0.0158
      9 C           1.4576    0.1219   20.7436 C.ar    1  UNL1        0.0162
     10 N          -1.1370    3.0568   20.1075 N.pl3   1  UNL1       -0.3047
     11 C          -2.0997    3.2110   21.2475 C.3     1  UNL1        0.1079
     12 C          -3.3961    3.9369   21.0414 C.3     1  UNL1        0.0903
     13 N          -3.7298    4.5085   19.6954 N.3     1  UNL1       -0.2946
     14 C          -2.7672    4.3543   18.5554 C.3     1  UNL1        0.0903
     15 C          -1.4707    3.6284   18.7615 C.3     1  UNL1        0.1079
     16 H          -3.8716    5.5099   19.8277 H       1  UNL1        0.1233
     17 C           3.9786    0.7464   23.4605 C.ar    1  UNL1        0.1989
     18 C           4.2567    2.1261   23.9795 C.ar    1  UNL1        0.0454
     19 C           3.3473    2.3744   25.1463 C.ar    1  UNL1        0.0408
     20 C           2.5073    1.1483   25.3485 C.ar    1  UNL1        0.1455
     21 O           2.8975    0.1421   24.3066 O.2     1  UNL1       -0.4489
     22 C           1.4608    0.9611   26.4068 C.ar    1  UNL1        0.0346
     23 C           1.7928    0.2177   27.6666 C.ar    1  UNL1        0.0039
     24 C           0.7463    0.0306   28.7248 C.ar    1  UNL1        0.0115
     25 C          -0.6321    0.5867   28.5232 C.ar    1  UNL1        0.0577
     26 CL         -1.6786    0.3996   29.5815 Cl      1  UNL1       -0.0822
     27 C          -0.9641    1.3301   27.2633 C.ar    1  UNL1        0.0115
     28 C           0.0824    1.5172   26.2051 C.ar    1  UNL1        0.0039
     29 C           4.7317   -0.5062   19.7709 C.3     1  UNL1        0.1442
     30 C           4.6323   -1.9916   19.5872 C.ar    1  UNL1        0.0794
     31 C           3.3321   -2.6098   19.1659 C.ar    1  UNL1        0.0165
     32 C           3.2327   -4.0952   18.9821 C.ar    1  UNL1        0.0029
     33 C           4.4334   -4.9623   19.2197 C.ar    1  UNL1        0.0207
     34 C           5.7335   -4.3441   19.6410 C.ar    1  UNL1        0.0985
     35 N           5.8330   -2.8587   19.8247 N.ar    1  UNL1       -0.2464
@<TRIPOS>BOND
     1     1     2    2
     2     2    17    1
     3    17    18   ar
     4    18    19   ar
     5    19    20   ar
     6    20    22    1
     7    22    23   ar
     8    23    24   ar
     9    24    25   ar
    10    25    26    1
    11    25    27   ar
    12    27    28   ar
    13    20    21   ar
    14     2     3   am
    15     3    29    1
    16    29    30    1
    17    30    31   ar
    18    31    32   ar
    19    32    33   ar
    20    33    34   ar
    21    34    35   ar
    22     3     4    1
    23     4     5   ar
    24     5     6   ar
    25     6     7   ar
    26     7    10    1
    27    10    11    1
    28    11    12    1
    29    12    13    1
    30    13    14    1
    31    14    15    1
    32     7     8   ar
    33     8     9   ar
    34    21    17   ar
    35    35    30   ar
    36     9     4   ar
    37    28    22   ar
    38    15    10    1
    39    13    16    1
