@<TRIPOS>MOLECULE
*****
 38 41 0 0 0
SMALL
GASTEIGER

@<TRIPOS>ATOM
      1 C         -10.1618  -20.6740   25.0914 C.3     1  UNL1        0.1152
      2 N          -9.5981  -19.5961   24.2138 N.am    1  UNL1       -0.2740
      3 C          -8.5559  -19.9322   23.1886 C.2     1  UNL1        0.2303
      4 O          -8.0775  -21.3462   23.0411 O.2     1  UNL1       -0.2745
      5 C          -7.9921  -18.8543   22.3110 C.3     1  UNL1        0.1116
      6 C          -6.7326  -19.1014   21.5346 C.ar    1  UNL1       -0.0131
      7 C          -5.5117  -19.6234   22.2323 C.ar    1  UNL1       -0.0041
      8 C          -4.2523  -19.8705   21.4559 C.ar    1  UNL1       -0.0032
      9 C          -4.2138  -19.5956   19.9818 C.ar    1  UNL1       -0.0048
     10 C          -5.4348  -19.0737   19.2841 C.ar    1  UNL1       -0.0032
     11 C          -6.6942  -18.8266   20.0605 C.ar    1  UNL1       -0.0041
     12 C          -2.9543  -19.8428   19.2055 C.3     1  UNL1        0.1174
     13 N          -1.8809  -18.7959   19.1646 N.3     1  UNL1       -0.1785
     14 H          -1.9581  -18.3301   18.2604 H       1  UNL1        0.1488
     15 S          -1.8456  -17.7168   20.2059 S.O2    1  UNL1        0.0458
     16 O          -0.8931  -18.5374   21.0239 O.2     1  UNL1       -0.1572
     17 O          -2.7981  -16.8961   19.3879 O.2     1  UNL1       -0.1572
     18 C          -1.8102  -16.6377   21.2472 C.3     1  UNL1        0.2016
     19 C          -2.7645  -16.6800   22.4038 C.ar    1  UNL1        0.0325
     20 C          -2.7388  -17.6677   23.5324 C.ar    1  UNL1        0.0045
     21 C          -3.8704  -17.3402   24.4610 C.ar    1  UNL1        0.0072
     22 C          -4.5954  -16.1500   23.9062 C.ar    1  UNL1        0.0352
     23 S          -3.9119  -15.7420   22.6349 S.2     1  UNL1       -0.0890
     24 C         -10.0764  -18.1821   24.3613 C.3     1  UNL1        0.1138
     25 C          -9.3013  -17.2121   25.2027 C.ar    1  UNL1       -0.0029
     26 C          -9.1551  -17.4478   26.6768 C.ar    1  UNL1       -0.0026
     27 C          -8.3799  -16.4777   27.5183 C.ar    1  UNL1       -0.0003
     28 C          -7.7509  -15.2719   26.8856 C.ar    1  UNL1       -0.0000
     29 C          -7.8971  -15.0361   25.4114 C.ar    1  UNL1       -0.0003
     30 C          -8.6723  -16.0062   24.5700 C.ar    1  UNL1       -0.0026
     31 C         -11.3301  -17.7382   23.6674 C.3     1  UNL1        0.0968
     32 N         -11.3085  -17.4413   22.1972 N.3     1  UNL1       -0.2689
     33 C         -11.4948  -18.4395   21.0932 C.3     1  UNL1        0.0748
     34 C         -11.3983  -17.7091   19.7866 C.3     1  UNL1        0.0480
     35 C         -11.1524  -16.2594   20.0831 C.3     1  UNL1        0.1278
     36 O         -10.9904  -15.1670   19.0680 O.3     1  UNL1       -0.3830
     37 C         -11.0969  -16.0939   21.5729 C.3     1  UNL1        0.1017
     38 H         -10.8419  -14.3229   19.5223 H       1  UNL1        0.2104
@<TRIPOS>BOND
     1     1     2    1
     2     2     3   am
     3     3     4    2
     4     3     5    1
     5     5     6    1
     6     6     7   ar
     7     7     8   ar
     8     8     9   ar
     9     9    12    1
    10    12    13    1
    11    13    15    1
    12    15    16    2
    13    15    17    2
    14    15    18    1
    15    18    19    1
    16    19    20   ar
    17    20    21   ar
    18    21    22   ar
    19    22    23   ar
    20     9    10   ar
    21    10    11   ar
    22     2    24    1
    23    24    31    1
    24    31    32    1
    25    32    33    1
    26    33    34    1
    27    34    35    1
    28    35    36    1
    29    35    37    1
    30    24    25    1
    31    25    26   ar
    32    26    27   ar
    33    27    28   ar
    34    28    29   ar
    35    29    30   ar
    36    11     6   ar
    37    37    32    1
    38    30    25   ar
    39    23    19   ar
    40    13    14    1
    41    36    38    1
@<TRIPOS>MOLECULE
*****
 38 41 0 0 0
SMALL
GASTEIGER

@<TRIPOS>ATOM
      1 C          -8.5527  -15.8419   27.1298 C.3     1  UNL1        0.1152
      2 N          -8.1332  -15.8909   25.6905 N.am    1  UNL1       -0.2740
      3 C          -6.7724  -15.4037   25.2889 C.2     1  UNL1        0.2303
      4 O          -5.8314  -14.8675   26.3267 O.2     1  UNL1       -0.2745
      5 C          -6.3529  -15.4527   23.8497 C.3     1  UNL1        0.1116
      6 C          -5.0668  -16.1226   23.4657 C.ar    1  UNL1       -0.0131
      7 C          -4.0196  -15.3590   22.7107 C.ar    1  UNL1       -0.0041
      8 C          -2.7337  -16.0289   22.3267 C.ar    1  UNL1       -0.0032
      9 C          -2.4950  -17.4626   22.6978 C.ar    1  UNL1       -0.0048
     10 C          -3.5422  -18.2262   23.4529 C.ar    1  UNL1       -0.0032
     11 C          -4.8281  -17.5563   23.8368 C.ar    1  UNL1       -0.0041
     12 C          -1.2089  -18.1325   22.3139 C.3     1  UNL1        0.1174
     13 N          -0.9641  -18.5238   20.8867 N.3     1  UNL1       -0.1785
     14 H          -0.1224  -19.1000   20.8796 H       1  UNL1        0.1488
     15 S          -2.0128  -19.2798   20.1258 S.O2    1  UNL1        0.0458
     16 O          -2.0257  -18.2067   19.0777 O.2     1  UNL1       -0.1572
     17 O          -1.9998  -20.3528   21.1738 O.2     1  UNL1       -0.1572
     18 C          -3.0614  -20.0356   19.3648 C.3     1  UNL1        0.2016
     19 C          -4.5043  -19.9172   19.7573 C.ar    1  UNL1        0.0325
     20 C          -5.2769  -18.6396   19.9014 C.ar    1  UNL1        0.0045
     21 C          -6.6780  -18.9885   20.3077 C.ar    1  UNL1        0.0072
     22 C          -6.7714  -20.4817   20.4147 C.ar    1  UNL1        0.0352
     23 S          -5.4280  -21.0557   20.0745 S.2     1  UNL1       -0.0890
     24 C          -9.0742  -16.4271   24.6528 C.3     1  UNL1        0.1138
     25 C          -9.1998  -17.9076   24.4476 C.ar    1  UNL1       -0.0029
     26 C          -8.4891  -18.5692   23.3044 C.ar    1  UNL1       -0.0026
     27 C          -8.6147  -20.0499   23.0991 C.ar    1  UNL1       -0.0003
     28 C          -9.4511  -20.8688   24.0371 C.ar    1  UNL1       -0.0000
     29 C         -10.1618  -20.2070   25.1804 C.ar    1  UNL1       -0.0003
     30 C         -10.0362  -18.7265   25.3856 C.ar    1  UNL1       -0.0026
     31 C          -9.8897  -15.4826   23.8202 C.3     1  UNL1        0.0968
     32 N         -10.8093  -16.0176   22.7629 N.3     1  UNL1       -0.2689
     33 C         -12.1420  -16.6644   22.9984 C.3     1  UNL1        0.0748
     34 C         -12.7141  -17.0463   21.6654 C.3     1  UNL1        0.0480
     35 C         -11.7350  -16.6354   20.6059 C.3     1  UNL1        0.1278
     36 O         -11.9034  -16.8268   19.1278 O.3     1  UNL1       -0.3830
     37 C         -10.5578  -15.9997   21.2842 C.3     1  UNL1        0.1017
     38 H         -11.1272  -16.4736   18.6655 H       1  UNL1        0.2104
@<TRIPOS>BOND
     1     1     2    1
     2     2     3   am
     3     3     4    2
     4     3     5    1
     5     5     6    1
     6     6     7   ar
     7     7     8   ar
     8     8     9   ar
     9     9    12    1
    10    12    13    1
    11    13    15    1
    12    15    16    2
    13    15    17    2
    14    15    18    1
    15    18    19    1
    16    19    20   ar
    17    20    21   ar
    18    21    22   ar
    19    22    23   ar
    20     9    10   ar
    21    10    11   ar
    22     2    24    1
    23    24    31    1
    24    31    32    1
    25    32    33    1
    26    33    34    1
    27    34    35    1
    28    35    36    1
    29    35    37    1
    30    24    25    1
    31    25    26   ar
    32    26    27   ar
    33    27    28   ar
    34    28    29   ar
    35    29    30   ar
    36    11     6   ar
    37    37    32    1
    38    30    25   ar
    39    23    19   ar
    40    13    14    1
    41    36    38    1
@<TRIPOS>MOLECULE
*****
 38 41 0 0 0
SMALL
GASTEIGER

@<TRIPOS>ATOM
      1 C         -11.1829  -17.5217   20.1024 C.3     1  UNL1        0.1152
      2 N         -10.1393  -18.2710   20.8765 N.am    1  UNL1       -0.2740
      3 C          -9.1633  -19.1552   20.1583 C.2     1  UNL1        0.2303
      4 O          -9.2310  -19.2900   18.6659 O.2     1  UNL1       -0.2745
      5 C          -8.1197  -19.9045   20.9325 C.3     1  UNL1        0.1116
      6 C          -6.6893  -19.8796   20.4816 C.ar    1  UNL1       -0.0131
      7 C          -6.0538  -18.5834   20.0742 C.ar    1  UNL1       -0.0041
      8 C          -4.6234  -18.5585   19.6234 C.ar    1  UNL1       -0.0032
      9 C          -3.8285  -19.8298   19.5798 C.ar    1  UNL1       -0.0048
     10 C          -4.4640  -21.1260   19.9872 C.ar    1  UNL1       -0.0032
     11 C          -5.8944  -21.1509   20.4381 C.ar    1  UNL1       -0.0041
     12 C          -2.3980  -19.8049   19.1289 C.3     1  UNL1        0.1174
     13 N          -1.6711  -18.4981   19.0123 N.3     1  UNL1       -0.1785
     14 H          -2.0802  -18.0032   18.2198 H       1  UNL1        0.1488
     15 S          -1.6639  -17.5384   20.1652 S.O2    1  UNL1        0.0458
     16 O          -2.5065  -16.5821   19.3743 O.2     1  UNL1       -0.1572
     17 O          -0.8212  -18.4946   20.9560 O.2     1  UNL1       -0.1572
     18 C          -1.6567  -16.5787   21.3179 C.3     1  UNL1        0.2016
     19 C          -2.7293  -16.6545   22.3637 C.ar    1  UNL1        0.0325
     20 C          -3.6770  -15.5531   22.7363 C.ar    1  UNL1        0.0045
     21 C          -4.5760  -16.0630   23.8234 C.ar    1  UNL1        0.0072
     22 C          -4.1840  -17.4796   24.1227 C.ar    1  UNL1        0.0352
     23 S          -3.0427  -17.8452   23.2205 S.2     1  UNL1       -0.0890
     24 C         -10.0716  -18.1362   22.3689 C.3     1  UNL1        0.1138
     25 C          -9.2901  -17.0144   22.9860 C.ar    1  UNL1       -0.0029
     26 C          -9.3439  -16.7893   24.4680 C.ar    1  UNL1       -0.0026
     27 C          -8.5623  -15.6675   25.0851 C.ar    1  UNL1       -0.0003
     28 C          -7.7269  -14.7709   24.2202 C.ar    1  UNL1       -0.0000
     29 C          -7.6731  -14.9960   22.7381 C.ar    1  UNL1       -0.0003
     30 C          -8.4547  -16.1178   22.1210 C.ar    1  UNL1       -0.0026
     31 C         -10.7855  -19.1232   23.2443 C.3     1  UNL1        0.0968
     32 N         -12.1196  -18.7743   23.8348 N.3     1  UNL1       -0.2689
     33 C         -13.2394  -18.0696   23.1283 C.3     1  UNL1        0.0748
     34 C         -14.3799  -17.9287   24.0923 C.3     1  UNL1        0.0480
     35 C         -13.9649  -18.5464   25.3947 C.3     1  UNL1        0.1278
     36 O         -14.8002  -18.6272   26.6380 O.3     1  UNL1       -0.3830
     37 C         -12.5680  -19.0690   25.2355 C.3     1  UNL1        0.1017
     38 H         -14.2975  -19.0744   27.3368 H       1  UNL1        0.2104
@<TRIPOS>BOND
     1     1     2    1
     2     2     3   am
     3     3     4    2
     4     3     5    1
     5     5     6    1
     6     6     7   ar
     7     7     8   ar
     8     8     9   ar
     9     9    12    1
    10    12    13    1
    11    13    15    1
    12    15    16    2
    13    15    17    2
    14    15    18    1
    15    18    19    1
    16    19    20   ar
    17    20    21   ar
    18    21    22   ar
    19    22    23   ar
    20     9    10   ar
    21    10    11   ar
    22     2    24    1
    23    24    31    1
    24    31    32    1
    25    32    33    1
    26    33    34    1
    27    34    35    1
    28    35    36    1
    29    35    37    1
    30    24    25    1
    31    25    26   ar
    32    26    27   ar
    33    27    28   ar
    34    28    29   ar
    35    29    30   ar
    36    11     6   ar
    37    37    32    1
    38    30    25   ar
    39    23    19   ar
    40    13    14    1
    41    36    38    1
@<TRIPOS>MOLECULE
*****
 38 41 0 0 0
SMALL
GASTEIGER

@<TRIPOS>ATOM
      1 C         -11.3888  -17.0499   19.7700 C.3     1  UNL1        0.1152
      2 N         -10.5123  -17.6975   20.8007 N.am    1  UNL1       -0.2740
      3 C          -9.6109  -18.8321   20.4129 C.2     1  UNL1        0.2303
      4 O          -9.5861  -19.3190   18.9943 O.2     1  UNL1       -0.2745
      5 C          -8.7345  -19.4797   21.4436 C.3     1  UNL1        0.1116
      6 C          -7.2647  -19.6357   21.1872 C.ar    1  UNL1       -0.0131
      7 C          -6.3738  -20.2034   22.2521 C.ar    1  UNL1       -0.0041
      8 C          -4.9042  -20.3594   21.9957 C.ar    1  UNL1       -0.0032
      9 C          -4.3255  -19.9478   20.6745 C.ar    1  UNL1       -0.0048
     10 C          -5.2164  -19.3801   19.6096 C.ar    1  UNL1       -0.0032
     11 C          -6.6860  -19.2241   19.8660 C.ar    1  UNL1       -0.0041
     12 C          -2.8557  -20.1038   20.4181 C.3     1  UNL1        0.1174
     13 N          -1.9981  -18.8913   20.2081 N.3     1  UNL1       -0.1785
     14 H          -2.2259  -18.5261   19.2834 H       1  UNL1        0.1488
     15 S          -2.0842  -17.7373   21.1627 S.O2    1  UNL1        0.0458
     16 O          -1.4770  -18.5844   22.2414 O.2     1  UNL1       -0.1572
     17 O          -2.6913  -16.8902   20.0839 O.2     1  UNL1       -0.1572
     18 C          -2.1702  -16.5835   22.1172 C.3     1  UNL1        0.2016
     19 C          -3.4364  -16.3358   22.8823 C.ar    1  UNL1        0.0325
     20 C          -4.1498  -17.3285   23.7516 C.ar    1  UNL1        0.0045
     21 C          -5.3658  -16.6582   24.3190 C.ar    1  UNL1        0.0072
     22 C          -5.4039  -15.2512   23.8005 C.ar    1  UNL1        0.0352
     23 S          -4.2115  -15.0519   22.9126 S.2     1  UNL1       -0.0890
     24 C         -10.5371  -17.2106   22.2192 C.3     1  UNL1        0.1138
     25 C         -11.6256  -17.6609   23.1479 C.ar    1  UNL1       -0.0029
     26 C         -13.0230  -17.1450   22.9714 C.ar    1  UNL1       -0.0026
     27 C         -14.1116  -17.5953   23.9001 C.ar    1  UNL1       -0.0003
     28 C         -13.8027  -18.5615   25.0051 C.ar    1  UNL1       -0.0000
     29 C         -12.4052  -19.0774   25.1815 C.ar    1  UNL1       -0.0003
     30 C         -11.3167  -18.6271   24.2529 C.ar    1  UNL1       -0.0026
     31 C          -9.4734  -16.2732   22.7092 C.3     1  UNL1        0.0968
     32 N          -9.0781  -16.2779   24.1562 N.3     1  UNL1       -0.2689
     33 C          -8.8288  -17.4940   24.9981 C.3     1  UNL1        0.0748
     34 C          -8.4594  -17.0350   26.3776 C.3     1  UNL1        0.0480
     35 C          -8.4804  -15.5351   26.3881 C.3     1  UNL1        0.1278
     36 O          -8.1730  -14.6573   27.5650 O.3     1  UNL1       -0.3830
     37 C          -8.8628  -15.0673   25.0152 C.3     1  UNL1        0.1017
     38 H          -8.2588  -13.7267   27.3053 H       1  UNL1        0.2104
@<TRIPOS>BOND
     1     1     2    1
     2     2     3   am
     3     3     4    2
     4     3     5    1
     5     5     6    1
     6     6     7   ar
     7     7     8   ar
     8     8     9   ar
     9     9    12    1
    10    12    13    1
    11    13    15    1
    12    15    16    2
    13    15    17    2
    14    15    18    1
    15    18    19    1
    16    19    20   ar
    17    20    21   ar
    18    21    22   ar
    19    22    23   ar
    20     9    10   ar
    21    10    11   ar
    22     2    24    1
    23    24    31    1
    24    31    32    1
    25    32    33    1
    26    33    34    1
    27    34    35    1
    28    35    36    1
    29    35    37    1
    30    24    25    1
    31    25    26   ar
    32    26    27   ar
    33    27    28   ar
    34    28    29   ar
    35    29    30   ar
    36    11     6   ar
    37    37    32    1
    38    30    25   ar
    39    23    19   ar
    40    13    14    1
    41    36    38    1
@<TRIPOS>MOLECULE
*****
 38 41 0 0 0
SMALL
GASTEIGER

@<TRIPOS>ATOM
      1 C           8.5091   -1.7591   26.3899 C.3     1  UNL1        0.1152
      2 N           7.2293   -2.4373   26.0001 N.am    1  UNL1       -0.2740
      3 C           6.2454   -1.7310   25.1151 C.2     1  UNL1        0.2303
      4 O           6.5414   -0.3463   24.6200 O.2     1  UNL1       -0.2745
      5 C           4.9656   -2.4092   24.7253 C.3     1  UNL1        0.1116
      6 C           4.5818   -2.5125   23.2788 C.ar    1  UNL1       -0.0131
      7 C           5.0336   -3.6888   22.4652 C.ar    1  UNL1       -0.0041
      8 C           4.6499   -3.7920   21.0188 C.ar    1  UNL1       -0.0032
      9 C           3.8143   -2.7190   20.3861 C.ar    1  UNL1       -0.0048
     10 C           3.3624   -1.5427   21.1998 C.ar    1  UNL1       -0.0032
     11 C           3.7462   -1.4394   22.6462 C.ar    1  UNL1       -0.0041
     12 C           3.4305   -2.8222   18.9397 C.3     1  UNL1        0.1174
     13 N           4.1107   -1.9581   17.9197 N.3     1  UNL1       -0.1785
     14 H           3.5659   -1.0984   17.8516 H       1  UNL1        0.1488
     15 S           5.5408   -1.5500   18.1162 S.O2    1  UNL1        0.0458
     16 O           5.0954   -0.1646   18.4799 O.2     1  UNL1       -0.1572
     17 O           5.9862   -2.9353   17.7525 O.2     1  UNL1       -0.1572
     18 C           6.9707   -1.1419   18.3127 C.3     1  UNL1        0.2016
     19 C           7.7252   -1.6106   19.5215 C.ar    1  UNL1        0.0325
     20 C           8.8624   -2.5887   19.5265 C.ar    1  UNL1        0.0045
     21 C           9.3149   -2.7662   20.9456 C.ar    1  UNL1        0.0072
     22 C           8.4573   -1.8978   21.8176 C.ar    1  UNL1        0.0352
     23 S           7.4748   -1.1837   20.9375 S.2     1  UNL1       -0.0890
     24 C           6.9333   -3.8220   26.4952 C.3     1  UNL1        0.1138
     25 C           7.3891   -5.0138   25.7068 C.ar    1  UNL1       -0.0029
     26 C           7.9867   -4.8274   24.3437 C.ar    1  UNL1       -0.0026
     27 C           8.4427   -6.0193   23.5553 C.ar    1  UNL1       -0.0003
     28 C           8.3009   -7.3976   24.1300 C.ar    1  UNL1       -0.0000
     29 C           7.7033   -7.5840   25.4931 C.ar    1  UNL1       -0.0003
     30 C           7.2474   -6.3921   26.2815 C.ar    1  UNL1       -0.0026
     31 C           6.1813   -4.0147   27.7788 C.3     1  UNL1        0.0968
     32 N           6.9267   -4.2978   29.0494 N.3     1  UNL1       -0.2689
     33 C           7.8918   -3.3731   29.7301 C.3     1  UNL1        0.0748
     34 C           8.3994   -4.0590   30.9637 C.3     1  UNL1        0.0480
     35 C           7.7479   -5.4077   31.0454 C.3     1  UNL1        0.1278
     36 O           7.9680   -6.4295   32.1214 O.3     1  UNL1       -0.3830
     37 C           6.8377   -5.5552   29.8623 C.3     1  UNL1        0.1017
     38 H           7.4270   -7.2135   31.9382 H       1  UNL1        0.2104
@<TRIPOS>BOND
     1     1     2    1
     2     2     3   am
     3     3     4    2
     4     3     5    1
     5     5     6    1
     6     6     7   ar
     7     7     8   ar
     8     8     9   ar
     9     9    12    1
    10    12    13    1
    11    13    15    1
    12    15    16    2
    13    15    17    2
    14    15    18    1
    15    18    19    1
    16    19    20   ar
    17    20    21   ar
    18    21    22   ar
    19    22    23   ar
    20     9    10   ar
    21    10    11   ar
    22     2    24    1
    23    24    31    1
    24    31    32    1
    25    32    33    1
    26    33    34    1
    27    34    35    1
    28    35    36    1
    29    35    37    1
    30    24    25    1
    31    25    26   ar
    32    26    27   ar
    33    27    28   ar
    34    28    29   ar
    35    29    30   ar
    36    11     6   ar
    37    37    32    1
    38    30    25   ar
    39    23    19   ar
    40    13    14    1
    41    36    38    1
@<TRIPOS>MOLECULE
*****
 38 41 0 0 0
SMALL
GASTEIGER

@<TRIPOS>ATOM
      1 C         -11.8427  -15.8904   19.3963 C.3     1  UNL1        0.1152
      2 N         -11.3946  -16.9567   20.3512 N.am    1  UNL1       -0.2740
      3 C         -11.2325  -18.3700   19.8752 C.2     1  UNL1        0.2303
      4 O         -11.5186  -18.7168   18.4441 O.2     1  UNL1       -0.2745
      5 C         -10.7843  -19.4363   20.8301 C.3     1  UNL1        0.1116
      6 C          -9.3289  -19.5814   21.1632 C.ar    1  UNL1       -0.0131
      7 C          -8.9152  -20.0858   22.5139 C.ar    1  UNL1       -0.0041
      8 C          -7.4599  -20.2308   22.8468 C.ar    1  UNL1       -0.0032
      9 C          -6.4182  -19.8715   21.8291 C.ar    1  UNL1       -0.0048
     10 C          -6.8319  -19.3672   20.4784 C.ar    1  UNL1       -0.0032
     11 C          -8.2872  -19.2221   20.1454 C.ar    1  UNL1       -0.0041
     12 C          -4.9628  -20.0166   22.1621 C.3     1  UNL1        0.1174
     13 N          -4.2881  -19.0000   23.0344 N.3     1  UNL1       -0.1785
     14 H          -3.8752  -19.5098   23.8155 H       1  UNL1        0.1488
     15 S          -3.2086  -18.1250   22.4694 S.O2    1  UNL1        0.0458
     16 O          -2.4157  -19.3430   22.0983 O.2     1  UNL1       -0.1572
     17 O          -4.0015  -16.9070   22.8405 O.2     1  UNL1       -0.1572
     18 C          -2.1291  -17.2501   21.9044 C.3     1  UNL1        0.2016
     19 C          -1.6752  -17.4395   20.4873 C.ar    1  UNL1        0.0325
     20 C          -0.2598  -17.6442   20.0347 C.ar    1  UNL1        0.0045
     21 C          -0.2668  -17.7886   18.5417 C.ar    1  UNL1        0.0072
     22 C          -1.6865  -17.6731   18.0715 C.ar    1  UNL1        0.0352
     23 S          -2.5569  -17.4573   19.2739 S.2     1  UNL1       -0.0890
     24 C         -11.1084  -16.6099   21.7823 C.3     1  UNL1        0.1138
     25 C         -11.8350  -17.3201   22.8858 C.ar    1  UNL1       -0.0029
     26 C         -11.0648  -18.0954   23.9132 C.ar    1  UNL1       -0.0026
     27 C         -11.7913  -18.8056   25.0168 C.ar    1  UNL1       -0.0003
     28 C         -13.2880  -18.7405   25.0929 C.ar    1  UNL1       -0.0000
     29 C         -14.0581  -17.9651   24.0653 C.ar    1  UNL1       -0.0003
     30 C         -13.3316  -17.2549   22.9618 C.ar    1  UNL1       -0.0026
     31 C         -10.0957  -15.5529   22.1097 C.3     1  UNL1        0.0968
     32 N          -9.0156  -15.8339   23.1118 N.3     1  UNL1       -0.2689
     33 C          -7.7247  -16.5479   22.8399 C.3     1  UNL1        0.0748
     34 C          -6.9479  -16.6056   24.1219 C.3     1  UNL1        0.0480
     35 C          -7.7587  -15.9272   25.1860 C.3     1  UNL1        0.1278
     36 O          -7.3614  -15.7559   26.6223 O.3     1  UNL1       -0.3830
     37 C          -9.0366  -15.4504   24.5618 C.3     1  UNL1        0.1017
     38 H          -8.0628  -15.2837   27.0976 H       1  UNL1        0.2104
@<TRIPOS>BOND
     1     1     2    1
     2     2     3   am
     3     3     4    2
     4     3     5    1
     5     5     6    1
     6     6     7   ar
     7     7     8   ar
     8     8     9   ar
     9     9    12    1
    10    12    13    1
    11    13    15    1
    12    15    16    2
    13    15    17    2
    14    15    18    1
    15    18    19    1
    16    19    20   ar
    17    20    21   ar
    18    21    22   ar
    19    22    23   ar
    20     9    10   ar
    21    10    11   ar
    22     2    24    1
    23    24    31    1
    24    31    32    1
    25    32    33    1
    26    33    34    1
    27    34    35    1
    28    35    36    1
    29    35    37    1
    30    24    25    1
    31    25    26   ar
    32    26    27   ar
    33    27    28   ar
    34    28    29   ar
    35    29    30   ar
    36    11     6   ar
    37    37    32    1
    38    30    25   ar
    39    23    19   ar
    40    13    14    1
    41    36    38    1
@<TRIPOS>MOLECULE
*****
 38 41 0 0 0
SMALL
GASTEIGER

@<TRIPOS>ATOM
      1 C           4.2874    2.2724   18.4346 C.3     1  UNL1        0.1152
      2 N           3.8175    1.2162   19.3904 N.am    1  UNL1       -0.2740
      3 C           4.1161    1.3434   20.8549 C.2     1  UNL1        0.2303
      4 O           4.8846    2.5270   21.3635 O.2     1  UNL1       -0.2745
      5 C           3.6462    0.2872   21.8107 C.3     1  UNL1        0.1116
      6 C           4.5352   -0.8753   22.1401 C.ar    1  UNL1       -0.0131
      7 C           3.9735   -2.0715   22.8497 C.ar    1  UNL1       -0.0041
      8 C           4.8624   -3.2339   23.1790 C.ar    1  UNL1       -0.0032
      9 C           6.3130   -3.2002   22.7988 C.ar    1  UNL1       -0.0048
     10 C           6.8747   -2.0040   22.0891 C.ar    1  UNL1       -0.0032
     11 C           5.9858   -0.8415   21.7598 C.ar    1  UNL1       -0.0041
     12 C           7.2020   -4.3627   23.1282 C.3     1  UNL1        0.1174
     13 N           7.9121   -4.4133   24.4484 N.3     1  UNL1       -0.1785
     14 H           8.0656   -3.4472   24.7374 H       1  UNL1        0.1488
     15 S           7.2817   -5.1187   25.6125 S.O2    1  UNL1        0.0458
     16 O           7.0591   -3.7997   26.2911 O.2     1  UNL1       -0.1572
     17 O           7.5044   -6.4377   24.9340 O.2     1  UNL1       -0.1572
     18 C           6.6514   -5.8240   26.7767 C.3     1  UNL1        0.2016
     19 C           7.4012   -5.9559   28.0691 C.ar    1  UNL1        0.0325
     20 C           8.7768   -6.5301   28.2358 C.ar    1  UNL1        0.0045
     21 C           9.1328   -6.4658   29.6915 C.ar    1  UNL1        0.0072
     22 C           7.9771   -5.8519   30.4246 C.ar    1  UNL1        0.0352
     23 S           6.9069   -5.5367   29.4219 S.2     1  UNL1       -0.0890
     24 C           3.0490    0.0327   18.8817 C.3     1  UNL1        0.1138
     25 C           3.6899   -1.3233   18.8568 C.ar    1  UNL1       -0.0029
     26 C           2.9569   -2.5095   19.4095 C.ar    1  UNL1       -0.0026
     27 C           3.5977   -3.8655   19.3846 C.ar    1  UNL1       -0.0003
     28 C           4.9716   -4.0353   18.8068 C.ar    1  UNL1       -0.0000
     29 C           5.7045   -2.8490   18.2540 C.ar    1  UNL1       -0.0003
     30 C           5.0637   -1.4930   18.2790 C.ar    1  UNL1       -0.0026
     31 C           1.6396    0.2051   18.3981 C.3     1  UNL1        0.0968
     32 N           0.7619    1.2591   19.0055 N.3     1  UNL1       -0.2689
     33 C           0.4093    2.5782   18.3845 C.3     1  UNL1        0.0748
     34 C          -0.4878    3.3133   19.3357 C.3     1  UNL1        0.0480
     35 C          -0.6896    2.4485   20.5446 C.3     1  UNL1        0.1278
     36 O          -1.5183    2.7928   21.7466 O.3     1  UNL1       -0.3830
     37 C           0.0828    1.1790   20.3405 C.3     1  UNL1        0.1017
     38 H          -1.4819    2.0628   22.3843 H       1  UNL1        0.2104
@<TRIPOS>BOND
     1     1     2    1
     2     2     3   am
     3     3     4    2
     4     3     5    1
     5     5     6    1
     6     6     7   ar
     7     7     8   ar
     8     8     9   ar
     9     9    12    1
    10    12    13    1
    11    13    15    1
    12    15    16    2
    13    15    17    2
    14    15    18    1
    15    18    19    1
    16    19    20   ar
    17    20    21   ar
    18    21    22   ar
    19    22    23   ar
    20     9    10   ar
    21    10    11   ar
    22     2    24    1
    23    24    31    1
    24    31    32    1
    25    32    33    1
    26    33    34    1
    27    34    35    1
    28    35    36    1
    29    35    37    1
    30    24    25    1
    31    25    26   ar
    32    26    27   ar
    33    27    28   ar
    34    28    29   ar
    35    29    30   ar
    36    11     6   ar
    37    37    32    1
    38    30    25   ar
    39    23    19   ar
    40    13    14    1
    41    36    38    1
@<TRIPOS>MOLECULE
*****
 38 41 0 0 0
SMALL
GASTEIGER

@<TRIPOS>ATOM
      1 C           5.4157    0.6111   17.7777 C.3     1  UNL1        0.1152
      2 N           4.9543   -0.6230   18.4946 N.am    1  UNL1       -0.2740
      3 C           5.6201   -1.9400   18.2253 C.2     1  UNL1        0.2303
      4 O           6.7474   -2.0226   17.2391 O.2     1  UNL1       -0.2745
      5 C           5.1587   -3.1741   18.9421 C.3     1  UNL1        0.1116
      6 C           5.5881   -3.4241   20.3575 C.ar    1  UNL1       -0.0131
      7 C           4.5783   -3.8416   21.3850 C.ar    1  UNL1       -0.0041
      8 C           5.0077   -4.0916   22.8003 C.ar    1  UNL1       -0.0032
      9 C           6.4470   -3.9241   23.1880 C.ar    1  UNL1       -0.0048
     10 C           7.4569   -3.5066   22.1605 C.ar    1  UNL1       -0.0032
     11 C           7.0275   -3.2566   20.7452 C.ar    1  UNL1       -0.0041
     12 C           6.8765   -4.1742   24.6034 C.3     1  UNL1        0.1174
     13 N           6.1147   -3.5567   25.7384 N.3     1  UNL1       -0.1785
     14 H           5.3586   -4.2008   25.9705 H       1  UNL1        0.1488
     15 S           6.8165   -3.2317   27.0238 S.O2    1  UNL1        0.0458
     16 O           5.5386   -2.6788   27.5816 O.2     1  UNL1       -0.1572
     17 O           8.0944   -3.7847   26.4659 O.2     1  UNL1       -0.1572
     18 C           7.5182   -2.9068   28.3091 C.3     1  UNL1        0.2016
     19 C           7.2653   -3.7372   29.5324 C.ar    1  UNL1        0.0325
     20 C           6.9539   -3.2150   30.9036 C.ar    1  UNL1        0.0045
     21 C           6.7755   -4.3907   31.8179 C.ar    1  UNL1        0.0072
     22 C           6.9767   -5.6395   31.0118 C.ar    1  UNL1        0.0352
     23 S           7.2794   -5.2356   29.5992 S.2     1  UNL1       -0.0890
     24 C           3.8270   -0.5404   19.4807 C.3     1  UNL1        0.1138
     25 C           4.1201   -0.4516   20.9491 C.ar    1  UNL1       -0.0029
     26 C           5.4587    0.0359   21.4185 C.ar    1  UNL1       -0.0026
     27 C           5.7519    0.1247   22.8869 C.ar    1  UNL1       -0.0003
     28 C           4.7063   -0.2739   23.8859 C.ar    1  UNL1       -0.0000
     29 C           3.3676   -0.7614   23.4164 C.ar    1  UNL1       -0.0003
     30 C           3.0745   -0.8502   21.9480 C.ar    1  UNL1       -0.0026
     31 C           2.4066   -0.5465   18.9984 C.3     1  UNL1        0.0968
     32 N           1.5228    0.6383   19.2536 N.3     1  UNL1       -0.2689
     33 C           1.6917    2.0074   18.6645 C.3     1  UNL1        0.0748
     34 C           0.5882    2.8773   19.1895 C.3     1  UNL1        0.0480
     35 C          -0.2627    2.0458   20.1031 C.3     1  UNL1        0.1278
     36 O          -1.4778    2.5156   20.8465 O.3     1  UNL1       -0.3830
     37 C           0.3150    0.6621   20.1427 C.3     1  UNL1        0.1017
     38 H          -1.8427    1.7821   21.3659 H       1  UNL1        0.2104
@<TRIPOS>BOND
     1     1     2    1
     2     2     3   am
     3     3     4    2
     4     3     5    1
     5     5     6    1
     6     6     7   ar
     7     7     8   ar
     8     8     9   ar
     9     9    12    1
    10    12    13    1
    11    13    15    1
    12    15    16    2
    13    15    17    2
    14    15    18    1
    15    18    19    1
    16    19    20   ar
    17    20    21   ar
    18    21    22   ar
    19    22    23   ar
    20     9    10   ar
    21    10    11   ar
    22     2    24    1
    23    24    31    1
    24    31    32    1
    25    32    33    1
    26    33    34    1
    27    34    35    1
    28    35    36    1
    29    35    37    1
    30    24    25    1
    31    25    26   ar
    32    26    27   ar
    33    27    28   ar
    34    28    29   ar
    35    29    30   ar
    36    11     6   ar
    37    37    32    1
    38    30    25   ar
    39    23    19   ar
    40    13    14    1
    41    36    38    1
@<TRIPOS>MOLECULE
*****
 38 41 0 0 0
SMALL
GASTEIGER

@<TRIPOS>ATOM
      1 C           7.1176    1.0456   19.3202 C.3     1  UNL1        0.1152
      2 N           5.7718    0.3898   19.4134 N.am    1  UNL1       -0.2740
      3 C           4.8019    0.5030   18.2748 C.2     1  UNL1        0.2303
      4 O           5.1778    1.2720   17.0430 O.2     1  UNL1       -0.2745
      5 C           3.4561   -0.1528   18.3680 C.3     1  UNL1        0.1116
      6 C           2.3341    0.5362   19.0867 C.ar    1  UNL1       -0.0131
      7 C           1.3166   -0.2707   19.8372 C.ar    1  UNL1       -0.0041
      8 C           0.1947    0.4183   20.5559 C.ar    1  UNL1       -0.0032
      9 C           0.0904    1.9144   20.5241 C.ar    1  UNL1       -0.0048
     10 C           1.1079    2.7213   19.7735 C.ar    1  UNL1       -0.0032
     11 C           2.2298    2.0323   19.0549 C.ar    1  UNL1       -0.0041
     12 C          -1.0316    2.6034   21.2428 C.3     1  UNL1        0.1174
     13 N          -2.3133    2.9006   20.5224 N.3     1  UNL1       -0.1785
     14 H          -2.7481    2.0022   20.3123 H       1  UNL1        0.1488
     15 S          -3.3636    3.7470   21.1786 S.O2    1  UNL1        0.0458
     16 O          -4.3035    2.5781   21.1820 O.2     1  UNL1       -0.1572
     17 O          -2.4237    4.9160   21.1753 O.2     1  UNL1       -0.1572
     18 C          -4.4139    4.5934   21.8348 C.3     1  UNL1        0.2016
     19 C          -4.6591    4.4747   23.3099 C.ar    1  UNL1        0.0325
     20 C          -3.6528    4.0548   24.3400 C.ar    1  UNL1        0.0045
     21 C          -4.3254    4.0757   25.6806 C.ar    1  UNL1        0.0072
     22 C          -5.7473    4.5087   25.4790 C.ar    1  UNL1        0.0352
     23 S          -5.9535    4.7553   24.0138 S.2     1  UNL1       -0.0890
     24 C           5.3959   -0.3792   20.6452 C.3     1  UNL1        0.1138
     25 C           4.4561    0.2226   21.6474 C.ar    1  UNL1       -0.0029
     26 C           4.3884    1.7119   21.8120 C.ar    1  UNL1       -0.0026
     27 C           3.4485    2.3138   22.8142 C.ar    1  UNL1       -0.0003
     28 C           2.5764    1.4263   23.6519 C.ar    1  UNL1       -0.0000
     29 C           2.6441   -0.0632   23.4872 C.ar    1  UNL1       -0.0003
     30 C           3.5840   -0.6650   22.4850 C.ar    1  UNL1       -0.0026
     31 C           5.9600   -1.7501   20.8748 C.3     1  UNL1        0.0968
     32 N           5.2894   -2.9479   20.2700 N.3     1  UNL1       -0.2689
     33 C           5.3533   -3.3604   18.8292 C.3     1  UNL1        0.0748
     34 C           4.5406   -4.6109   18.6686 C.3     1  UNL1        0.0480
     35 C           3.9745   -4.9713   20.0101 C.3     1  UNL1        0.1278
     36 O           3.0993   -6.1522   20.3093 O.3     1  UNL1       -0.3830
     37 C           4.4373   -3.9435   20.9998 C.3     1  UNL1        0.1017
     38 H           2.8717   -6.1552   21.2522 H       1  UNL1        0.2104
@<TRIPOS>BOND
     1     1     2    1
     2     2     3   am
     3     3     4    2
     4     3     5    1
     5     5     6    1
     6     6     7   ar
     7     7     8   ar
     8     8     9   ar
     9     9    12    1
    10    12    13    1
    11    13    15    1
    12    15    16    2
    13    15    17    2
    14    15    18    1
    15    18    19    1
    16    19    20   ar
    17    20    21   ar
    18    21    22   ar
    19    22    23   ar
    20     9    10   ar
    21    10    11   ar
    22     2    24    1
    23    24    31    1
    24    31    32    1
    25    32    33    1
    26    33    34    1
    27    34    35    1
    28    35    36    1
    29    35    37    1
    30    24    25    1
    31    25    26   ar
    32    26    27   ar
    33    27    28   ar
    34    28    29   ar
    35    29    30   ar
    36    11     6   ar
    37    37    32    1
    38    30    25   ar
    39    23    19   ar
    40    13    14    1
    41    36    38    1
