@<TRIPOS>MOLECULE
*****
 36 40 0 0 0
SMALL
GASTEIGER

@<TRIPOS>ATOM
      1 C           8.0539   -5.4016   25.3474 C.2     1  UNL1        0.2553
      2 O           9.3196   -6.1825   25.1514 O.2     1  UNL1       -0.2720
      3 N           7.4317   -4.6788   24.1897 N.am    1  UNL1       -0.2773
      4 C           8.0751   -4.7367   22.8360 C.3     1  UNL1        0.0949
      5 C           7.4529   -4.0139   21.6782 C.3     1  UNL1        0.0375
      6 C           6.1872   -3.2330   21.8743 C.3     1  UNL1        0.0612
      7 C           5.5438   -3.1751   23.2281 C.3     1  UNL1        0.0375
      8 C           6.1660   -3.8979   24.3858 C.3     1  UNL1        0.0949
      9 N           5.5650   -2.5102   20.7167 N.3     1  UNL1       -0.2702
     10 C           6.3731   -2.4877   19.4531 C.3     1  UNL1        0.0727
     11 C           6.0328   -1.8548   18.1364 C.3     1  UNL1        0.0220
     12 C           4.8002   -1.0882   17.7581 C.3     1  UNL1        0.0275
     13 C           3.6036   -0.7650   18.6029 C.ar    1  UNL1       -0.0248
     14 C           2.5873    0.0260   17.8339 C.ar    1  UNL1       -0.0045
     15 C           1.3114    0.4533   18.4969 C.ar    1  UNL1       -0.0003
     16 C           1.0519    0.0896   19.9288 C.ar    1  UNL1       -0.0003
     17 C           2.0682   -0.7014   20.6978 C.ar    1  UNL1       -0.0032
     18 C           3.3441   -1.1286   20.0349 C.ar    1  UNL1       -0.0101
     19 C           4.2170   -1.9053   20.9755 C.3     1  UNL1        0.0988
     20 N           7.5315   -3.7449   29.2367 N.3     1  UNL1       -0.2688
     21 C           6.5719   -4.8917   29.1183 C.3     1  UNL1        0.0756
     22 C           6.5114   -5.6911   27.8505 C.3     1  UNL1        0.0590
     23 C           7.4105   -5.3437   26.7012 C.3     1  UNL1        0.2042
     24 F           6.6744   -6.5106   26.1126 F       1  UNL1       -0.2306
     25 C           8.3701   -4.1969   26.8196 C.3     1  UNL1        0.0590
     26 C           8.4306   -3.3975   28.0874 C.3     1  UNL1        0.0756
     27 C           7.5920   -2.9455   30.5045 C.3     1  UNL1        0.0993
     28 N           3.3538    0.0606   30.4798 N.pl3   1  UNL1       -0.3426
     29 C           4.2059   -0.9779   31.1472 C.ar    1  UNL1        0.1251
     30 C           5.4729   -1.4424   30.4922 C.ar    1  UNL1        0.0310
     31 C           6.3251   -2.4810   31.1595 C.ar    1  UNL1       -0.0018
     32 C           5.9102   -3.0549   32.4818 C.ar    1  UNL1        0.0179
     33 C           4.6433   -2.5904   33.1368 C.ar    1  UNL1        0.1000
     34 N           3.7911   -1.5519   32.4694 N.ar    1  UNL1       -0.2296
     35 H           3.6261    0.4373   29.6119 H       1  UNL1        0.1437
     36 H           2.5222    0.3655   30.9097 H       1  UNL1        0.1437
@<TRIPOS>BOND
     1    28    29    1
     2    29    30   ar
     3    30    31   ar
     4    31    27    1
     5    27    20    1
     6    20    21    1
     7    21    22    1
     8    22    23    1
     9    23    24    1
    10    23     1    1
    11     1     2    2
    12     1     3   am
    13     3     4    1
    14     4     5    1
    15     5     6    1
    16     6     9    1
    17     9    10    1
    18    10    11    1
    19    11    12    1
    20    12    13    1
    21    13    14   ar
    22    14    15   ar
    23    15    16   ar
    24    16    17   ar
    25    17    18   ar
    26    18    19    1
    27     6     7    1
    28     7     8    1
    29    23    25    1
    30    25    26    1
    31    31    32   ar
    32    32    33   ar
    33    33    34   ar
    34    34    29   ar
    35    26    20    1
    36     8     3    1
    37    19     9    1
    38    18    13   ar
    39    28    35    1
    40    28    36    1
@<TRIPOS>MOLECULE
*****
 36 40 0 0 0
SMALL
GASTEIGER

@<TRIPOS>ATOM
      1 C           4.3639   -1.4485   19.6350 C.2     1  UNL1        0.2553
      2 O           5.0515   -1.1013   18.3479 O.2     1  UNL1       -0.2720
      3 N           5.0535   -2.3198   20.6425 N.am    1  UNL1       -0.2773
      4 C           6.4309   -2.8440   20.3629 C.3     1  UNL1        0.0949
      5 C           7.1206   -3.7153   21.3704 C.3     1  UNL1        0.0375
      6 C           6.4328   -4.0625   22.6576 C.3     1  UNL1        0.0612
      7 C           5.0555   -3.5384   22.9371 C.3     1  UNL1        0.0375
      8 C           4.3658   -2.6670   21.9296 C.3     1  UNL1        0.0949
      9 N           7.1225   -4.9338   23.6650 N.3     1  UNL1       -0.2702
     10 C           8.1197   -5.9071   23.1097 C.3     1  UNL1        0.0727
     11 C           8.9644   -6.9037   23.8468 C.3     1  UNL1        0.0220
     12 C           9.0206   -7.1730   25.3214 C.3     1  UNL1        0.0275
     13 C           8.2460   -6.5123   26.4230 C.ar    1  UNL1       -0.0248
     14 C           8.6050   -7.0821   27.7633 C.ar    1  UNL1       -0.0045
     15 C           7.9419   -6.5587   29.0028 C.ar    1  UNL1       -0.0003
     16 C           6.9197   -5.4655   28.9019 C.ar    1  UNL1       -0.0003
     17 C           6.5607   -4.8958   27.5616 C.ar    1  UNL1       -0.0032
     18 C           7.2239   -5.4192   26.3222 C.ar    1  UNL1       -0.0101
     19 C           6.7239   -4.7167   25.0947 C.3     1  UNL1        0.0988
     20 N           1.5977    1.6522   20.5723 N.3     1  UNL1       -0.2688
     21 C           0.8058    0.3846   20.4449 C.3     1  UNL1        0.0756
     22 C           1.5002   -0.9036   20.1160 C.3     1  UNL1        0.0590
     23 C           2.9864   -0.9243   19.9145 C.3     1  UNL1        0.2042
     24 F           2.6730   -2.3739   19.6900 F       1  UNL1       -0.2306
     25 C           3.7783    0.3433   20.0419 C.3     1  UNL1        0.0590
     26 C           3.0839    1.6315   20.3708 C.3     1  UNL1        0.0756
     27 C           0.9033    2.9404   20.9012 C.3     1  UNL1        0.0993
     28 N          -4.2908    2.8077   20.9658 N.pl3   1  UNL1       -0.3426
     29 C          -3.0097    3.2018   20.2924 C.ar    1  UNL1        0.1251
     30 C          -1.6938    2.8741   20.9335 C.ar    1  UNL1        0.0310
     31 C          -0.4126    3.2681   20.2601 C.ar    1  UNL1       -0.0018
     32 C          -0.4474    3.9899   18.9456 C.ar    1  UNL1        0.0179
     33 C          -1.7633    4.3176   18.3045 C.ar    1  UNL1        0.1000
     34 N          -3.0445    3.9235   18.9780 N.ar    1  UNL1       -0.2296
     35 H          -4.2679    2.3340   21.8286 H       1  UNL1        0.1437
     36 H          -5.1545    3.0228   20.5451 H       1  UNL1        0.1437
@<TRIPOS>BOND
     1    28    29    1
     2    29    30   ar
     3    30    31   ar
     4    31    27    1
     5    27    20    1
     6    20    21    1
     7    21    22    1
     8    22    23    1
     9    23    24    1
    10    23     1    1
    11     1     2    2
    12     1     3   am
    13     3     4    1
    14     4     5    1
    15     5     6    1
    16     6     9    1
    17     9    10    1
    18    10    11    1
    19    11    12    1
    20    12    13    1
    21    13    14   ar
    22    14    15   ar
    23    15    16   ar
    24    16    17   ar
    25    17    18   ar
    26    18    19    1
    27     6     7    1
    28     7     8    1
    29    23    25    1
    30    25    26    1
    31    31    32   ar
    32    32    33   ar
    33    33    34   ar
    34    34    29   ar
    35    26    20    1
    36     8     3    1
    37    19     9    1
    38    18    13   ar
    39    28    35    1
    40    28    36    1
@<TRIPOS>MOLECULE
*****
 36 40 0 0 0
SMALL
GASTEIGER

@<TRIPOS>ATOM
      1 C           4.3761   -1.2879   19.8878 C.2     1  UNL1        0.2553
      2 O           5.1081   -0.8212   18.6645 O.2     1  UNL1       -0.2720
      3 N           5.0657   -2.1744   20.8819 N.am    1  UNL1       -0.2773
      4 C           6.4874   -2.5942   20.6529 C.3     1  UNL1        0.0949
      5 C           7.1771   -3.4808   21.6471 C.3     1  UNL1        0.0375
      6 C           6.4450   -3.9475   22.8704 C.3     1  UNL1        0.0612
      7 C           5.0233   -3.5277   23.0994 C.3     1  UNL1        0.0375
      8 C           4.3336   -2.6412   22.1052 C.3     1  UNL1        0.0949
      9 N           7.1346   -4.8340   23.8645 N.3     1  UNL1       -0.2702
     10 C           8.1400   -5.7910   23.2958 C.3     1  UNL1        0.0727
     11 C           8.9868   -6.7966   24.0180 C.3     1  UNL1        0.0220
     12 C           9.0373   -7.0937   25.4875 C.3     1  UNL1        0.0275
     13 C           8.2536   -6.4585   26.5976 C.ar    1  UNL1       -0.0248
     14 C           8.6092   -7.0517   27.9286 C.ar    1  UNL1       -0.0045
     15 C           7.9370   -6.5557   29.1744 C.ar    1  UNL1       -0.0003
     16 C           6.9091   -5.4666   29.0892 C.ar    1  UNL1       -0.0003
     17 C           6.5535   -4.8734   27.7582 C.ar    1  UNL1       -0.0032
     18 C           7.2257   -5.3694   26.5124 C.ar    1  UNL1       -0.0101
     19 C           6.7278   -4.6464   25.2961 C.3     1  UNL1        0.0988
     20 N           1.3869    1.4738   21.1457 N.3     1  UNL1       -0.2688
     21 C           0.6721    0.2453   20.6659 C.3     1  UNL1        0.0756
     22 C           1.4558   -0.9256   20.1514 C.3     1  UNL1        0.0590
     23 C           2.9543   -0.8681   20.1167 C.3     1  UNL1        0.2042
     24 F           2.7333   -2.2423   19.5575 F       1  UNL1       -0.2306
     25 C           3.6691    0.3603   20.5965 C.3     1  UNL1        0.0590
     26 C           2.8853    1.5312   21.1109 C.3     1  UNL1        0.0756
     27 C           0.6031    2.6447   21.6601 C.3     1  UNL1        0.0993
     28 N           0.4354    0.6806   26.4679 N.pl3   1  UNL1       -0.3426
     29 C          -0.1179    1.6010   25.4206 C.ar    1  UNL1        0.1251
     30 C           0.5192    1.6627   24.0640 C.ar    1  UNL1        0.0310
     31 C          -0.0340    2.5830   23.0167 C.ar    1  UNL1       -0.0018
     32 C          -1.2244    3.4417   23.3260 C.ar    1  UNL1        0.0179
     33 C          -1.8616    3.3801   24.6825 C.ar    1  UNL1        0.1000
     34 N          -1.3082    2.4597   25.7298 N.ar    1  UNL1       -0.2296
     35 H           1.2167    0.1171   26.2649 H       1  UNL1        0.1437
     36 H           0.0173    0.6401   27.3583 H       1  UNL1        0.1437
@<TRIPOS>BOND
     1    28    29    1
     2    29    30   ar
     3    30    31   ar
     4    31    27    1
     5    27    20    1
     6    20    21    1
     7    21    22    1
     8    22    23    1
     9    23    24    1
    10    23     1    1
    11     1     2    2
    12     1     3   am
    13     3     4    1
    14     4     5    1
    15     5     6    1
    16     6     9    1
    17     9    10    1
    18    10    11    1
    19    11    12    1
    20    12    13    1
    21    13    14   ar
    22    14    15   ar
    23    15    16   ar
    24    16    17   ar
    25    17    18   ar
    26    18    19    1
    27     6     7    1
    28     7     8    1
    29    23    25    1
    30    25    26    1
    31    31    32   ar
    32    32    33   ar
    33    33    34   ar
    34    34    29   ar
    35    26    20    1
    36     8     3    1
    37    19     9    1
    38    18    13   ar
    39    28    35    1
    40    28    36    1
@<TRIPOS>MOLECULE
*****
 36 40 0 0 0
SMALL
GASTEIGER

@<TRIPOS>ATOM
      1 C           0.9859    2.8580   27.0387 C.2     1  UNL1        0.2553
      2 O           1.3262    3.0099   28.4917 O.2     1  UNL1       -0.2720
      3 N           1.6865    1.8238   26.2084 N.am    1  UNL1       -0.2773
      4 C           2.7275    0.9414   26.8309 C.3     1  UNL1        0.0949
      5 C           3.4282   -0.0928   26.0006 C.3     1  UNL1        0.0375
      6 C           3.0878   -0.2446   24.5476 C.3     1  UNL1        0.0612
      7 C           2.0467    0.6377   23.9250 C.3     1  UNL1        0.0375
      8 C           1.3460    1.6720   24.7554 C.3     1  UNL1        0.0949
      9 N           3.7884   -1.2788   23.7173 N.3     1  UNL1       -0.2702
     10 C           4.7455   -2.1671   24.4555 C.3     1  UNL1        0.0727
     11 C           5.5900   -3.2840   23.9173 C.3     1  UNL1        0.0220
     12 C           5.6857   -3.7884   22.5079 C.3     1  UNL1        0.0275
     13 C           4.9609   -3.3006   21.2886 C.ar    1  UNL1       -0.0248
     14 C           5.3483   -4.0850   20.0703 C.ar    1  UNL1       -0.0045
     15 C           4.7360   -3.7568   18.7409 C.ar    1  UNL1       -0.0003
     16 C           3.7362   -2.6440   18.6299 C.ar    1  UNL1       -0.0003
     17 C           3.3488   -1.8596   19.8483 C.ar    1  UNL1       -0.0032
     18 C           3.9612   -2.1878   21.1776 C.ar    1  UNL1       -0.0101
     19 C           3.4394   -1.2881   22.2585 C.3     1  UNL1        0.0988
     20 N          -3.0374    3.9549   26.1698 N.3     1  UNL1       -0.2688
     21 C          -2.1555    4.9794   25.5197 C.3     1  UNL1        0.0756
     22 C          -0.6644    4.8721   25.6428 C.3     1  UNL1        0.0590
     23 C          -0.0553    3.7404   26.4161 C.3     1  UNL1        0.2042
     24 F           1.1882    4.4584   25.9822 F       1  UNL1       -0.2306
     25 C          -0.9371    2.7159   27.0662 C.3     1  UNL1        0.0590
     26 C          -2.4282    2.8232   26.9431 C.3     1  UNL1        0.0756
     27 C          -4.5284    4.0622   26.0467 C.3     1  UNL1        0.0993
     28 N          -4.4626    2.5552   21.0743 N.pl3   1  UNL1       -0.3426
     29 C          -5.1414    3.2664   22.2073 C.ar    1  UNL1        0.1251
     30 C          -4.4956    3.3087   23.5605 C.ar    1  UNL1        0.0310
     31 C          -5.1743    4.0198   24.6935 C.ar    1  UNL1       -0.0018
     32 C          -6.4988    4.6885   24.4733 C.ar    1  UNL1        0.0179
     33 C          -7.1446    4.6461   23.1201 C.ar    1  UNL1        0.1000
     34 N          -6.4658    3.9350   21.9871 N.ar    1  UNL1       -0.2296
     35 H          -3.5932    2.1164   21.2188 H       1  UNL1        0.1437
     36 H          -4.8864    2.5274   20.1861 H       1  UNL1        0.1437
@<TRIPOS>BOND
     1    28    29    1
     2    29    30   ar
     3    30    31   ar
     4    31    27    1
     5    27    20    1
     6    20    21    1
     7    21    22    1
     8    22    23    1
     9    23    24    1
    10    23     1    1
    11     1     2    2
    12     1     3   am
    13     3     4    1
    14     4     5    1
    15     5     6    1
    16     6     9    1
    17     9    10    1
    18    10    11    1
    19    11    12    1
    20    12    13    1
    21    13    14   ar
    22    14    15   ar
    23    15    16   ar
    24    16    17   ar
    25    17    18   ar
    26    18    19    1
    27     6     7    1
    28     7     8    1
    29    23    25    1
    30    25    26    1
    31    31    32   ar
    32    32    33   ar
    33    33    34   ar
    34    34    29   ar
    35    26    20    1
    36     8     3    1
    37    19     9    1
    38    18    13   ar
    39    28    35    1
    40    28    36    1
@<TRIPOS>MOLECULE
*****
 36 40 0 0 0
SMALL
GASTEIGER

@<TRIPOS>ATOM
      1 C           7.6221   -4.2552   21.8067 C.2     1  UNL1        0.2553
      2 O           8.1485   -5.4480   21.0648 O.2     1  UNL1       -0.2720
      3 N           7.4911   -4.2986   23.3002 N.am    1  UNL1       -0.2773
      4 C           7.8865   -5.5349   24.0521 C.3     1  UNL1        0.0949
      5 C           7.7556   -5.5784   25.5458 C.3     1  UNL1        0.0375
      6 C           7.2292   -4.3855   26.2876 C.3     1  UNL1        0.0612
      7 C           6.8338   -3.1493   25.5356 C.3     1  UNL1        0.0375
      8 C           6.9648   -3.1058   24.0420 C.3     1  UNL1        0.0949
      9 N           7.0983   -4.4289   27.7811 N.3     1  UNL1       -0.2702
     10 C           7.5166   -5.7129   28.4341 C.3     1  UNL1        0.0727
     11 C           7.5063   -6.0678   29.8915 C.3     1  UNL1        0.0220
     12 C           7.0751   -5.2262   31.0559 C.3     1  UNL1        0.0275
     13 C           6.5477   -3.8220   31.0505 C.ar    1  UNL1       -0.0248
     14 C           6.2331   -3.3495   32.4389 C.ar    1  UNL1       -0.0045
     15 C           5.6920   -1.9674   32.6562 C.ar    1  UNL1       -0.0003
     16 C           5.4656   -1.0580   31.4850 C.ar    1  UNL1       -0.0003
     17 C           5.7802   -1.5305   30.0967 C.ar    1  UNL1       -0.0032
     18 C           6.3212   -2.9125   29.8794 C.ar    1  UNL1       -0.0101
     19 C           6.5663   -3.1827   28.4244 C.3     1  UNL1        0.0988
     20 N           5.1018   -2.0579   19.1677 N.3     1  UNL1       -0.2688
     21 C           6.1969   -1.1285   19.6002 C.3     1  UNL1        0.0756
     22 C           7.2594   -1.6091   20.5437 C.3     1  UNL1        0.0590
     23 C           7.2267   -3.0189   21.0547 C.3     1  UNL1        0.2042
     24 F           8.4591   -2.5190   21.7484 F       1  UNL1       -0.2306
     25 C           6.1316   -3.9483   20.6222 C.3     1  UNL1        0.0590
     26 C           5.0691   -3.4677   19.6786 C.3     1  UNL1        0.0756
     27 C           4.0394   -1.5773   18.2241 C.3     1  UNL1        0.0993
     28 N          -0.2348    0.1235   20.6405 N.pl3   1  UNL1       -0.3426
     29 C           0.9981    0.4011   19.8325 C.ar    1  UNL1        0.1251
     30 C           1.9023   -0.7269   19.4323 C.ar    1  UNL1        0.0310
     31 C           3.1352   -0.4493   18.6243 C.ar    1  UNL1       -0.0018
     32 C           3.4640    0.9563   18.2166 C.ar    1  UNL1        0.0179
     33 C           2.5598    2.0843   18.6168 C.ar    1  UNL1        0.1000
     34 N           1.3269    1.8066   19.4248 N.ar    1  UNL1       -0.2296
     35 H          -0.4506   -0.7991   20.9081 H       1  UNL1        0.1437
     36 H          -0.8283    0.8637   20.9032 H       1  UNL1        0.1437
@<TRIPOS>BOND
     1    28    29    1
     2    29    30   ar
     3    30    31   ar
     4    31    27    1
     5    27    20    1
     6    20    21    1
     7    21    22    1
     8    22    23    1
     9    23    24    1
    10    23     1    1
    11     1     2    2
    12     1     3   am
    13     3     4    1
    14     4     5    1
    15     5     6    1
    16     6     9    1
    17     9    10    1
    18    10    11    1
    19    11    12    1
    20    12    13    1
    21    13    14   ar
    22    14    15   ar
    23    15    16   ar
    24    16    17   ar
    25    17    18   ar
    26    18    19    1
    27     6     7    1
    28     7     8    1
    29    23    25    1
    30    25    26    1
    31    31    32   ar
    32    32    33   ar
    33    33    34   ar
    34    34    29   ar
    35    26    20    1
    36     8     3    1
    37    19     9    1
    38    18    13   ar
    39    28    35    1
    40    28    36    1
@<TRIPOS>MOLECULE
*****
 36 40 0 0 0
SMALL
GASTEIGER

@<TRIPOS>ATOM
      1 C           1.3920    1.9762   28.4121 C.2     1  UNL1        0.2553
      2 O           0.0352    2.4576   28.8335 O.2     1  UNL1       -0.2720
      3 N           1.6102    1.4776   27.0144 N.am    1  UNL1       -0.2773
      4 C           0.4717    1.4603   26.0380 C.3     1  UNL1        0.0949
      5 C           0.6899    0.9616   24.6402 C.3     1  UNL1        0.0375
      6 C           2.0467    0.4803   24.2189 C.3     1  UNL1        0.0612
      7 C           3.1852    0.4976   25.1954 C.3     1  UNL1        0.0375
      8 C           2.9671    0.9963   26.5932 C.3     1  UNL1        0.0949
      9 N           2.2650   -0.0183   22.8212 N.3     1  UNL1       -0.2702
     10 C           1.5402    0.7306   21.7424 C.3     1  UNL1        0.0727
     11 C           1.5506    0.4829   20.2630 C.3     1  UNL1        0.0220
     12 C           2.2883   -0.5750   19.4971 C.3     1  UNL1        0.0275
     13 C           3.1978   -1.6465   20.0213 C.ar    1  UNL1       -0.0248
     14 C           3.7333   -2.5021   18.9117 C.ar    1  UNL1       -0.0045
     15 C           4.6651   -3.6358   19.2218 C.ar    1  UNL1       -0.0003
     16 C           5.0616   -3.9140   20.6415 C.ar    1  UNL1       -0.0003
     17 C           4.5261   -3.0584   21.7511 C.ar    1  UNL1       -0.0032
     18 C           3.5943   -1.9246   21.4410 C.ar    1  UNL1       -0.0101
     19 C           3.1791   -1.2000   22.6870 C.3     1  UNL1        0.0988
     20 N           3.8200    0.2325   31.4467 N.3     1  UNL1       -0.2688
     21 C           4.3661    1.6050   31.1857 C.3     1  UNL1        0.0756
     22 C           3.7213    2.4855   30.1567 C.3     1  UNL1        0.0590
     23 C           2.5305    1.9936   29.3887 C.3     1  UNL1        0.2042
     24 F           2.6812    3.3600   28.7885 F       1  UNL1       -0.2306
     25 C           1.9844    0.6211   29.6497 C.3     1  UNL1        0.0590
     26 C           2.6292   -0.2594   30.6788 C.3     1  UNL1        0.0756
     27 C           4.4647   -0.6480   32.4758 C.3     1  UNL1        0.0993
     28 N           6.5350   -5.4139   32.4818 N.pl3   1  UNL1       -0.3426
     29 C           6.5993   -3.9702   32.0797 C.ar    1  UNL1        0.1251
     30 C           5.4999   -3.0309   32.4788 C.ar    1  UNL1        0.0310
     31 C           5.5641   -1.5872   32.0767 C.ar    1  UNL1       -0.0018
     32 C           6.7275   -1.0829   31.2755 C.ar    1  UNL1        0.0179
     33 C           7.8269   -2.0221   30.8763 C.ar    1  UNL1        0.1000
     34 N           7.7626   -3.4658   31.2785 N.ar    1  UNL1       -0.2296
     35 H           5.7714   -5.7449   33.0077 H       1  UNL1        0.1437
     36 H           7.2565   -6.0304   32.2199 H       1  UNL1        0.1437
@<TRIPOS>BOND
     1    28    29    1
     2    29    30   ar
     3    30    31   ar
     4    31    27    1
     5    27    20    1
     6    20    21    1
     7    21    22    1
     8    22    23    1
     9    23    24    1
    10    23     1    1
    11     1     2    2
    12     1     3   am
    13     3     4    1
    14     4     5    1
    15     5     6    1
    16     6     9    1
    17     9    10    1
    18    10    11    1
    19    11    12    1
    20    12    13    1
    21    13    14   ar
    22    14    15   ar
    23    15    16   ar
    24    16    17   ar
    25    17    18   ar
    26    18    19    1
    27     6     7    1
    28     7     8    1
    29    23    25    1
    30    25    26    1
    31    31    32   ar
    32    32    33   ar
    33    33    34   ar
    34    34    29   ar
    35    26    20    1
    36     8     3    1
    37    19     9    1
    38    18    13   ar
    39    28    35    1
    40    28    36    1
@<TRIPOS>MOLECULE
*****
 36 40 0 0 0
SMALL
GASTEIGER

@<TRIPOS>ATOM
      1 C          -1.4090    4.6674   19.6811 C.2     1  UNL1        0.2553
      2 O          -1.2288    6.1389   19.4523 O.2     1  UNL1       -0.2720
      3 N          -0.2730    3.7232   19.4207 N.am    1  UNL1       -0.2773
      4 C           1.0433    4.2505   18.9315 C.3     1  UNL1        0.0949
      5 C           2.1795    3.3063   18.6711 C.3     1  UNL1        0.0375
      6 C           1.9992    1.8348   18.8999 C.3     1  UNL1        0.0612
      7 C           0.6829    1.3075   19.3891 C.3     1  UNL1        0.0375
      8 C          -0.4532    2.2517   19.6495 C.3     1  UNL1        0.0949
      9 N           3.1353    0.8906   18.6395 N.3     1  UNL1       -0.2702
     10 C           4.3653    1.5027   18.0374 C.3     1  UNL1        0.0727
     11 C           5.6550    0.8345   17.6627 C.3     1  UNL1        0.0220
     12 C           6.0331   -0.6107   17.7976 C.3     1  UNL1        0.0275
     13 C           5.2150   -1.7448   18.3404 C.ar    1  UNL1       -0.0248
     14 C           5.9737   -3.0380   18.2963 C.ar    1  UNL1       -0.0045
     15 C           5.3341   -4.3001   18.7943 C.ar    1  UNL1       -0.0003
     16 C           3.9358   -4.2690   19.3363 C.ar    1  UNL1       -0.0003
     17 C           3.1771   -2.9758   19.3804 C.ar    1  UNL1       -0.0032
     18 C           3.8167   -1.7137   18.8825 C.ar    1  UNL1       -0.0101
     19 C           2.8912   -0.5408   19.0155 C.3     1  UNL1        0.0988
     20 N          -4.1182    3.4633   22.7397 N.3     1  UNL1       -0.2688
     21 C          -4.8247    3.2715   21.4305 C.3     1  UNL1        0.0756
     22 C          -4.1283    3.6099   20.1458 C.3     1  UNL1        0.0590
     23 C          -2.7254    4.1401   20.1703 C.3     1  UNL1        0.2042
     24 F          -2.9747    4.1314   18.6912 F       1  UNL1       -0.2306
     25 C          -2.0189    4.3320   21.4796 C.3     1  UNL1        0.0590
     26 C          -2.7153    3.9936   22.7643 C.3     1  UNL1        0.0756
     27 C          -4.8146    3.1249   24.0244 C.3     1  UNL1        0.0993
     28 N          -5.2441    6.3265   28.0945 N.pl3   1  UNL1       -0.3426
     29 C          -5.7856    5.7855   26.8044 C.ar    1  UNL1        0.1251
     30 C          -5.0294    4.7257   26.0594 C.ar    1  UNL1        0.0310
     31 C          -5.5709    4.1847   24.7694 C.ar    1  UNL1       -0.0018
     32 C          -6.8685    4.7035   24.2244 C.ar    1  UNL1        0.0179
     33 C          -7.6247    5.7633   24.9694 C.ar    1  UNL1        0.1000
     34 N          -7.0832    6.3043   26.2594 N.ar    1  UNL1       -0.2296
     35 H          -4.3925    5.9860   28.4522 H       1  UNL1        0.1437
     36 H          -5.7404    7.0221   28.5835 H       1  UNL1        0.1437
@<TRIPOS>BOND
     1    28    29    1
     2    29    30   ar
     3    30    31   ar
     4    31    27    1
     5    27    20    1
     6    20    21    1
     7    21    22    1
     8    22    23    1
     9    23    24    1
    10    23     1    1
    11     1     2    2
    12     1     3   am
    13     3     4    1
    14     4     5    1
    15     5     6    1
    16     6     9    1
    17     9    10    1
    18    10    11    1
    19    11    12    1
    20    12    13    1
    21    13    14   ar
    22    14    15   ar
    23    15    16   ar
    24    16    17   ar
    25    17    18   ar
    26    18    19    1
    27     6     7    1
    28     7     8    1
    29    23    25    1
    30    25    26    1
    31    31    32   ar
    32    32    33   ar
    33    33    34   ar
    34    34    29   ar
    35    26    20    1
    36     8     3    1
    37    19     9    1
    38    18    13   ar
    39    28    35    1
    40    28    36    1
@<TRIPOS>MOLECULE
*****
 36 40 0 0 0
SMALL
GASTEIGER

@<TRIPOS>ATOM
      1 C          -0.8536    3.2144   26.3851 C.2     1  UNL1        0.2553
      2 O          -0.6610    2.4886   27.6836 O.2     1  UNL1       -0.2720
      3 N          -0.2644    2.6605   25.1218 N.am    1  UNL1       -0.2773
      4 C           0.5174    1.3809   25.1569 C.3     1  UNL1        0.0949
      5 C           1.1066    0.8270   23.8935 C.3     1  UNL1        0.0375
      6 C           0.9140    1.5528   22.5950 C.3     1  UNL1        0.0612
      7 C           0.1322    2.8325   22.5599 C.3     1  UNL1        0.0375
      8 C          -0.4570    3.3864   23.8232 C.3     1  UNL1        0.0949
      9 N           1.5031    0.9990   21.3316 N.3     1  UNL1       -0.2702
     10 C           1.1733    1.7501   20.0758 C.3     1  UNL1        0.0727
     11 C           1.6031    1.4550   18.6693 C.3     1  UNL1        0.0220
     12 C           2.4689    0.3359   18.1713 C.3     1  UNL1        0.0275
     13 C           3.1187   -0.7645   18.9567 C.ar    1  UNL1       -0.0248
     14 C           3.9045   -1.6821   18.0676 C.ar    1  UNL1       -0.0045
     15 C           4.6349   -2.8527   18.6560 C.ar    1  UNL1       -0.0003
     16 C           4.5794   -3.1058   20.1334 C.ar    1  UNL1       -0.0003
     17 C           3.7935   -2.1882   21.0225 C.ar    1  UNL1       -0.0032
     18 C           3.0632   -1.0176   20.4342 C.ar    1  UNL1       -0.0101
     19 C           2.3442   -0.2327   21.4911 C.3     1  UNL1        0.0988
     20 N          -4.4436    5.4823   26.7199 N.3     1  UNL1       -0.2688
     21 C          -3.3456    6.4494   26.3893 C.3     1  UNL1        0.0756
     22 C          -1.9415    5.9552   26.2043 C.3     1  UNL1        0.0590
     23 C          -1.6354    4.4941   26.3500 C.3     1  UNL1        0.2042
     24 F          -0.2659    5.0166   26.0315 F       1  UNL1       -0.2306
     25 C          -2.7334    3.5270   26.6807 C.3     1  UNL1        0.0590
     26 C          -4.1375    4.0212   26.8656 C.3     1  UNL1        0.0756
     27 C          -5.8477    5.9765   26.9049 C.3     1  UNL1        0.0993
     28 N          -7.1281    4.1591   22.2083 N.pl3   1  UNL1       -0.3426
     29 C          -7.4824    4.9366   23.4413 C.ar    1  UNL1        0.1251
     30 C          -6.4880    5.0679   24.5566 C.ar    1  UNL1        0.0310
     31 C          -6.8421    5.8453   25.7896 C.ar    1  UNL1       -0.0018
     32 C          -8.1907    6.4914   25.9072 C.ar    1  UNL1        0.0179
     33 C          -9.1851    6.3601   24.7918 C.ar    1  UNL1        0.1000
     34 N          -8.8309    5.5827   23.5589 N.ar    1  UNL1       -0.2296
     35 H          -6.2429    3.7351   22.1312 H       1  UNL1        0.1437
     36 H          -7.7807    4.0729   21.4762 H       1  UNL1        0.1437
@<TRIPOS>BOND
     1    28    29    1
     2    29    30   ar
     3    30    31   ar
     4    31    27    1
     5    27    20    1
     6    20    21    1
     7    21    22    1
     8    22    23    1
     9    23    24    1
    10    23     1    1
    11     1     2    2
    12     1     3   am
    13     3     4    1
    14     4     5    1
    15     5     6    1
    16     6     9    1
    17     9    10    1
    18    10    11    1
    19    11    12    1
    20    12    13    1
    21    13    14   ar
    22    14    15   ar
    23    15    16   ar
    24    16    17   ar
    25    17    18   ar
    26    18    19    1
    27     6     7    1
    28     7     8    1
    29    23    25    1
    30    25    26    1
    31    31    32   ar
    32    32    33   ar
    33    33    34   ar
    34    34    29   ar
    35    26    20    1
    36     8     3    1
    37    19     9    1
    38    18    13   ar
    39    28    35    1
    40    28    36    1
@<TRIPOS>MOLECULE
*****
 36 40 0 0 0
SMALL
GASTEIGER

@<TRIPOS>ATOM
      1 C           1.3523    1.8789   27.7874 C.2     1  UNL1        0.2553
      2 O           1.7180    0.9007   26.7106 O.2     1  UNL1       -0.2720
      3 N           1.8184    1.6536   29.1952 N.am    1  UNL1       -0.2773
      4 C           2.6503    0.4502   29.5263 C.3     1  UNL1        0.0949
      5 C           3.1165    0.2249   30.9342 C.3     1  UNL1        0.0375
      6 C           2.7506    1.2032   32.0109 C.3     1  UNL1        0.0612
      7 C           1.9187    2.4066   31.6798 C.3     1  UNL1        0.0375
      8 C           1.4525    2.6319   30.2720 C.3     1  UNL1        0.0949
      9 N           3.2168    0.9779   33.4187 N.3     1  UNL1       -0.2702
     10 C           4.0719   -0.2353   33.6349 C.3     1  UNL1        0.0727
     11 C           4.6877   -0.7305   34.9100 C.3     1  UNL1        0.0220
     12 C           4.6002   -0.1346   36.2837 C.3     1  UNL1        0.0275
     13 C           3.8756    1.1035   36.7218 C.ar    1  UNL1       -0.0248
     14 C           4.0447    1.3462   38.1923 C.ar    1  UNL1       -0.0045
     15 C           3.3977    2.5369   38.8353 C.ar    1  UNL1       -0.0003
     16 C           2.5814    3.4850   38.0077 C.ar    1  UNL1       -0.0003
     17 C           2.4122    3.2423   36.5372 C.ar    1  UNL1       -0.0032
     18 C           3.0593    2.0516   35.8943 C.ar    1  UNL1       -0.0101
     19 C           2.7661    1.9957   34.4242 C.3     1  UNL1        0.0988
     20 N          -2.3168    3.8056   26.8024 N.3     1  UNL1       -0.2688
     21 C          -1.2643    4.8729   26.8572 C.3     1  UNL1        0.0756
     22 C           0.1543    4.5113   27.1841 C.3     1  UNL1        0.0590
     23 C           0.5203    3.0824   27.4563 C.3     1  UNL1        0.2042
     24 F           1.8617    3.7317   27.6261 F       1  UNL1       -0.2306
     25 C          -0.5323    2.0150   27.4015 C.3     1  UNL1        0.0590
     26 C          -1.9508    2.3767   27.0746 C.3     1  UNL1        0.0756
     27 C          -3.7354    4.1673   26.4755 C.3     1  UNL1        0.0993
     28 N          -7.7111    3.9813   23.1349 N.pl3   1  UNL1       -0.3426
     29 C          -6.2380    3.9019   23.4068 C.ar    1  UNL1        0.1251
     30 C          -5.7232    4.0743   24.8052 C.ar    1  UNL1        0.0310
     31 C          -4.2502    3.9949   25.0772 C.ar    1  UNL1       -0.0018
     32 C          -3.2920    3.7433   23.9509 C.ar    1  UNL1        0.0179
     33 C          -3.8068    3.5710   22.5525 C.ar    1  UNL1        0.1000
     34 N          -5.2799    3.6503   22.2806 N.ar    1  UNL1       -0.2296
     35 H          -8.3399    4.1464   23.8742 H       1  UNL1        0.1437
     36 H          -8.0490    3.8682   22.2172 H       1  UNL1        0.1437
@<TRIPOS>BOND
     1    28    29    1
     2    29    30   ar
     3    30    31   ar
     4    31    27    1
     5    27    20    1
     6    20    21    1
     7    21    22    1
     8    22    23    1
     9    23    24    1
    10    23     1    1
    11     1     2    2
    12     1     3   am
    13     3     4    1
    14     4     5    1
    15     5     6    1
    16     6     9    1
    17     9    10    1
    18    10    11    1
    19    11    12    1
    20    12    13    1
    21    13    14   ar
    22    14    15   ar
    23    15    16   ar
    24    16    17   ar
    25    17    18   ar
    26    18    19    1
    27     6     7    1
    28     7     8    1
    29    23    25    1
    30    25    26    1
    31    31    32   ar
    32    32    33   ar
    33    33    34   ar
    34    34    29   ar
    35    26    20    1
    36     8     3    1
    37    19     9    1
    38    18    13   ar
    39    28    35    1
    40    28    36    1
