@<TRIPOS>MOLECULE
*****
 30 33 0 0 0
SMALL
GASTEIGER

@<TRIPOS>ATOM
      1 C           6.8225    1.0197   33.3461 C.3     1  UNL1        0.0324
      2 C           6.3410   -0.3868   33.1461 C.ar    1  UNL1       -0.0071
      3 C           7.1135   -1.3264   32.2684 C.ar    1  UNL1        0.0115
      4 C           6.6321   -2.7328   32.0684 C.ar    1  UNL1        0.0476
      5 C           5.3781   -3.1998   32.7462 C.ar    1  UNL1        0.0158
      6 C           4.6055   -2.2603   33.6239 C.ar    1  UNL1        0.0156
      7 C           5.0870   -0.8538   33.8238 C.ar    1  UNL1        0.0466
      8 N           7.4047   -3.6724   31.1907 N.pl3   1  UNL1       -0.3061
      9 C           8.8731   -3.9629   31.2874 C.3     1  UNL1        0.0923
     10 C           9.2204   -4.9564   30.2186 C.3     1  UNL1        0.0391
     11 C           7.9666   -5.2800   29.4613 C.3     1  UNL1        0.0790
     12 C           6.8445   -4.4864   30.0621 C.3     1  UNL1        0.1067
     13 N           7.8547   -6.2302   28.3061 N.3     1  UNL1       -0.2736
     14 C           8.2752   -7.6700   28.3050 C.3     1  UNL1        0.0721
     15 C           7.9830   -8.2371   26.9474 C.3     1  UNL1        0.0187
     16 C           7.3819   -7.1478   26.1095 C.3     1  UNL1        0.0174
     17 C           7.3026   -5.9074   26.9493 C.3     1  UNL1        0.0576
     18 C           6.7655   -4.5777   26.5094 C.3     1  UNL1        0.0173
     19 N           4.3144    0.0858   34.7016 N.am    1  UNL1       -0.2806
     20 C           4.6934    0.2475   36.1438 C.2     1  UNL1        0.2493
     21 O           5.8451   -0.5302   36.7084 O.2     1  UNL1       -0.2698
     22 H           3.5585    0.5963   34.3310 H       1  UNL1        0.1552
     23 C           3.9208    1.1871   37.0216 C.ar    1  UNL1        0.0520
     24 C           2.8785    0.6522   37.9583 C.ar    1  UNL1        0.0338
     25 C           2.1059    1.5917   38.8361 C.ar    1  UNL1        0.1403
     26 F           1.0636    1.0568   39.7728 F       1  UNL1       -0.2042
     27 C           2.3756    3.0660   38.7770 C.ar    1  UNL1        0.0293
     28 C           3.4179    3.6009   37.8403 C.ar    1  UNL1       -0.0018
     29 C           4.1905    2.6614   36.9625 C.ar    1  UNL1       -0.0173
     30 C           5.2328    3.1963   36.0258 C.3     1  UNL1        0.0312
@<TRIPOS>BOND
     1     1     2    1
     2     2     3   ar
     3     3     4   ar
     4     4     8    1
     5     8     9    1
     6     9    10    1
     7    10    11    1
     8    11    13    1
     9    13    14    1
    10    14    15    1
    11    15    16    1
    12    16    17    1
    13    17    18    1
    14    11    12    1
    15     4     5   ar
    16     5     6   ar
    17     6     7   ar
    18     7    19    1
    19    19    20   am
    20    20    21    2
    21    20    23    1
    22    23    24   ar
    23    24    25   ar
    24    25    26    1
    25    25    27   ar
    26    27    28   ar
    27    28    29   ar
    28    29    30    1
    29     7     2   ar
    30    29    23   ar
    31    12     8    1
    32    17    13    1
    33    19    22    1
@<TRIPOS>MOLECULE
*****
 30 33 0 0 0
SMALL
GASTEIGER

@<TRIPOS>ATOM
      1 C           1.1920    0.9642   24.7869 C.3     1  UNL1        0.0324
      2 C           0.1925    1.8469   24.0999 C.ar    1  UNL1       -0.0071
      3 C          -0.9488    2.4335   24.8765 C.ar    1  UNL1        0.0115
      4 C          -1.9483    3.3162   24.1895 C.ar    1  UNL1        0.0476
      5 C          -1.8063    3.6123   22.7259 C.ar    1  UNL1        0.0158
      6 C          -0.6650    3.0257   21.9493 C.ar    1  UNL1        0.0156
      7 C           0.3345    2.1430   22.6363 C.ar    1  UNL1        0.0466
      8 N          -3.0897    3.9028   24.9662 N.pl3   1  UNL1       -0.3061
      9 C          -3.2390    3.8908   26.4587 C.3     1  UNL1        0.0923
     10 C          -4.5238    4.5849   26.8016 C.3     1  UNL1        0.0391
     11 C          -5.1685    5.0259   25.5210 C.3     1  UNL1        0.0790
     12 C          -4.2822    4.6044   24.3867 C.3     1  UNL1        0.1067
     13 N          -6.4708    5.7597   25.3966 N.3     1  UNL1       -0.2736
     14 C          -6.9051    6.9317   26.2259 C.3     1  UNL1        0.0721
     15 C          -8.2702    7.3466   25.7629 C.3     1  UNL1        0.0187
     16 C          -8.6795    6.4311   24.6475 C.3     1  UNL1        0.0174
     17 C          -7.5674    5.4503   24.4211 C.3     1  UNL1        0.0576
     18 C          -7.5543    4.3527   23.3987 C.3     1  UNL1        0.0173
     19 N           1.4759    1.5565   21.8596 N.am    1  UNL1       -0.2806
     20 C           1.2528    0.3537   20.9916 C.2     1  UNL1        0.2493
     21 O          -0.1117   -0.2626   20.9003 O.2     1  UNL1       -0.2698
     22 H           2.3715    1.9609   21.9196 H       1  UNL1        0.1552
     23 C           2.3942   -0.2329   20.2150 C.ar    1  UNL1        0.0520
     24 C           2.4914   -0.0032   18.7358 C.ar    1  UNL1        0.0338
     25 C           3.6327   -0.5898   17.9592 C.ar    1  UNL1        0.1403
     26 F           3.7299   -0.3601   16.4800 F       1  UNL1       -0.2042
     27 C           4.6769   -1.4060   18.6616 C.ar    1  UNL1        0.0293
     28 C           4.5797   -1.6357   20.1407 C.ar    1  UNL1       -0.0018
     29 C           3.4384   -1.0492   20.9174 C.ar    1  UNL1       -0.0173
     30 C           3.3412   -1.2789   22.3965 C.3     1  UNL1        0.0312
@<TRIPOS>BOND
     1     1     2    1
     2     2     3   ar
     3     3     4   ar
     4     4     8    1
     5     8     9    1
     6     9    10    1
     7    10    11    1
     8    11    13    1
     9    13    14    1
    10    14    15    1
    11    15    16    1
    12    16    17    1
    13    17    18    1
    14    11    12    1
    15     4     5   ar
    16     5     6   ar
    17     6     7   ar
    18     7    19    1
    19    19    20   am
    20    20    21    2
    21    20    23    1
    22    23    24   ar
    23    24    25   ar
    24    25    26    1
    25    25    27   ar
    26    27    28   ar
    27    28    29   ar
    28    29    30    1
    29     7     2   ar
    30    29    23   ar
    31    12     8    1
    32    17    13    1
    33    19    22    1
@<TRIPOS>MOLECULE
*****
 30 33 0 0 0
SMALL
GASTEIGER

@<TRIPOS>ATOM
      1 C          -1.1005    3.3084   24.8404 C.3     1  UNL1        0.0324
      2 C          -1.2934    3.2690   23.3534 C.ar    1  UNL1       -0.0071
      3 C          -0.3334    2.5027   22.4926 C.ar    1  UNL1        0.0115
      4 C          -0.5263    2.4634   21.0055 C.ar    1  UNL1        0.0476
      5 C          -1.6792    3.1904   20.3793 C.ar    1  UNL1        0.0158
      6 C          -2.6392    3.9568   21.2401 C.ar    1  UNL1        0.0156
      7 C          -2.4463    3.9961   22.7271 C.ar    1  UNL1        0.0466
      8 N           0.4338    1.6970   20.1447 N.pl3   1  UNL1       -0.3061
      9 C           0.7086    1.9477   18.6916 C.3     1  UNL1        0.0923
     10 C           1.7323    0.9510   18.2347 C.3     1  UNL1        0.0391
     11 C           2.0901    0.0842   19.4056 C.3     1  UNL1        0.0790
     12 C           1.2876    0.5453   20.5859 C.3     1  UNL1        0.1067
     13 N           3.0771   -1.0453   19.3973 N.3     1  UNL1       -0.2736
     14 C           3.4242   -1.9212   20.5644 C.3     1  UNL1        0.0721
     15 C           4.4520   -2.9144   20.1090 C.3     1  UNL1        0.0187
     16 C           4.7399   -2.6522   18.6605 C.3     1  UNL1        0.0174
     17 C           3.8902   -1.4970   18.2206 C.3     1  UNL1        0.0576
     18 C           3.8590   -0.8987   16.8455 C.3     1  UNL1        0.0173
     19 N          -3.4064    4.7625   23.5880 N.am    1  UNL1       -0.2806
     20 C          -4.6570    4.1022   24.0879 C.2     1  UNL1        0.2493
     21 O          -4.9476    2.6755   23.7271 O.2     1  UNL1       -0.2698
     22 H          -3.2157    5.6988   23.8248 H       1  UNL1        0.1552
     23 C          -5.6171    4.8686   24.9487 C.ar    1  UNL1        0.0520
     24 C          -6.8888    5.4042   24.3605 C.ar    1  UNL1        0.0338
     25 C          -7.8488    6.1706   25.2212 C.ar    1  UNL1        0.1403
     26 F          -9.1205    6.7061   24.6330 F       1  UNL1       -0.2042
     27 C          -7.5373    6.4013   26.6702 C.ar    1  UNL1        0.0293
     28 C          -6.2656    5.8657   27.2585 C.ar    1  UNL1       -0.0018
     29 C          -5.3055    5.0994   26.3977 C.ar    1  UNL1       -0.0173
     30 C          -4.0339    4.5638   26.9860 C.3     1  UNL1        0.0312
@<TRIPOS>BOND
     1     1     2    1
     2     2     3   ar
     3     3     4   ar
     4     4     8    1
     5     8     9    1
     6     9    10    1
     7    10    11    1
     8    11    13    1
     9    13    14    1
    10    14    15    1
    11    15    16    1
    12    16    17    1
    13    17    18    1
    14    11    12    1
    15     4     5   ar
    16     5     6   ar
    17     6     7   ar
    18     7    19    1
    19    19    20   am
    20    20    21    2
    21    20    23    1
    22    23    24   ar
    23    24    25   ar
    24    25    26    1
    25    25    27   ar
    26    27    28   ar
    27    28    29   ar
    28    29    30    1
    29     7     2   ar
    30    29    23   ar
    31    12     8    1
    32    17    13    1
    33    19    22    1
@<TRIPOS>MOLECULE
*****
 30 33 0 0 0
SMALL
GASTEIGER

@<TRIPOS>ATOM
      1 C           7.2948   -5.5975   25.0056 C.3     1  UNL1        0.0324
      2 C           6.9177   -4.3667   25.7756 C.ar    1  UNL1       -0.0071
      3 C           6.8912   -4.3988   27.2750 C.ar    1  UNL1        0.0115
      4 C           6.5141   -3.1680   28.0450 C.ar    1  UNL1        0.0476
      5 C           6.1635   -1.9050   27.3156 C.ar    1  UNL1        0.0158
      6 C           6.1900   -1.8730   25.8162 C.ar    1  UNL1        0.0156
      7 C           6.5671   -3.1038   25.0462 C.ar    1  UNL1        0.0466
      8 N           6.4876   -3.2001   29.5444 N.pl3   1  UNL1       -0.3061
      9 C           6.9047   -4.3526   30.4091 C.3     1  UNL1        0.0923
     10 C           6.7142   -3.9501   31.8415 C.3     1  UNL1        0.0391
     11 C           6.1793   -2.5488   31.8621 C.3     1  UNL1        0.0790
     12 C           6.0393   -2.0853   30.4424 C.3     1  UNL1        0.1067
     13 N           5.8435   -1.7512   33.0872 N.3     1  UNL1       -0.2736
     14 C           4.5156   -1.7229   33.7842 C.3     1  UNL1        0.0721
     15 C           4.6280   -0.7960   34.9582 C.3     1  UNL1        0.0187
     16 C           6.0254   -0.2515   34.9868 C.3     1  UNL1        0.0174
     17 C           6.7766   -0.8419   33.8304 C.3     1  UNL1        0.0576
     18 C           8.2094   -0.5705   33.4790 C.3     1  UNL1        0.0173
     19 N           6.5936   -3.0716   23.5467 N.am    1  UNL1       -0.2806
     20 C           5.3187   -2.8885   22.7778 C.2     1  UNL1        0.2493
     21 O           4.0174   -2.7375   23.5083 O.2     1  UNL1       -0.2698
     22 H           7.4477   -3.1707   23.0672 H       1  UNL1        0.1552
     23 C           5.3452   -2.8564   21.2783 C.ar    1  UNL1        0.0520
     24 C           4.9877   -4.0849   20.4954 C.ar    1  UNL1        0.0338
     25 C           5.0142   -4.0528   18.9960 C.ar    1  UNL1        0.1403
     26 F           4.6566   -5.2813   18.2131 F       1  UNL1       -0.2042
     27 C           5.3982   -2.7922   18.2796 C.ar    1  UNL1        0.0293
     28 C           5.7557   -1.5637   19.0625 C.ar    1  UNL1       -0.0018
     29 C           5.7292   -1.5958   20.5619 C.ar    1  UNL1       -0.0173
     30 C           6.0868   -0.3673   21.3448 C.3     1  UNL1        0.0312
@<TRIPOS>BOND
     1     1     2    1
     2     2     3   ar
     3     3     4   ar
     4     4     8    1
     5     8     9    1
     6     9    10    1
     7    10    11    1
     8    11    13    1
     9    13    14    1
    10    14    15    1
    11    15    16    1
    12    16    17    1
    13    17    18    1
    14    11    12    1
    15     4     5   ar
    16     5     6   ar
    17     6     7   ar
    18     7    19    1
    19    19    20   am
    20    20    21    2
    21    20    23    1
    22    23    24   ar
    23    24    25   ar
    24    25    26    1
    25    25    27   ar
    26    27    28   ar
    27    28    29   ar
    28    29    30    1
    29     7     2   ar
    30    29    23   ar
    31    12     8    1
    32    17    13    1
    33    19    22    1
@<TRIPOS>MOLECULE
*****
 30 33 0 0 0
SMALL
GASTEIGER

@<TRIPOS>ATOM
      1 C          -4.2397    4.0348   20.2853 C.3     1  UNL1        0.0324
      2 C          -2.9289    3.6905   20.9281 C.ar    1  UNL1       -0.0071
      3 C          -1.8874    2.9401   20.1523 C.ar    1  UNL1        0.0115
      4 C          -0.5765    2.5957   20.7950 C.ar    1  UNL1        0.0476
      5 C          -0.3073    3.0018   22.2137 C.ar    1  UNL1        0.0158
      6 C          -1.3488    3.7522   22.9895 C.ar    1  UNL1        0.0156
      7 C          -2.6596    4.0965   22.3467 C.ar    1  UNL1        0.0466
      8 N           0.4651    1.8453   20.0191 N.pl3   1  UNL1       -0.3061
      9 C           0.9985    2.2200   18.6682 C.3     1  UNL1        0.0923
     10 C           2.0191    1.1947   18.2721 C.3     1  UNL1        0.0391
     11 C           2.1165    0.1862   19.3782 C.3     1  UNL1        0.0790
     12 C           1.1561    0.5883   20.4579 C.3     1  UNL1        0.1067
     13 N           3.0164   -1.0137   19.4007 N.3     1  UNL1       -0.2736
     14 C           3.2434   -1.9236   20.5713 C.3     1  UNL1        0.0721
     15 C           4.2146   -2.9866   20.1505 C.3     1  UNL1        0.0187
     16 C           4.5877   -2.7335   18.7199 C.3     1  UNL1        0.0174
     17 C           3.8472   -1.5142   18.2564 C.3     1  UNL1        0.0576
     18 C           3.9239   -0.9027   16.8889 C.3     1  UNL1        0.0173
     19 N          -3.7012    4.8470   23.1227 N.am    1  UNL1       -0.2806
     20 C          -4.7318    4.0975   23.9140 C.2     1  UNL1        0.2493
     21 O          -4.7209    2.5977   23.9294 O.2     1  UNL1       -0.2698
     22 H          -3.7084    5.8314   23.1126 H       1  UNL1        0.1552
     23 C          -5.7734    4.8480   24.6899 C.ar    1  UNL1        0.0520
     24 C          -5.4789    5.3132   26.0852 C.ar    1  UNL1        0.0338
     25 C          -6.5204    6.0636   26.8611 C.ar    1  UNL1        0.1403
     26 F          -6.2258    6.5288   28.2564 F       1  UNL1       -0.2042
     27 C          -7.8564    6.3488   26.2418 C.ar    1  UNL1        0.0293
     28 C          -8.1509    5.8836   24.8465 C.ar    1  UNL1       -0.0018
     29 C          -7.1094    5.1332   24.0706 C.ar    1  UNL1       -0.0173
     30 C          -7.4040    4.6680   22.6753 C.3     1  UNL1        0.0312
@<TRIPOS>BOND
     1     1     2    1
     2     2     3   ar
     3     3     4   ar
     4     4     8    1
     5     8     9    1
     6     9    10    1
     7    10    11    1
     8    11    13    1
     9    13    14    1
    10    14    15    1
    11    15    16    1
    12    16    17    1
    13    17    18    1
    14    11    12    1
    15     4     5   ar
    16     5     6   ar
    17     6     7   ar
    18     7    19    1
    19    19    20   am
    20    20    21    2
    21    20    23    1
    22    23    24   ar
    23    24    25   ar
    24    25    26    1
    25    25    27   ar
    26    27    28   ar
    27    28    29   ar
    28    29    30    1
    29     7     2   ar
    30    29    23   ar
    31    12     8    1
    32    17    13    1
    33    19    22    1
@<TRIPOS>MOLECULE
*****
 30 33 0 0 0
SMALL
GASTEIGER

@<TRIPOS>ATOM
      1 C           3.3020   -0.5183   25.0902 C.3     1  UNL1        0.0324
      2 C           4.5351   -1.1864   25.6223 C.ar    1  UNL1       -0.0071
      3 C           4.6692   -1.4519   27.0925 C.ar    1  UNL1        0.0115
      4 C           5.9023   -2.1200   27.6245 C.ar    1  UNL1        0.0476
      5 C           7.0013   -2.5226   26.6865 C.ar    1  UNL1        0.0158
      6 C           6.8672   -2.2571   25.2163 C.ar    1  UNL1        0.0156
      7 C           5.6341   -1.5890   24.6842 C.ar    1  UNL1        0.0466
      8 N           6.0363   -2.3855   29.0948 N.pl3   1  UNL1       -0.3061
      9 C           6.6157   -3.6205   29.7185 C.3     1  UNL1        0.0923
     10 C           6.5520   -3.4608   31.2086 C.3     1  UNL1        0.0391
     11 C           5.9332   -2.1270   31.5059 C.3     1  UNL1        0.0790
     12 C           5.6145   -1.4625   30.1995 C.3     1  UNL1        0.1067
     13 N           5.6780   -1.5579   32.8700 N.3     1  UNL1       -0.2736
     14 C           4.3702   -1.5806   33.6042 C.3     1  UNL1        0.0721
     15 C           4.5696   -0.9028   34.9274 C.3     1  UNL1        0.0187
     16 C           6.0007   -0.4612   35.0109 C.3     1  UNL1        0.0174
     17 C           6.6857   -0.8661   33.7394 C.3     1  UNL1        0.0576
     18 C           8.1256   -0.6220   33.3973 C.3     1  UNL1        0.0173
     19 N           5.5000   -1.3235   23.2139 N.am    1  UNL1       -0.2806
     20 C           4.8605   -2.3463   22.3224 C.2     1  UNL1        0.2493
     21 O           4.3550   -3.6345   22.9010 O.2     1  UNL1       -0.2698
     22 H           5.8318   -0.4780   22.8341 H       1  UNL1        0.1552
     23 C           4.7264   -2.0808   20.8521 C.ar    1  UNL1        0.0520
     24 C           5.8029   -2.5279   19.9080 C.ar    1  UNL1        0.0338
     25 C           5.6689   -2.2625   18.4378 C.ar    1  UNL1        0.1403
     26 F           6.7454   -2.7096   17.4938 F       1  UNL1       -0.2042
     27 C           4.4584   -1.5499   17.9117 C.ar    1  UNL1        0.0293
     28 C           3.3819   -1.1028   18.8558 C.ar    1  UNL1       -0.0018
     29 C           3.5159   -1.3682   20.3259 C.ar    1  UNL1       -0.0173
     30 C           2.4394   -0.9211   21.2700 C.3     1  UNL1        0.0312
@<TRIPOS>BOND
     1     1     2    1
     2     2     3   ar
     3     3     4   ar
     4     4     8    1
     5     8     9    1
     6     9    10    1
     7    10    11    1
     8    11    13    1
     9    13    14    1
    10    14    15    1
    11    15    16    1
    12    16    17    1
    13    17    18    1
    14    11    12    1
    15     4     5   ar
    16     5     6   ar
    17     6     7   ar
    18     7    19    1
    19    19    20   am
    20    20    21    2
    21    20    23    1
    22    23    24   ar
    23    24    25   ar
    24    25    26    1
    25    25    27   ar
    26    27    28   ar
    27    28    29   ar
    28    29    30    1
    29     7     2   ar
    30    29    23   ar
    31    12     8    1
    32    17    13    1
    33    19    22    1
@<TRIPOS>MOLECULE
*****
 30 33 0 0 0
SMALL
GASTEIGER

@<TRIPOS>ATOM
      1 C           3.3901   -0.5418   24.9425 C.3     1  UNL1        0.0324
      2 C           4.5938   -1.2590   25.4780 C.ar    1  UNL1       -0.0071
      3 C           4.7231   -1.5108   26.9510 C.ar    1  UNL1        0.0115
      4 C           5.9269   -2.2279   27.4865 C.ar    1  UNL1        0.0476
      5 C           7.0013   -2.6932   26.5489 C.ar    1  UNL1        0.0158
      6 C           6.8720   -2.4413   25.0759 C.ar    1  UNL1        0.0156
      7 C           5.6683   -1.7242   24.5404 C.ar    1  UNL1        0.0466
      8 N           6.0562   -2.4798   28.9595 N.pl3   1  UNL1       -0.3061
      9 C           6.6292   -3.7109   29.5966 C.3     1  UNL1        0.0923
     10 C           6.5623   -3.5367   31.0849 C.3     1  UNL1        0.0391
     11 C           5.9478   -2.1978   31.3678 C.3     1  UNL1        0.0790
     12 C           5.6350   -1.5447   30.0542 C.3     1  UNL1        0.1067
     13 N           5.6913   -1.6146   32.7257 N.3     1  UNL1       -0.2736
     14 C           4.4025   -1.6919   33.4892 C.3     1  UNL1        0.0721
     15 C           4.5931   -0.9768   34.7939 C.3     1  UNL1        0.0187
     16 C           5.9997   -0.4575   34.8367 C.3     1  UNL1        0.0174
     17 C           6.6784   -0.8518   33.5584 C.3     1  UNL1        0.0576
     18 C           8.0955   -0.5381   33.1795 C.3     1  UNL1        0.0173
     19 N           5.5390   -1.4723   23.0673 N.am    1  UNL1       -0.2806
     20 C           4.8522   -2.4782   22.1919 C.2     1  UNL1        0.2493
     21 O           4.2946   -3.7360   22.7895 O.2     1  UNL1       -0.2698
     22 H           5.9049   -0.6468   22.6751 H       1  UNL1        0.1552
     23 C           4.7229   -2.2264   20.7188 C.ar    1  UNL1        0.0520
     24 C           3.6300   -1.3378   20.2030 C.ar    1  UNL1        0.0338
     25 C           3.5007   -1.0859   18.7299 C.ar    1  UNL1        0.1403
     26 F           2.4079   -0.1974   18.2141 F       1  UNL1       -0.2042
     27 C           4.4643   -1.7226   17.7728 C.ar    1  UNL1        0.0293
     28 C           5.5571   -2.6112   18.2887 C.ar    1  UNL1       -0.0018
     29 C           5.6864   -2.8631   19.7617 C.ar    1  UNL1       -0.0173
     30 C           6.7793   -3.7516   20.2776 C.3     1  UNL1        0.0312
@<TRIPOS>BOND
     1     1     2    1
     2     2     3   ar
     3     3     4   ar
     4     4     8    1
     5     8     9    1
     6     9    10    1
     7    10    11    1
     8    11    13    1
     9    13    14    1
    10    14    15    1
    11    15    16    1
    12    16    17    1
    13    17    18    1
    14    11    12    1
    15     4     5   ar
    16     5     6   ar
    17     6     7   ar
    18     7    19    1
    19    19    20   am
    20    20    21    2
    21    20    23    1
    22    23    24   ar
    23    24    25   ar
    24    25    26    1
    25    25    27   ar
    26    27    28   ar
    27    28    29   ar
    28    29    30    1
    29     7     2   ar
    30    29    23   ar
    31    12     8    1
    32    17    13    1
    33    19    22    1
@<TRIPOS>MOLECULE
*****
 30 33 0 0 0
SMALL
GASTEIGER

@<TRIPOS>ATOM
      1 C           4.6753    0.1866   27.3735 C.3     1  UNL1        0.0324
      2 C           3.5531    0.4694   26.4192 C.ar    1  UNL1       -0.0071
      3 C           3.5944   -0.0871   25.0269 C.ar    1  UNL1        0.0115
      4 C           2.4722    0.1957   24.0726 C.ar    1  UNL1        0.0476
      5 C           1.3087    1.0350   24.5106 C.ar    1  UNL1        0.0158
      6 C           1.2674    1.5915   25.9029 C.ar    1  UNL1        0.0156
      7 C           2.3896    1.3087   26.8572 C.ar    1  UNL1        0.0466
      8 N           2.5135   -0.3609   22.6803 N.pl3   1  UNL1       -0.3061
      9 C           1.5950    0.0113   21.5543 C.3     1  UNL1        0.0923
     10 C           1.9944   -0.7851   20.3476 C.3     1  UNL1        0.0391
     11 C           3.1598   -1.6497   20.7278 C.3     1  UNL1        0.0790
     12 C           3.4806   -1.3875   22.1694 C.3     1  UNL1        0.1067
     13 N           3.8782   -2.6081   19.8249 N.3     1  UNL1       -0.2736
     14 C           3.5360   -4.0545   19.6233 C.3     1  UNL1        0.0721
     15 C           4.5113   -4.6287   18.6389 C.3     1  UNL1        0.0187
     16 C           5.4562   -3.5371   18.2320 C.3     1  UNL1        0.0174
     17 C           5.0649   -2.2883   18.9650 C.3     1  UNL1        0.0576
     18 C           5.7416   -0.9539   18.8571 C.3     1  UNL1        0.0173
     19 N           2.3483    1.8653   28.2496 N.am    1  UNL1       -0.2806
     20 C           1.7850    1.0422   29.3699 C.2     1  UNL1        0.2493
     21 O           1.2629   -0.3375   29.0979 O.2     1  UNL1       -0.2698
     22 H           2.6909    2.7708   28.4281 H       1  UNL1        0.1552
     23 C           1.7437    1.5987   30.7622 C.ar    1  UNL1        0.0520
     24 C           0.7725    2.6891   31.1055 C.ar    1  UNL1        0.0338
     25 C           0.7311    3.2457   32.4978 C.ar    1  UNL1        0.1403
     26 F          -0.2400    4.3361   32.8411 F       1  UNL1       -0.2042
     27 C           1.6610    2.7119   33.5468 C.ar    1  UNL1        0.0293
     28 C           2.6321    1.6215   33.2035 C.ar    1  UNL1       -0.0018
     29 C           2.6735    1.0649   31.8112 C.ar    1  UNL1       -0.0173
     30 C           3.6446   -0.0255   31.4679 C.3     1  UNL1        0.0312
@<TRIPOS>BOND
     1     1     2    1
     2     2     3   ar
     3     3     4   ar
     4     4     8    1
     5     8     9    1
     6     9    10    1
     7    10    11    1
     8    11    13    1
     9    13    14    1
    10    14    15    1
    11    15    16    1
    12    16    17    1
    13    17    18    1
    14    11    12    1
    15     4     5   ar
    16     5     6   ar
    17     6     7   ar
    18     7    19    1
    19    19    20   am
    20    20    21    2
    21    20    23    1
    22    23    24   ar
    23    24    25   ar
    24    25    26    1
    25    25    27   ar
    26    27    28   ar
    27    28    29   ar
    28    29    30    1
    29     7     2   ar
    30    29    23   ar
    31    12     8    1
    32    17    13    1
    33    19    22    1
@<TRIPOS>MOLECULE
*****
 30 33 0 0 0
SMALL
GASTEIGER

@<TRIPOS>ATOM
      1 C           4.9518   -1.5558   28.2282 C.3     1  UNL1        0.0324
      2 C           4.1662   -0.6943   27.2845 C.ar    1  UNL1       -0.0071
      3 C           4.0423   -1.0826   25.8410 C.ar    1  UNL1        0.0115
      4 C           3.2567   -0.2211   24.8973 C.ar    1  UNL1        0.0476
      5 C           2.5950    1.0288   25.3971 C.ar    1  UNL1        0.0158
      6 C           2.7188    1.4171   26.8406 C.ar    1  UNL1        0.0156
      7 C           3.5045    0.5556   27.7843 C.ar    1  UNL1        0.0466
      8 N           3.1329   -0.6094   23.4537 N.pl3   1  UNL1       -0.3061
      9 C           2.1600   -0.0357   22.4666 C.3     1  UNL1        0.0923
     10 C           2.3861   -0.7114   21.1466 C.3     1  UNL1        0.0391
     11 C           3.4987   -1.7029   21.3179 C.3     1  UNL1        0.0790
     12 C           3.9602   -1.6398   22.7437 C.3     1  UNL1        0.1067
     13 N           4.0524   -2.5998   20.2508 N.3     1  UNL1       -0.2736
     14 C           3.6788   -4.0346   20.0237 C.3     1  UNL1        0.0721
     15 C           4.4725   -4.5410   18.8559 C.3     1  UNL1        0.0187
     16 C           5.3366   -3.4190   18.3614 C.3     1  UNL1        0.0174
     17 C           5.0770   -2.2193   19.2235 C.3     1  UNL1        0.0576
     18 C           5.7277   -0.8751   19.0829 C.3     1  UNL1        0.0173
     19 N           3.6283    0.9440   29.2279 N.am    1  UNL1       -0.2806
     20 C           2.5983    0.4879   30.2183 C.2     1  UNL1        0.2493
     21 O           1.4444   -0.3567   29.7652 O.2     1  UNL1       -0.2698
     22 H           4.3856    1.4983   29.5253 H       1  UNL1        0.1552
     23 C           2.7221    0.8763   31.6619 C.ar    1  UNL1        0.0520
     24 C           3.7121    0.1758   32.5447 C.ar    1  UNL1        0.0338
     25 C           3.8360    0.5642   33.9883 C.ar    1  UNL1        0.1403
     26 F           4.8260   -0.1363   34.8711 F       1  UNL1       -0.2042
     27 C           2.9699    1.6529   34.5490 C.ar    1  UNL1        0.0293
     28 C           1.9799    2.3534   33.6661 C.ar    1  UNL1       -0.0018
     29 C           1.8561    1.9650   32.2226 C.ar    1  UNL1       -0.0173
     30 C           0.8661    2.6654   31.3398 C.3     1  UNL1        0.0312
@<TRIPOS>BOND
     1     1     2    1
     2     2     3   ar
     3     3     4   ar
     4     4     8    1
     5     8     9    1
     6     9    10    1
     7    10    11    1
     8    11    13    1
     9    13    14    1
    10    14    15    1
    11    15    16    1
    12    16    17    1
    13    17    18    1
    14    11    12    1
    15     4     5   ar
    16     5     6   ar
    17     6     7   ar
    18     7    19    1
    19    19    20   am
    20    20    21    2
    21    20    23    1
    22    23    24   ar
    23    24    25   ar
    24    25    26    1
    25    25    27   ar
    26    27    28   ar
    27    28    29   ar
    28    29    30    1
    29     7     2   ar
    30    29    23   ar
    31    12     8    1
    32    17    13    1
    33    19    22    1
